(PID.TID 0000.0001) 
(PID.TID 0000.0001) // ======================================================
(PID.TID 0000.0001) //                      MITgcm UV
(PID.TID 0000.0001) //                      =========
(PID.TID 0000.0001) // ======================================================
(PID.TID 0000.0001) // execution environment starting up...
(PID.TID 0000.0001) 
(PID.TID 0000.0001) // MITgcmUV version:  checkpoint55j_post
(PID.TID 0000.0001) // Build user:        jmc
(PID.TID 0000.0001) // Build host:        myrinet-4-28
(PID.TID 0000.0001) // Build date:        Sun Nov 14 19:43:22 EST 2004
(PID.TID 0000.0001) 
(PID.TID 0000.0001) // =======================================================
(PID.TID 0000.0001) // Execution Environment parameter file "eedata"
(PID.TID 0000.0001) // =======================================================
(PID.TID 0000.0001) ># Example "eedata" file
(PID.TID 0000.0001) ># Lines beginning "#" are comments
(PID.TID 0000.0001) ># nTx - No. threads per process in X
(PID.TID 0000.0001) ># nTy - No. threads per process in Y
(PID.TID 0000.0001) > &EEPARMS
(PID.TID 0000.0001) > useCoupler=.TRUE.,
(PID.TID 0000.0001) > useCubedSphereExchange=.TRUE.,
(PID.TID 0000.0001) ># Activate one line below to support 2, 3 or 6 way multi-threading
(PID.TID 0000.0001) > nTx=1,
(PID.TID 0000.0001) >#nTx=2,
(PID.TID 0000.0001) >#nTx=3,
(PID.TID 0000.0001) >#nTx=6,
(PID.TID 0000.0001) > &
(PID.TID 0000.0001) ># Note: Some systems use & as the
(PID.TID 0000.0001) ># namelist terminator. Other systems
(PID.TID 0000.0001) ># use a / character (as shown here).
(PID.TID 0000.0001) 
(PID.TID 0000.0001) // =======================================================
(PID.TID 0000.0001) // Computational Grid Specification ( see files "SIZE.h" )
(PID.TID 0000.0001) //                                  ( and "eedata"       )
(PID.TID 0000.0001) // =======================================================
(PID.TID 0000.0001)      nPx =    1 ; /* No. processes in X */
(PID.TID 0000.0001)      nPy =    1 ; /* No. processes in Y */
(PID.TID 0000.0001)      nSx =    6 ; /* No. tiles in X per process */
(PID.TID 0000.0001)      nSy =    1 ; /* No. tiles in Y per process */
(PID.TID 0000.0001)      sNx =   32 ; /* Tile size in X */
(PID.TID 0000.0001)      sNy =   32 ; /* Tile size in Y */
(PID.TID 0000.0001)      OLx =    2 ; /* Tile overlap distance in X */
(PID.TID 0000.0001)      OLy =    2 ; /* Tile overlap distance in Y */
(PID.TID 0000.0001)      nTx =    1 ; /* No. threads in X per process */
(PID.TID 0000.0001)      nTy =    1 ; /* No. threads in Y per process */
(PID.TID 0000.0001)       Nr =    5 ; /* No. levels in the vertical   */
(PID.TID 0000.0001)       nX =  192 ; /* Total domain size in X ( = nPx*nSx*sNx ) */
(PID.TID 0000.0001)       nY =   32 ; /* Total domain size in Y ( = nPy*nSy*sNy ) */
(PID.TID 0000.0001)   nTiles =    6 ; /* Total no. tiles per process ( = nSx*nSy ) */
(PID.TID 0000.0001)   nProcs =    1 ; /* Total no. processes ( = nPx*nPy ) */
(PID.TID 0000.0001) nThreads =    1 ; /* Total no. threads per process ( = nTx*nTy ) */
(PID.TID 0000.0001) usingMPI =    F ; /* Flag used to control whether MPI is in use */
(PID.TID 0000.0001)                   /*  note: To execute a program with MPI calls */
(PID.TID 0000.0001)                   /*  it must be launched appropriately e.g     */
(PID.TID 0000.0001)                   /*  "mpirun -np 64 ......"                    */
(PID.TID 0000.0001) useCoupler=   T ; /* Flag used to control communications with */
(PID.TID 0000.0001)                   /*  other model components, through a coupler */
(PID.TID 0000.0001) 
(PID.TID 0000.0001) ======= Starting MPI parallel Run =========
(PID.TID 0000.0001)  My Processor Name =                                                     myrinet-3-07
(PID.TID 0000.0001)  Located at (  0,  0) on processor grid (0:  0,0:  0)
(PID.TID 0000.0001)  Origin at  (   1,   1) on global grid (1: 192,1:  32)
(PID.TID 0000.0001)  North neighbor = processor 0000
(PID.TID 0000.0001)  South neighbor = processor 0000
(PID.TID 0000.0001)   East neighbor = processor 0000
(PID.TID 0000.0001)   West neighbor = processor 0000
(PID.TID 0000.0001) // ======================================================
(PID.TID 0000.0001) // Mapping of tiles to threads
(PID.TID 0000.0001) // ======================================================
(PID.TID 0000.0001) // -o- Thread   1, tiles (   1:   6,   1:   1)
(PID.TID 0000.0001) 
(PID.TID 0000.0001) // ======================================================
(PID.TID 0000.0001) // Tile <-> Tile connectvity table
(PID.TID 0000.0001) // ======================================================
(PID.TID 0000.0001) // Tile number: 000001 (process no. = 000000)
(PID.TID 0000.0001) //        WEST: Tile = 000006, Process = 000000, Comm = put
(PID.TID 0000.0001) //                bi = 000006, bj = 000001
(PID.TID 0000.0001) //        EAST: Tile = 000002, Process = 000000, Comm = put
(PID.TID 0000.0001) //                bi = 000002, bj = 000001
(PID.TID 0000.0001) //       SOUTH: Tile = 000001, Process = 000000, Comm = put
(PID.TID 0000.0001) //                bi = 000001, bj = 000001
(PID.TID 0000.0001) //       NORTH: Tile = 000001, Process = 000000, Comm = put
(PID.TID 0000.0001) //                bi = 000001, bj = 000001
(PID.TID 0000.0001) // Tile number: 000002 (process no. = 000000)
(PID.TID 0000.0001) //        WEST: Tile = 000001, Process = 000000, Comm = put
(PID.TID 0000.0001) //                bi = 000001, bj = 000001
(PID.TID 0000.0001) //        EAST: Tile = 000003, Process = 000000, Comm = put
(PID.TID 0000.0001) //                bi = 000003, bj = 000001
(PID.TID 0000.0001) //       SOUTH: Tile = 000002, Process = 000000, Comm = put
(PID.TID 0000.0001) //                bi = 000002, bj = 000001
(PID.TID 0000.0001) //       NORTH: Tile = 000002, Process = 000000, Comm = put
(PID.TID 0000.0001) //                bi = 000002, bj = 000001
(PID.TID 0000.0001) // Tile number: 000003 (process no. = 000000)
(PID.TID 0000.0001) //        WEST: Tile = 000002, Process = 000000, Comm = put
(PID.TID 0000.0001) //                bi = 000002, bj = 000001
(PID.TID 0000.0001) //        EAST: Tile = 000004, Process = 000000, Comm = put
(PID.TID 0000.0001) //                bi = 000004, bj = 000001
(PID.TID 0000.0001) //       SOUTH: Tile = 000003, Process = 000000, Comm = put
(PID.TID 0000.0001) //                bi = 000003, bj = 000001
(PID.TID 0000.0001) //       NORTH: Tile = 000003, Process = 000000, Comm = put
(PID.TID 0000.0001) //                bi = 000003, bj = 000001
(PID.TID 0000.0001) // Tile number: 000004 (process no. = 000000)
(PID.TID 0000.0001) //        WEST: Tile = 000003, Process = 000000, Comm = put
(PID.TID 0000.0001) //                bi = 000003, bj = 000001
(PID.TID 0000.0001) //        EAST: Tile = 000005, Process = 000000, Comm = put
(PID.TID 0000.0001) //                bi = 000005, bj = 000001
(PID.TID 0000.0001) //       SOUTH: Tile = 000004, Process = 000000, Comm = put
(PID.TID 0000.0001) //                bi = 000004, bj = 000001
(PID.TID 0000.0001) //       NORTH: Tile = 000004, Process = 000000, Comm = put
(PID.TID 0000.0001) //                bi = 000004, bj = 000001
(PID.TID 0000.0001) // Tile number: 000005 (process no. = 000000)
(PID.TID 0000.0001) //        WEST: Tile = 000004, Process = 000000, Comm = put
(PID.TID 0000.0001) //                bi = 000004, bj = 000001
(PID.TID 0000.0001) //        EAST: Tile = 000006, Process = 000000, Comm = put
(PID.TID 0000.0001) //                bi = 000006, bj = 000001
(PID.TID 0000.0001) //       SOUTH: Tile = 000005, Process = 000000, Comm = put
(PID.TID 0000.0001) //                bi = 000005, bj = 000001
(PID.TID 0000.0001) //       NORTH: Tile = 000005, Process = 000000, Comm = put
(PID.TID 0000.0001) //                bi = 000005, bj = 000001
(PID.TID 0000.0001) // Tile number: 000006 (process no. = 000000)
(PID.TID 0000.0001) //        WEST: Tile = 000005, Process = 000000, Comm = put
(PID.TID 0000.0001) //                bi = 000005, bj = 000001
(PID.TID 0000.0001) //        EAST: Tile = 000001, Process = 000000, Comm = put
(PID.TID 0000.0001) //                bi = 000001, bj = 000001
(PID.TID 0000.0001) //       SOUTH: Tile = 000006, Process = 000000, Comm = put
(PID.TID 0000.0001) //                bi = 000006, bj = 000001
(PID.TID 0000.0001) //       NORTH: Tile = 000006, Process = 000000, Comm = put
(PID.TID 0000.0001) //                bi = 000006, bj = 000001
(PID.TID 0000.0001) 
(PID.TID 0000.0001) ===== W2 TILE TOPLOGY =====
(PID.TID 0000.0001)  TILE:    1
(PID.TID 0000.0001)       NEIGHBOUR    1 = TILE    3 Comm = PUT ( PROC =    1)
(PID.TID 0000.0001)       NEIGHBOUR    2 = TILE    6 Comm = PUT ( PROC =    1)
(PID.TID 0000.0001)       NEIGHBOUR    3 = TILE    2 Comm = PUT ( PROC =    1)
(PID.TID 0000.0001)       NEIGHBOUR    4 = TILE    5 Comm = PUT ( PROC =    1)
(PID.TID 0000.0001)  TILE:    2
(PID.TID 0000.0001)       NEIGHBOUR    1 = TILE    3 Comm = PUT ( PROC =    1)
(PID.TID 0000.0001)       NEIGHBOUR    2 = TILE    6 Comm = PUT ( PROC =    1)
(PID.TID 0000.0001)       NEIGHBOUR    3 = TILE    4 Comm = PUT ( PROC =    1)
(PID.TID 0000.0001)       NEIGHBOUR    4 = TILE    1 Comm = PUT ( PROC =    1)
(PID.TID 0000.0001)  TILE:    3
(PID.TID 0000.0001)       NEIGHBOUR    1 = TILE    5 Comm = PUT ( PROC =    1)
(PID.TID 0000.0001)       NEIGHBOUR    2 = TILE    2 Comm = PUT ( PROC =    1)
(PID.TID 0000.0001)       NEIGHBOUR    3 = TILE    4 Comm = PUT ( PROC =    1)
(PID.TID 0000.0001)       NEIGHBOUR    4 = TILE    1 Comm = PUT ( PROC =    1)
(PID.TID 0000.0001)  TILE:    4
(PID.TID 0000.0001)       NEIGHBOUR    1 = TILE    5 Comm = PUT ( PROC =    1)
(PID.TID 0000.0001)       NEIGHBOUR    2 = TILE    2 Comm = PUT ( PROC =    1)
(PID.TID 0000.0001)       NEIGHBOUR    3 = TILE    6 Comm = PUT ( PROC =    1)
(PID.TID 0000.0001)       NEIGHBOUR    4 = TILE    3 Comm = PUT ( PROC =    1)
(PID.TID 0000.0001)  TILE:    5
(PID.TID 0000.0001)       NEIGHBOUR    1 = TILE    1 Comm = PUT ( PROC =    1)
(PID.TID 0000.0001)       NEIGHBOUR    2 = TILE    4 Comm = PUT ( PROC =    1)
(PID.TID 0000.0001)       NEIGHBOUR    3 = TILE    6 Comm = PUT ( PROC =    1)
(PID.TID 0000.0001)       NEIGHBOUR    4 = TILE    3 Comm = PUT ( PROC =    1)
(PID.TID 0000.0001)  TILE:    6
(PID.TID 0000.0001)       NEIGHBOUR    1 = TILE    1 Comm = PUT ( PROC =    1)
(PID.TID 0000.0001)       NEIGHBOUR    2 = TILE    4 Comm = PUT ( PROC =    1)
(PID.TID 0000.0001)       NEIGHBOUR    3 = TILE    2 Comm = PUT ( PROC =    1)
(PID.TID 0000.0001)       NEIGHBOUR    4 = TILE    5 Comm = PUT ( PROC =    1)
(PID.TID 0000.0001) Tile    1(proc =   1) sends points i=  34:  -1, j=  31:  32
(PID.TID 0000.0001)                          to points i=  -1:   0, j=  -1:  34 in tile    3(proc =   1)
(PID.TID 0000.0001) Tile    1(proc =   1) sends points i=  -1:  34, j=   1:   2
(PID.TID 0000.0001)                          to points i=  -1:  34, j=  33:  34 in tile    6(proc =   1)
(PID.TID 0000.0001) Tile    1(proc =   1) sends points i=  31:  32, j=  -1:  34
(PID.TID 0000.0001)                          to points i=  -1:   0, j=  -1:  34 in tile    2(proc =   1)
(PID.TID 0000.0001) Tile    1(proc =   1) sends points i=   1:   2, j=  34:  -1
(PID.TID 0000.0001)                          to points i=  -1:  34, j=  33:  34 in tile    5(proc =   1)
(PID.TID 0000.0001) Tile    2(proc =   1) sends points i=  -1:  34, j=  31:  32
(PID.TID 0000.0001)                          to points i=  -1:  34, j=  -1:   0 in tile    3(proc =   1)
(PID.TID 0000.0001) Tile    2(proc =   1) sends points i=  34:  -1, j=   1:   2
(PID.TID 0000.0001)                          to points i=  33:  34, j=  -1:  34 in tile    6(proc =   1)
(PID.TID 0000.0001) Tile    2(proc =   1) sends points i=  31:  32, j=  34:  -1
(PID.TID 0000.0001)                          to points i=  -1:  34, j=  -1:   0 in tile    4(proc =   1)
(PID.TID 0000.0001) Tile    2(proc =   1) sends points i=   1:   2, j=  -1:  34
(PID.TID 0000.0001)                          to points i=  33:  34, j=  -1:  34 in tile    1(proc =   1)
(PID.TID 0000.0001) Tile    3(proc =   1) sends points i=  34:  -1, j=  31:  32
(PID.TID 0000.0001)                          to points i=  -1:   0, j=  -1:  34 in tile    5(proc =   1)
(PID.TID 0000.0001) Tile    3(proc =   1) sends points i=  -1:  34, j=   1:   2
(PID.TID 0000.0001)                          to points i=  -1:  34, j=  33:  34 in tile    2(proc =   1)
(PID.TID 0000.0001) Tile    3(proc =   1) sends points i=  31:  32, j=  -1:  34
(PID.TID 0000.0001)                          to points i=  -1:   0, j=  -1:  34 in tile    4(proc =   1)
(PID.TID 0000.0001) Tile    3(proc =   1) sends points i=   1:   2, j=  34:  -1
(PID.TID 0000.0001)                          to points i=  -1:  34, j=  33:  34 in tile    1(proc =   1)
(PID.TID 0000.0001) Tile    4(proc =   1) sends points i=  -1:  34, j=  31:  32
(PID.TID 0000.0001)                          to points i=  -1:  34, j=  -1:   0 in tile    5(proc =   1)
(PID.TID 0000.0001) Tile    4(proc =   1) sends points i=  34:  -1, j=   1:   2
(PID.TID 0000.0001)                          to points i=  33:  34, j=  -1:  34 in tile    2(proc =   1)
(PID.TID 0000.0001) Tile    4(proc =   1) sends points i=  31:  32, j=  34:  -1
(PID.TID 0000.0001)                          to points i=  -1:  34, j=  -1:   0 in tile    6(proc =   1)
(PID.TID 0000.0001) Tile    4(proc =   1) sends points i=   1:   2, j=  -1:  34
(PID.TID 0000.0001)                          to points i=  33:  34, j=  -1:  34 in tile    3(proc =   1)
(PID.TID 0000.0001) Tile    5(proc =   1) sends points i=  34:  -1, j=  31:  32
(PID.TID 0000.0001)                          to points i=  -1:   0, j=  -1:  34 in tile    1(proc =   1)
(PID.TID 0000.0001) Tile    5(proc =   1) sends points i=  -1:  34, j=   1:   2
(PID.TID 0000.0001)                          to points i=  -1:  34, j=  33:  34 in tile    4(proc =   1)
(PID.TID 0000.0001) Tile    5(proc =   1) sends points i=  31:  32, j=  -1:  34
(PID.TID 0000.0001)                          to points i=  -1:   0, j=  -1:  34 in tile    6(proc =   1)
(PID.TID 0000.0001) Tile    5(proc =   1) sends points i=   1:   2, j=  34:  -1
(PID.TID 0000.0001)                          to points i=  -1:  34, j=  33:  34 in tile    3(proc =   1)
(PID.TID 0000.0001) Tile    6(proc =   1) sends points i=  -1:  34, j=  31:  32
(PID.TID 0000.0001)                          to points i=  -1:  34, j=  -1:   0 in tile    1(proc =   1)
(PID.TID 0000.0001) Tile    6(proc =   1) sends points i=  34:  -1, j=   1:   2
(PID.TID 0000.0001)                          to points i=  33:  34, j=  -1:  34 in tile    4(proc =   1)
(PID.TID 0000.0001) Tile    6(proc =   1) sends points i=  31:  32, j=  34:  -1
(PID.TID 0000.0001)                          to points i=  -1:  34, j=  -1:   0 in tile    2(proc =   1)
(PID.TID 0000.0001) Tile    6(proc =   1) sends points i=   1:   2, j=  -1:  34
(PID.TID 0000.0001)                          to points i=  33:  34, j=  -1:  34 in tile    5(proc =   1)
(PID.TID 0000.0001) Tile    1(proc =   1)recv to points i=  -1:  34, j=  33:  34from tile   3(proc =   1)
(PID.TID 0000.0001) Tile    1(proc =   1)recv to points i=  -1:  34, j=  -1:   0from tile   6(proc =   1)
(PID.TID 0000.0001) Tile    1(proc =   1)recv to points i=  33:  34, j=  -1:  34from tile   2(proc =   1)
(PID.TID 0000.0001) Tile    1(proc =   1)recv to points i=  -1:   0, j=  -1:  34from tile   5(proc =   1)
(PID.TID 0000.0001) Tile    2(proc =   1)recv to points i=  -1:  34, j=  33:  34from tile   3(proc =   1)
(PID.TID 0000.0001) Tile    2(proc =   1)recv to points i=  -1:  34, j=  -1:   0from tile   6(proc =   1)
(PID.TID 0000.0001) Tile    2(proc =   1)recv to points i=  33:  34, j=  -1:  34from tile   4(proc =   1)
(PID.TID 0000.0001) Tile    2(proc =   1)recv to points i=  -1:   0, j=  -1:  34from tile   1(proc =   1)
(PID.TID 0000.0001) Tile    3(proc =   1)recv to points i=  -1:  34, j=  33:  34from tile   5(proc =   1)
(PID.TID 0000.0001) Tile    3(proc =   1)recv to points i=  -1:  34, j=  -1:   0from tile   2(proc =   1)
(PID.TID 0000.0001) Tile    3(proc =   1)recv to points i=  33:  34, j=  -1:  34from tile   4(proc =   1)
(PID.TID 0000.0001) Tile    3(proc =   1)recv to points i=  -1:   0, j=  -1:  34from tile   1(proc =   1)
(PID.TID 0000.0001) Tile    4(proc =   1)recv to points i=  -1:  34, j=  33:  34from tile   5(proc =   1)
(PID.TID 0000.0001) Tile    4(proc =   1)recv to points i=  -1:  34, j=  -1:   0from tile   2(proc =   1)
(PID.TID 0000.0001) Tile    4(proc =   1)recv to points i=  33:  34, j=  -1:  34from tile   6(proc =   1)
(PID.TID 0000.0001) Tile    4(proc =   1)recv to points i=  -1:   0, j=  -1:  34from tile   3(proc =   1)
(PID.TID 0000.0001) Tile    5(proc =   1)recv to points i=  -1:  34, j=  33:  34from tile   1(proc =   1)
(PID.TID 0000.0001) Tile    5(proc =   1)recv to points i=  -1:  34, j=  -1:   0from tile   4(proc =   1)
(PID.TID 0000.0001) Tile    5(proc =   1)recv to points i=  33:  34, j=  -1:  34from tile   6(proc =   1)
(PID.TID 0000.0001) Tile    5(proc =   1)recv to points i=  -1:   0, j=  -1:  34from tile   3(proc =   1)
(PID.TID 0000.0001) Tile    6(proc =   1)recv to points i=  -1:  34, j=  33:  34from tile   1(proc =   1)
(PID.TID 0000.0001) Tile    6(proc =   1)recv to points i=  -1:  34, j=  -1:   0from tile   4(proc =   1)
(PID.TID 0000.0001) Tile    6(proc =   1)recv to points i=  33:  34, j=  -1:  34from tile   2(proc =   1)
(PID.TID 0000.0001) Tile    6(proc =   1)recv to points i=  -1:   0, j=  -1:  34from tile   5(proc =   1)
(PID.TID 0000.0001) // =======================================================
(PID.TID 0000.0001) // Model parameter file "data"
(PID.TID 0000.0001) // =======================================================
(PID.TID 0000.0001) ># ====================
(PID.TID 0000.0001) ># | Model parameters |
(PID.TID 0000.0001) ># ====================
(PID.TID 0000.0001) >#
(PID.TID 0000.0001) ># Continuous equation parameters
(PID.TID 0000.0001) > &PARM01
(PID.TID 0000.0001) > tRef=289.6, 298.1, 314.5, 335.8, 437.4,
(PID.TID 0000.0001) > sRef=5*0.,
(PID.TID 0000.0001) > no_slip_sides=.FALSE.,
(PID.TID 0000.0001) > no_slip_bottom=.FALSE.,
(PID.TID 0000.0001) > buoyancyRelation='ATMOSPHERIC',
(PID.TID 0000.0001) > eosType='IDEALGAS',
(PID.TID 0000.0001) > atm_Rq=0.6078E-3,
(PID.TID 0000.0001) > Integr_GeoPot=2,
(PID.TID 0000.0001) > selectFindRoSurf=1,
(PID.TID 0000.0001) > gravity=9.81,
(PID.TID 0000.0001) > rhonil=1.0,
(PID.TID 0000.0001) > rhoConst=1.0,
(PID.TID 0000.0001) > rhoConstFresh=1000.,
(PID.TID 0000.0001) > implicitFreeSurface=.TRUE.,
(PID.TID 0000.0001) > exactConserv=.TRUE.,
(PID.TID 0000.0001) > select_rStar=2,
(PID.TID 0000.0001) > nonlinFreeSurf=4,
(PID.TID 0000.0001) > hFacInf=0.2,
(PID.TID 0000.0001) > hFacSup=2.0,
(PID.TID 0000.0001) > uniformLin_PhiSurf=.FALSE.,
(PID.TID 0000.0001) > hFacMin=0.2,
(PID.TID 0000.0001) > saltAdvScheme=3,
(PID.TID 0000.0001) > vectorInvariantMomentum=.TRUE.,
(PID.TID 0000.0001) > useJamartWetPoints=.TRUE.,
(PID.TID 0000.0001) > staggerTimeStep=.TRUE.,
(PID.TID 0000.0001) > readBinaryPrec=64,
(PID.TID 0000.0001) > writeBinaryPrec=64,
(PID.TID 0000.0001) > &
(PID.TID 0000.0001) >
(PID.TID 0000.0001) ># Elliptic solver parameters
(PID.TID 0000.0001) > &PARM02
(PID.TID 0000.0001) > cg2dMaxIters=200,
(PID.TID 0000.0001) >#cg2dTargetResidual=1.E-12,
(PID.TID 0000.0001) > cg2dTargetResWunit=1.E-17,
(PID.TID 0000.0001) > &
(PID.TID 0000.0001) >
(PID.TID 0000.0001) ># Time stepping parameters
(PID.TID 0000.0001) > &PARM03
(PID.TID 0000.0001) > nIter0=0,
(PID.TID 0000.0001) > nTimeSteps=40,
(PID.TID 0000.0001) ># 10yr:
(PID.TID 0000.0001) >#endTime=311040000.,
(PID.TID 0000.0001) > deltaT=450.0,
(PID.TID 0000.0001) > abEps=0.1,
(PID.TID 0000.0001) > forcing_In_AB=.FALSE.,
(PID.TID 0000.0001) > cAdjFreq=0.,
(PID.TID 0000.0001) > pChkptFreq=2592000.,
(PID.TID 0000.0001) > taveFreq=2592000.,
(PID.TID 0000.0001) > dumpFreq=2592000.,
(PID.TID 0000.0001) > monitorFreq=86400.,
(PID.TID 0000.0001) > monitorFreq=1.,
(PID.TID 0000.0001) > &
(PID.TID 0000.0001) >
(PID.TID 0000.0001) ># Gridding parameters
(PID.TID 0000.0001) > &PARM04
(PID.TID 0000.0001) > usingCurvilinearGrid=.TRUE.,
(PID.TID 0000.0001) > delR=100.E2, 250.E2, 300.E2, 200.E2, 150.E2,
(PID.TID 0000.0001) > Ro_SeaLevel=1.E5,
(PID.TID 0000.0001) > groundAtK1=.TRUE.,
(PID.TID 0000.0001) > rSphere=6370.E3,
(PID.TID 0000.0001) > &
(PID.TID 0000.0001) >
(PID.TID 0000.0001) ># Input datasets
(PID.TID 0000.0001) > &PARM05
(PID.TID 0000.0001) > topoFile='topo.cpl_FM.bin',
(PID.TID 0000.0001) > &
(PID.TID 0000.0001) 
(PID.TID 0000.0001) S/R INI_PARMS ; starts to read PARM01
(PID.TID 0000.0001) S/R INI_PARMS ; read PARM01 : OK
(PID.TID 0000.0001) S/R INI_PARMS ; starts to read PARM02
(PID.TID 0000.0001) S/R INI_PARMS ; read PARM02 : OK
(PID.TID 0000.0001) S/R INI_PARMS ; starts to read PARM03
(PID.TID 0000.0001) S/R INI_PARMS ; read PARM03 : OK
(PID.TID 0000.0001) S/R INI_PARMS ; starts to read PARM04
(PID.TID 0000.0001) S/R INI_PARMS ; read PARM04 : OK
(PID.TID 0000.0001) S/R INI_PARMS ; starts to read PARM05
(PID.TID 0000.0001) S/R INI_PARMS ; read PARM05 : OK
(PID.TID 0000.0001)  PACKAGES_BOOT: opening data.pkg
(PID.TID 0000.0001)  OPEN_COPY_DATA_FILE: opening file data.pkg
(PID.TID 0000.0001) // =======================================================
(PID.TID 0000.0001) // Parameter file "data.pkg"
(PID.TID 0000.0001) // =======================================================
(PID.TID 0000.0001) ># Packages
(PID.TID 0000.0001) >#     useAIM  :: use Atmospheric Intermediate complexity Model
(PID.TID 0000.0001) >#     useLand :: use (simple) Land package to compute surf. BC over land
(PID.TID 0000.0001) >#   useThSIce :: use Therm. SeaIce package (+slab ocean)
(PID.TID 0000.0001) > &PACKAGES
(PID.TID 0000.0001) > useAIM=.TRUE.,
(PID.TID 0000.0001) > useLand=.TRUE.,
(PID.TID 0000.0001) > useThSIce=.TRUE.,
(PID.TID 0000.0001) > useSHAP_FILT=.TRUE.,
(PID.TID 0000.0001) > useMNC=.TRUE.,
(PID.TID 0000.0001) > &
(PID.TID 0000.0001) 
(PID.TID 0000.0001)  PACKAGES_BOOT: finished reading data.pkg
(PID.TID 0000.0001)  MNC_READPARMS: opening file 'data.mnc'
(PID.TID 0000.0001) // =======================================================
(PID.TID 0000.0001) // Parameter file "data.mnc"
(PID.TID 0000.0001) // =======================================================
(PID.TID 0000.0001) ># Example "data.mnc" file
(PID.TID 0000.0001) ># Lines beginning "#" are comments
(PID.TID 0000.0001) > &MNC_01
(PID.TID 0000.0001) ># mnc_echo_gvtypes=.FALSE.,
(PID.TID 0000.0001) ># mnc_use_indir=.FALSE.,
(PID.TID 0000.0001) > mnc_use_outdir=.TRUE.,
(PID.TID 0000.0001) > mnc_outdir_str='mnc_test_',
(PID.TID 0000.0001) ># mnc_outdir_date=.TRUE.,
(PID.TID 0000.0001) ># monitor_mnc=.FALSE.,
(PID.TID 0000.0001) > snapshot_mnc=.TRUE.,
(PID.TID 0000.0001) > timeave_mnc=.TRUE.,
(PID.TID 0000.0001) ># pickup_write_mnc=.TRUE.,
(PID.TID 0000.0001) > &
(PID.TID 0000.0001) ># Note: Some systems use & as the
(PID.TID 0000.0001) ># namelist terminator. Other systems
(PID.TID 0000.0001) ># use a / character (as shown here).
(PID.TID 0000.0001) 
(PID.TID 0000.0001)  MNC_READPARMS: finished reading data.mnc
(PID.TID 0000.0001)  SHAP_FILT_READPARMS: opening data.shap
(PID.TID 0000.0001)  OPEN_COPY_DATA_FILE: opening file data.shap
(PID.TID 0000.0001) // =======================================================
(PID.TID 0000.0001) // Parameter file "data.shap"
(PID.TID 0000.0001) // =======================================================
(PID.TID 0000.0001) ># Shapiro Filter parameters
(PID.TID 0000.0001) > &SHAP_PARM01
(PID.TID 0000.0001) > shap_filt_uvStar=.FALSE.,
(PID.TID 0000.0001) > shap_filt_TrStagg=.TRUE.,
(PID.TID 0000.0001) > Shap_funct=2,
(PID.TID 0000.0001) > nShapT=4,
(PID.TID 0000.0001) > nShapUV=4,
(PID.TID 0000.0001) > nShapTrPhys=1,
(PID.TID 0000.0001) > nShapUVPhys=0,
(PID.TID 0000.0001) > Shap_TrLength=140000.,
(PID.TID 0000.0001) >#Shap_uvLength=140000.,
(PID.TID 0000.0001) > Shap_Trtau=5400.,
(PID.TID 0000.0001) > Shap_uvtau=1800.,
(PID.TID 0000.0001) >#Shap_diagFreq=2592000.,
(PID.TID 0000.0001) > &
(PID.TID 0000.0001) 
(PID.TID 0000.0001)  SHAP_FILT_READPARMS: finished reading data.shap
(PID.TID 0000.0001) Shap_funct =   /* select Shapiro filter function */
(PID.TID 0000.0001)                       2
(PID.TID 0000.0001)     ;
(PID.TID 0000.0001) nShapT =   /* power of Shapiro filter for Temperat */
(PID.TID 0000.0001)                       4
(PID.TID 0000.0001)     ;
(PID.TID 0000.0001) nShapS =   /* power of Shapiro filter for Salinity */
(PID.TID 0000.0001)                       4
(PID.TID 0000.0001)     ;
(PID.TID 0000.0001) nShapUV =   /* power of Shapiro filter for momentum */
(PID.TID 0000.0001)                       4
(PID.TID 0000.0001)     ;
(PID.TID 0000.0001) nShapTrPhys =   /* power of physical-space filter (Tracer) */
(PID.TID 0000.0001)                       1
(PID.TID 0000.0001)     ;
(PID.TID 0000.0001) nShapUVPhys =   /* power of physical-space filter (Momentum) */
(PID.TID 0000.0001)                       0
(PID.TID 0000.0001)     ;
(PID.TID 0000.0001) Shap_Trtau =   /* time scale of Shapiro filter (Tracer) */
(PID.TID 0000.0001)                 5.400000000000001E+03
(PID.TID 0000.0001)     ;
(PID.TID 0000.0001) Shap_TrLength =   /* Length scale of Shapiro filter (Tracer) */
(PID.TID 0000.0001)                 1.400000000000000E+05
(PID.TID 0000.0001)     ;
(PID.TID 0000.0001) Shap_uvtau =   /* time scale of Shapiro filter (Momentum) */
(PID.TID 0000.0001)                 1.800000000000000E+03
(PID.TID 0000.0001)     ;
(PID.TID 0000.0001) Shap_uvLength =   /* Length scale of Shapiro filter (Momentum) */
(PID.TID 0000.0001)                 0.000000000000000E+00
(PID.TID 0000.0001)     ;
(PID.TID 0000.0001) Shap_noSlip =  /* No-slip parameter (0=Free-slip ; 1=No-slip)*/
(PID.TID 0000.0001)                 0.000000000000000E+00
(PID.TID 0000.0001)     ;
(PID.TID 0000.0001) Shap_diagFreq =   /* Frequency^-1 for diagnostic output (s)*/
(PID.TID 0000.0001)                 0.000000000000000E+00
(PID.TID 0000.0001)     ;
(PID.TID 0000.0001)  THSICE_READPARMS: opening data.ice
(PID.TID 0000.0001)  OPEN_COPY_DATA_FILE: opening file data.ice
(PID.TID 0000.0001) // =======================================================
(PID.TID 0000.0001) // Parameter file "data.ice"
(PID.TID 0000.0001) // =======================================================
(PID.TID 0000.0001) > &THSICE_CONST
(PID.TID 0000.0001) > Tf0kel  = 273.15,
(PID.TID 0000.0001) > rhosw   = 1030.,
(PID.TID 0000.0001) >#- with LANL albedo:
(PID.TID 0000.0001) >#albWarmSnow=0.75,
(PID.TID 0000.0001) >#- for full ice-fraction :
(PID.TID 0000.0001) >#icemaskmin = 1.,
(PID.TID 0000.0001) >#himin0     = 0.01,
(PID.TID 0000.0001) >#frac_energy= 0.,
(PID.TID 0000.0001) >#hihig      =100.,
(PID.TID 0000.0001) >#- with fractional ice:
(PID.TID 0000.0001) > iceMaskmin = 0.01,
(PID.TID 0000.0001) > himin0     = 0.1,
(PID.TID 0000.0001) > hiMax      = 10.,
(PID.TID 0000.0001) > hsMax      = 10.,
(PID.TID 0000.0001) >#albIceMax  =0.7,
(PID.TID 0000.0001) >#albIceMin  =0.7,
(PID.TID 0000.0001) > &
(PID.TID 0000.0001) >
(PID.TID 0000.0001) > &THSICE_PARM01
(PID.TID 0000.0001) >#startIceModel=1,
(PID.TID 0000.0001) >#stepFwd_oceMxL=.TRUE.,
(PID.TID 0000.0001) > ocean_deltaT=3600.,
(PID.TID 0000.0001) >#tauRelax_MxL=5184000.,
(PID.TID 0000.0001) > stressReduction=0.,
(PID.TID 0000.0001) >#thSIce_taveFreq=2592000.,
(PID.TID 0000.0001) > thSIce_diagFreq=5184000.,
(PID.TID 0000.0001) >#thSIce_monFreq=864000.,
(PID.TID 0000.0001) >#thSIce_diagFreq=0.,
(PID.TID 0000.0001) > &
(PID.TID 0000.0001) >
(PID.TID 0000.0001) 
(PID.TID 0000.0001)  THSICE_READPARMS: read THSICE_CONST
(PID.TID 0000.0001)  THSICE_READPARMS: read THSICE_PARM01
 ThSI: rhos    =   330.000000000000     
 ThSI: rhoi    =   900.000000000000     
 ThSI: rhosw   =   1030.00000000000     
 ThSI: rhofw   =   1000.00000000000     
 ThSI: rhoiw   =   130.000000000000     
 ThSI: cpice   =   2106.00000000000     
 ThSI: cpwater =   3994.00000000000     
 ThSI: kice    =   2.03000000000000     
 ThSI: ksnow   =  0.300000000000000     
 ThSI: transcoef=   6.00000000000000D-003
 ThSI: Lfresh  =   334000.000000000     
 ThSI: qsnow   =   334000.000000000     
 ThSI: albColdSnow=  0.850000000000000     
 ThSI: albWarmSnow=  0.700000000000000     
 ThSI: albOldSnow =  0.550000000000000     
 ThSI: hNewSnowAge=   2.00000000000000D-003
 ThSI: albIceMax =  0.650000000000000     
 ThSI: albIceMin =  0.200000000000000     
 ThSI: hAlbIce   =  0.500000000000000     
 ThSI: hAlbSnow  =  0.300000000000000     
 ThSI: i0      =  0.300000000000000     
 ThSI: ksolar  =   1.50000000000000     
 ThSI: saltice =   4.00000000000000     
 ThSI: S_winton=   1.00000000000000     
 ThSI: mu_Tf   =   5.40000000000000D-002
 ThSI: Tf0kel  =   273.150000000000     
 ThSI: Tmlt1   =  -5.40000000000000D-002
 ThSI: himin   =   1.00000000000000D-002
 ThSI: Terrmax =  0.500000000000000     
 ThSI: nitMaxTsf=          20
 ThSI: hiMax   =   10.0000000000000     
 ThSI: hsMax   =   10.0000000000000     
 ThSI: iceMaskmax=   1.00000000000000     
 ThSI: iceMaskmin=   1.00000000000000D-002
 ThSI: himin0  =  0.100000000000000     
 ThSI: frac_energy  0.400000000000000     
 ThSI: hihig   =   2.50000000000000     
 ThSI: stressReduction =   0.00000000000000D+000
 ThSI: thSIce_deltaT =   450.000000000000     
 ThSI: ocean_deltaT  =   3600.00000000000     
 ThSI: stepFwd_oceMxL= F
 ThSI: tauRelax_MxL  =   0.00000000000000D+000
 ThSI: hMxL_default  =   50.0000000000000     
 ThSI: sMxL_default  =   35.0000000000000     
 ThSI: vMxL_default  =   5.00000000000000D-002
 ThSI: thSIce_taveFreq=   2592000.00000000     
 ThSI: thSIce_diagFreq=   5184000.00000000     
 ThSI: thSIce_monFreq =   1.00000000000000     
 ThSI: startIceModel =           0
(PID.TID 0000.0001)  CPL_READPARMS: opening data.cpl
(PID.TID 0000.0001)  OPEN_COPY_DATA_FILE: opening file data.cpl
(PID.TID 0000.0001) // =======================================================
(PID.TID 0000.0001) // Parameter file "data.cpl"
(PID.TID 0000.0001) // =======================================================
(PID.TID 0000.0001) ># Coupling package parameters, ATM component:
(PID.TID 0000.0001) ># cpl_earlyExpImpCall :: call coupler early in the time stepping call sequence
(PID.TID 0000.0001) >#     cpl_oldPickup  :: restart from an old pickup (= until ckpt 52m_post)
(PID.TID 0000.0001) >#     useImportMxlD  :: True => use Imported Mix.Layer Detph from coupler
(PID.TID 0000.0001) >#     useImportSST   :: True => use the Imported SST from coupler
(PID.TID 0000.0001) >#     useImportSSS   :: True => use the Imported SSS from coupler
(PID.TID 0000.0001) >#     useImportVsq   :: True => use the Imported Surf. velocity^2
(PID.TID 0000.0001) >#     cpl_atmSendFrq :: Frequency^-1 for sending data to coupler (s)
(PID.TID 0000.0001) > &CPL_ATM_PARAM
(PID.TID 0000.0001) ># cpl_earlyExpImpCall=.FALSE.,
(PID.TID 0000.0001) ># cpl_oldPickup=.TRUE.,
(PID.TID 0000.0001) ># useImportMxlD=.FALSE.,
(PID.TID 0000.0001) ># useImportSST =.FALSE.,
(PID.TID 0000.0001) ># useImportSSS =.FALSE.,
(PID.TID 0000.0001) ># useImportVsq =.FALSE.,
(PID.TID 0000.0001) >  cpl_atmSendFrq=3600.,
(PID.TID 0000.0001) > &
(PID.TID 0000.0001) >
(PID.TID 0000.0001) 
(PID.TID 0000.0001)  CPL_READPARMS: finished reading data.cpl
(PID.TID 0000.0001) 
(PID.TID 0000.0001) // ===================================
(PID.TID 0000.0001) // Coupling package parameters :
(PID.TID 0000.0001) // ===================================
(PID.TID 0000.0001) cpl_earlyExpImpCall= /* call coupler early in the time-stepping */
(PID.TID 0000.0001)                   T
(PID.TID 0000.0001)     ;
(PID.TID 0000.0001) cpl_oldPickup = /* restart from old pickup on/off flag */
(PID.TID 0000.0001)                   F
(PID.TID 0000.0001)     ;
(PID.TID 0000.0001) useImportMxlD = /* use Imported MxL. Depth from Coupler flag */
(PID.TID 0000.0001)                   T
(PID.TID 0000.0001)     ;
(PID.TID 0000.0001) useImportSST = /* use Imported SST from Coupler on/off flag */
(PID.TID 0000.0001)                   T
(PID.TID 0000.0001)     ;
(PID.TID 0000.0001) useImportSSS = /* use Imported SSS from Coupler on/off flag */
(PID.TID 0000.0001)                   T
(PID.TID 0000.0001)     ;
(PID.TID 0000.0001) useImportVsq = /* use Imported surf.Vel^2 from Coupler flag */
(PID.TID 0000.0001)                   T
(PID.TID 0000.0001)     ;
(PID.TID 0000.0001) cpl_atmSendFrq = /* Frequency^o-1 for sending data to Coupler (s) */
(PID.TID 0000.0001)                 3.600000000000000E+03
(PID.TID 0000.0001)     ;
(PID.TID 0000.0001) cplSendFrq_iter =   /* send data to coupler every "cplSendFrq" iter */
(PID.TID 0000.0001)                       8
(PID.TID 0000.0001)     ;
(PID.TID 0000.0001) tile:   1 ; Read from file tile001.mitgrid
(PID.TID 0000.0001)   => XC YC DXF DYF RA XG YG DXV DYU RAZ DXC DYC RAW RAS DXG DYG
(PID.TID 0000.0001) tile:   2 ; Read from file tile002.mitgrid
(PID.TID 0000.0001)   => XC YC DXF DYF RA XG YG DXV DYU RAZ DXC DYC RAW RAS DXG DYG
(PID.TID 0000.0001) tile:   3 ; Read from file tile003.mitgrid
(PID.TID 0000.0001)   => XC YC DXF DYF RA XG YG DXV DYU RAZ DXC DYC RAW RAS DXG DYG
(PID.TID 0000.0001) tile:   4 ; Read from file tile004.mitgrid
(PID.TID 0000.0001)   => XC YC DXF DYF RA XG YG DXV DYU RAZ DXC DYC RAW RAS DXG DYG
(PID.TID 0000.0001) tile:   5 ; Read from file tile005.mitgrid
(PID.TID 0000.0001)   => XC YC DXF DYF RA XG YG DXV DYU RAZ DXC DYC RAW RAS DXG DYG
(PID.TID 0000.0001) tile:   6 ; Read from file tile006.mitgrid
(PID.TID 0000.0001)   => XC YC DXF DYF RA XG YG DXV DYU RAZ DXC DYC RAW RAS DXG DYG
(PID.TID 0000.0001) %MON XC_max                       =   1.7854351589505E+02
(PID.TID 0000.0001) %MON XC_min                       =  -1.7854351589505E+02
(PID.TID 0000.0001) %MON XC_mean                      =  -4.6999441375798E-15
(PID.TID 0000.0001) %MON XC_sd                        =   1.0355545336287E+02
(PID.TID 0000.0001) %MON XG_max                       =   1.8000000000000E+02
(PID.TID 0000.0001) %MON XG_min                       =  -1.7708797161002E+02
(PID.TID 0000.0001) %MON XG_mean                      =   1.8796250616675E+00
(PID.TID 0000.0001) %MON XG_sd                        =   1.0410625309932E+02
(PID.TID 0000.0001) %MON DXC_max                      =   3.2375185836900E+05
(PID.TID 0000.0001) %MON DXC_min                      =   1.1142031410131E+05
(PID.TID 0000.0001) %MON DXC_mean                     =   2.8605689051214E+05
(PID.TID 0000.0001) %MON DXC_sd                       =   3.4042087138252E+04
(PID.TID 0000.0001) %MON DXF_max                      =   3.2369947500827E+05
(PID.TID 0000.0001) %MON DXF_min                      =   1.2020820513318E+05
(PID.TID 0000.0001) %MON DXF_mean                     =   2.8605437324820E+05
(PID.TID 0000.0001) %MON DXF_sd                       =   3.4050524252539E+04
(PID.TID 0000.0001) %MON DXG_max                      =   3.2375195872773E+05
(PID.TID 0000.0001) %MON DXG_min                      =   1.0098378008791E+05
(PID.TID 0000.0001) %MON DXG_mean                     =   2.8603818508931E+05
(PID.TID 0000.0001) %MON DXG_sd                       =   3.4140406908005E+04
(PID.TID 0000.0001) %MON DXV_max                      =   3.2380418162750E+05
(PID.TID 0000.0001) %MON DXV_min                      =   8.0152299824136E+04
(PID.TID 0000.0001) %MON DXV_mean                     =   2.8603970633619E+05
(PID.TID 0000.0001) %MON DXV_sd                       =   3.4145142117723E+04
(PID.TID 0000.0001) %MON YC_max                       =   8.7940663871962E+01
(PID.TID 0000.0001) %MON YC_min                       =  -8.7940663871962E+01
(PID.TID 0000.0001) %MON YC_mean                      =   0.0000000000000E+00
(PID.TID 0000.0001) %MON YC_sd                        =   3.8676242969072E+01
(PID.TID 0000.0001) %MON YG_max                       =   9.0000000000000E+01
(PID.TID 0000.0001) %MON YG_min                       =  -9.0000000000000E+01
(PID.TID 0000.0001) %MON YG_mean                      =  -1.2094344438470E-15
(PID.TID 0000.0001) %MON YG_sd                        =   3.9086186579984E+01
(PID.TID 0000.0001) %MON DYC_max                      =   3.2375185836900E+05
(PID.TID 0000.0001) %MON DYC_min                      =   1.1142031410131E+05
(PID.TID 0000.0001) %MON DYC_mean                     =   2.8605689051214E+05
(PID.TID 0000.0001) %MON DYC_sd                       =   3.4042087138252E+04
(PID.TID 0000.0001) %MON DYF_max                      =   3.2369947500827E+05
(PID.TID 0000.0001) %MON DYF_min                      =   1.2020820513318E+05
(PID.TID 0000.0001) %MON DYF_mean                     =   2.8605437324820E+05
(PID.TID 0000.0001) %MON DYF_sd                       =   3.4050524252539E+04
(PID.TID 0000.0001) %MON DYG_max                      =   3.2375195872773E+05
(PID.TID 0000.0001) %MON DYG_min                      =   1.0098378008791E+05
(PID.TID 0000.0001) %MON DYG_mean                     =   2.8603818508931E+05
(PID.TID 0000.0001) %MON DYG_sd                       =   3.4140406908005E+04
(PID.TID 0000.0001) %MON DYU_max                      =   3.2380418162750E+05
(PID.TID 0000.0001) %MON DYU_min                      =   8.0152299824136E+04
(PID.TID 0000.0001) %MON DYU_mean                     =   2.8603970633619E+05
(PID.TID 0000.0001) %MON DYU_sd                       =   3.4145142117723E+04
(PID.TID 0000.0001) %MON RA_max                       =   1.0479260248419E+11
(PID.TID 0000.0001) %MON RA_min                       =   1.4019007022556E+10
(PID.TID 0000.0001) %MON RA_mean                      =   8.2992246709265E+10
(PID.TID 0000.0001) %MON RA_sd                        =   1.7509089299457E+10
(PID.TID 0000.0001) %MON RAW_max                      =   1.0480965274559E+11
(PID.TID 0000.0001) %MON RAW_min                      =   1.2166903467143E+10
(PID.TID 0000.0001) %MON RAW_mean                     =   8.2992246709235E+10
(PID.TID 0000.0001) %MON RAW_sd                       =   1.7481917919656E+10
(PID.TID 0000.0001) %MON RAS_max                      =   1.0480965274559E+11
(PID.TID 0000.0001) %MON RAS_min                      =   1.2166903467143E+10
(PID.TID 0000.0001) %MON RAS_mean                     =   8.2992246709235E+10
(PID.TID 0000.0001) %MON RAS_sd                       =   1.7481917919656E+10
(PID.TID 0000.0001) %MON RAZ_max                      =   1.0484349334619E+11
(PID.TID 0000.0001) %MON RAZ_min                      =   8.8317900612505E+09
(PID.TID 0000.0001) %MON RAZ_mean                     =   8.2992246709235E+10
(PID.TID 0000.0001) %MON RAZ_sd                       =   1.7482297311044E+10
(PID.TID 0000.0001)  MDSREADFIELD: opening global file: topo.cpl_FM.bin
(PID.TID 0000.0001) // =======================================================
(PID.TID 0000.0001) // Field Model R_low (ini_masks_etc) at iteration          1
(PID.TID 0000.0001) // CMIN =          1.000000000000000E+32
(PID.TID 0000.0001) // CMAX =         -1.000000000000000E+32
(PID.TID 0000.0001) // CINT =          0.000000000000000E+00
(PID.TID 0000.0001) // SYMBOLS (CMIN->CMAX): -abcdefghijklmnopqrstuvwxyz+
(PID.TID 0000.0001) //                  0.0: .
(PID.TID 0000.0001) // RANGE I (Lo:Hi:Step):(  -1: 194:   1)
(PID.TID 0000.0001) // RANGE J (Lo:Hi:Step):(  34:  -1:  -1)
(PID.TID 0000.0001) // RANGE K (Lo:Hi:Step):(   1:   1:   1)
(PID.TID 0000.0001) // =======================================================
(PID.TID 0000.0001) // =======================================================
(PID.TID 0000.0001) // END OF FIELD                                          =
(PID.TID 0000.0001) // =======================================================
(PID.TID 0000.0001) 
(PID.TID 0000.0001) // =======================================================
(PID.TID 0000.0001) // Field Model Ro_surf (ini_masks_etc) at iteration          1
(PID.TID 0000.0001) // CMIN =          4.905667583685931E+04
(PID.TID 0000.0001) // CMAX =          1.000000000000000E+05
(PID.TID 0000.0001) // CINT =          1.886789783820026E+03
(PID.TID 0000.0001) // SYMBOLS (CMIN->CMAX): -abcdefghijklmnopqrstuvwxyz+
(PID.TID 0000.0001) //                  0.0: .
(PID.TID 0000.0001) // RANGE I (Lo:Hi:Step):(  -1: 194:   1)
(PID.TID 0000.0001) // RANGE J (Lo:Hi:Step):(  34:  -1:  -1)
(PID.TID 0000.0001) // RANGE K (Lo:Hi:Step):(   1:   1:   1)
(PID.TID 0000.0001) // =======================================================
(PID.TID 0000.0001) K =   1
(PID.TID 0000.0001) //                I=8       I=18      I=28      I=34      I=44      I=54      I=64      I=70      I=80      I=90      I=96      I=106     I=116     I=126     I=132     I=142     I=152     I=162     I=168     I=178     I=188
(PID.TID 0000.0001) // |--J--|*01234567|901234567|901234567|901234123|567890123|567890123|567890123|563456789|123456789|123456789|123456785|789012345|789012345|789012345|789078901|345678901|345678901|345678901|901234567|901234567|901234567|901234
(PID.TID 0000.0001) //     34 ..++++++++++++++++zxwwwwwy++++nmno....unny+zzzzzxxwwrnmmmqsuvvxxw+++++....++++++++++++xxyzyxwtmlnnoy++++++....++++++++++++++++++++++++++++++++....+++++++++++++++++yxxwwxy++++++++....++++++++++++++++++++++++++++++++..
(PID.TID 0000.0001) //     33 ..++++++++++++++++wttvwww++ywqstuu....uooy+yyzzyxwwqoomlmqtvutwyy+++++....+++++++++++xxxyyyxwunmnopx++++++....++++++++++++++++++++++++++++++++....+++++++++++++++++zyxwwwwy+++++++....++++++++++++++++++++++++++++++++..
(PID.TID 0000.0001) //     32 ++++++++++++++++++wy+y+ww+xsrtwxyxvoyxvonrywwzywommlmpppqtttsuy++yy++yyy++++++++++++yxxyyxxxxvqmnpqw+++++++++++++++++++++++++++++++++++++++++++++++++++++++++++++++zyxwwwww+++++++++++++++++++++++++++++++++++++++++++++
(PID.TID 0000.0001) //     31 ++++++++++++++++wv++++++y+yxywxxyywqyywqnotsswwphglqttrnnqssswz++++++++++++++++++++zxxxyyxxyxwuport++++++++++++++++++++++++++++++++++++++++++++++++++++++++++++++++zyyxwwwww++++++++++++++++++++++++++++++++++++++++++++
(PID.TID 0000.0001) //     30 ++++++++++++++++w+++++++++++++wwxzyuxzyumnstsspmfdhmlhgfekosuxz+++++++++++++++++++++xxxyzyyyxwwsptx+++++++++++++++++++++++++++++++++++++++++++++++++++++++++++++zzzzyyxxwxxwwy++++++++++++++++++++++++++++++++++++++++++
(PID.TID 0000.0001) //     29 ++++++++++++++++++wwx+++++++++wwxyzxxyzxrnosspllkeabbaabdhmsvyzz++++++++++++++++++zxwwx++zyyxxwtps++++++++++++++++++++++++++++++++++++++++++++++++++++++++++++++yyzzyxxxxxxxxxz+++++++++++++++++++++++++++++++++++++++++
(PID.TID 0000.0001) //     28 +++++++++++++++xsvwxxxy+zzzzywwwwxyzwxyzypnorqnrwnc--aaabelsvxyx++++++++++++++++++zxxxx+++zyxxwvpr++++++++++++++++++++++++++++++++++++++++++++++++++++++++++++++yyzzyyxxyyyyyyzz++++++++++++++++++++++++++++++++++++++++
(PID.TID 0000.0001) //     27 +++++++++++++++vvwxxxxxxzzzyxwwvvwxyvwxyz+++trrwzwkdabccbenvwxxw++++++++++++++++++++xxyz++zyxxxwst+++++++++++++++++++++++++++++++++++++++++++++++++++++++++++++ywyz+zyxxyzz++zzz++++++++++++++++++++++++++++++++++++++++
(PID.TID 0000.0001) //     26 ++++++++++++++yxxyxwwwwxyyxxyxyyvwwxvwwxz++++yyyyyxvnmmmhhnuwxxy++++++++++++++++++++++++++zyxxxwss++++++++++++++++++++++++++++++++++++++++++++++++++++++++++++ywwx++zyyyxxxz++++z+++z+++++++++++++++++++++++++++++++++++
(PID.TID 0000.0001) //     25 +++++++++++++yyyyyxvuvwwwxwxyxy+vvwxvvwxzzx++++zxxxyxywwqorwxyy+++++++++++++++++++++++x++yyyxxxwss++++++++++++++++++++++++++++++++++++++++++++++++++++++++++++ywvwz+zzzwmkmrwyyzz+++z+++++++++++++++++++++++++++++++++++
(PID.TID 0000.0001) //     24 +++++++++++++yyyyyxwwwwstwwxyxy+wswxwswxyzz+++++xxxxy++xutvx++++++++++++++++++++++++++xx+yyzyxxvst++++++++++++++++++++++++++++++++++++++++++++++++++++++++++++ywxz++zzukgfghkqvxzz++zz++++++++++++++++++++++++++++++++++
(PID.TID 0000.0001) //     23 +++++++++++++zyyyyxxwwxxwwwxxxw++pvw+pvwxz++++++yxxy+++ywwwx+++++++++++++++++++++++oq+++xxzzyyxvsr++++++++++++++++++++++++++++++++++++++++++++++z+++++++++++++trwy+++wher+yumhkrwxy+wxy+++++++++++++++ww++++++++++++++++
(PID.TID 0000.0001) //     22 +++++++++++++zyyyyxyxxyyxwwwxxvr++wy++wy++++++++yxy+++++yxxw+++++++++++++++++++++++vlr+++x++zzywusw+++++++++++++++++++++++++++++++++++++++++++++xy++++++++++++wpqvy+xrht++++++xuuvwwuvww+++++++++++++lhhknw+++++++++++++
(PID.TID 0000.0001) //     21 +++++++++++++yxxyyyyxxyyxwwwxxrnv+++v++++++++++++yy++++++zyxy++++++++++++++++++++++vkkn++++++++xuutw++++++++++++++++++++++++++++++++++++++++++++xxx++++++++++++ywqsuop++++++++++++wu++wuwy++++++++++pkhghkklw+++++++++++
(PID.TID 0000.0001) //     20 +++++++++++++yxxyyyxxwxxxwwxxxpmqvwxqvwx+++++++++y++++++++++++++++++++++++++++++++++khknwt++++++wwwx++++++++++++++++++++++++++++++++++++++++++++xxxxxz++++++++++++wuw+++++++++++++++++++++++++x+++++okhhhhklr+++++++++++
(PID.TID 0000.0001) //     19 ++++++++++++++yyyyyyxwwwxwwxxwrnqwxyqwxy+++++++++++++++++y+++++++++++++++++++++++x++qlkmxx++++++xyy+++++++++++++++++++++++++++++++++++++++++++++yyxxwxz+++++++y++++++++++++++++++++++++++++++++ws++xqkhgghlow+++++++++++
(PID.TID 0000.0001) //     18 +++++++++++++++++++++wwxxxxwwwutwxz+wxz+++++++++++++++++yy++++yy++++++++w++++z++++++++rs++++++++++++++++++++++++++++++++++++++++++++++++++++++++yyyyxxz++++++y++++++++++++++++++++++++++++++++++xv+xqlhgfghkr+++++++++++
(PID.TID 0000.0001) //     17 +++++++++++++++++++++yxxyyxwturuy+++y++++++++++++++++++++yy++ywy++++++++v+++zy++++++++++++++++++++y+++++++++++++++++++++++++++++++++++++++++++++xxyzzyz++++zw+++++++++++++++++++++++++++++++++++xuwupkhgffghkq++++++++++
(PID.TID 0000.0001) //     16 +++++++++++++++++++++zxxxxxvrtqtz+++z+++++++++++++++++++++y++yy++++++z+++wwzz++++++++++++++++++++xxy++++++++++++++++++++++++++++++++++++++++++++xxyyyzz++++yw+++++++++++++++++++++++++++++++++++xsonnkhhggghho++++++++++
(PID.TID 0000.0001) //     15 zzzy++++++++++++++++++yxxxxvsusv+++++++++++++++++++++++++++z++++++++++yw+ytxy++xw++++++++++++++++wwx++++++++++++++++++++++++++++++++++++++++y+++yxxxxyz++++y+++++++++++++++++++++++++++++++++++++uoqsvkkhhhhkp++++++++++
(PID.TID 0000.0001) //     14 yyyxxy++++++++++++++++ywwwwvtttw++++++++++++++++++++++++++++++++++++++++++twxzzxwwwx++++++++++++zxwx+++++++++++++++++++++++++++++++++++++++++yy+xxwwxxxyz++v+++++++++++++++++++++++++++++++++++++woux+xmkhhklv++++++++++
(PID.TID 0000.0001) //     13 yxxxx++++++++++++++++++vvvvutsux+++++++++++++++++++++++++++++++++++++++++yvwxz++zzyy+++++++++++zyxwxx+++++++++++++++++++++++++++++++++++++++++++wvuttvwwvqot++++++++++++++++++++++++++++++++++++++vwy++plkkko+++++++++++
(PID.TID 0000.0001) //     12 xwwwy+++++++++++++++++xsuvuuuuwx++++++++++++++++++++++++++++++++++++++++++wwxzzzzzyy+++++++z+++xwwv++x++++++++++++++++++++++++++++++++++++++++++uqnmlossqoq++++++++++++++++++++++++++++++++++++++++++++qlkklw+++++++++++
(PID.TID 0000.0001) //     11 wwww++++++++++++++++++wtvvvvvvwy+++y+++y++++++++++++++++++++++++++zzzz+++wwwxyzzzzzz+++++zzyzywvtrv+++++++++++++++++++++++++++++++++++++++++++++pmmllnqpqw+++++++++++++++++++++++++++++++++++++++++++++qmmmq++++++++++++
(PID.TID 0000.0001) //     10 wwwx++++++++++++++++++xuvwwvuwy+++xw++xw+++++++++++++++++++++++++zyyyyzzywwwxyzzzzzzzzy++zxxxywvtsx+++++++++++++++++++++++++++++++++++++++++++++onnnoquw++++++++++++++++++++++++++++++++++++++++++++++++ww++++++++++++++
(PID.TID 0000.0001) //      9 wwwy+++++++++++++++++++tuvwvvw++++w+++w+++++++++++++++++++++++++zzyxyyyy+++yzzzzzzzzyxxzzywwxxyxxwx+++++++++++++++++++++++++++++++++++++++++++++rponrwy+++++++++++++++++++++++++++++++++++++++++++++++++++++++++++++++++
(PID.TID 0000.0001) //      8 wwy++++++++++++++++++++tuvvvwy++++x+++x+++++++++++++++++++++++yxxyxxxxyyyx+++zzzzzzyxyz+zzwwxxyxxwwxy+++++++++++++++++++++++++++++++++++++++++++tqposx++++++++++++++++++++++++++++++++++++++++++++++++++++++++++++++++++
(PID.TID 0000.0001) //      7 w++++++++++++++++++++++wvvusuz++++y+++y+++++++++++++++++++++++yxxxxxxxyzxsy++zzzzzzyyzzzzzxxxxwwwvvvxx+++++++++++++++++++++++++++++++++yxxxyy++++wxyy+++++++++++++++++++++++++++++++++++++++++++++++++++++++++++++++++++
(PID.TID 0000.0001) //      6 +++++++++++++++++++++++ywusqw+++++++++++++++++++++++++++++++++yxxxxxxxz+yrw++wzzzzyxyzzzzzxxxwuuwwxwxx++++++++++++++++++++++++++++++++zyyyyxxy++++++++++++++++++++++++++++++++++++++++++++++++++++++++++++++++++++++++++
(PID.TID 0000.0001) //      5 ++++++++++++++++++++++++vtrv++++++++++++++++++++++++++++++++++yxxyyyyyzzwtq++py++zyxzzzzzyxxxwsuwwxxxx+++++++++++++++++++++++++++++++yyxyzzzyy++++++++++++++++++++++++++++++++++++++++++++++++++++++++++++++++++++++++++
(PID.TID 0000.0001) //      4 ++++++++++++++++++++++++yyy+++++++++++++++++++++++++++++++++++yyyzzzzzzyxwsnnny++zyyyyzzywvtuvtvwwxxwx+++y+++y++++++++++++++++++w+++xxyyzzzzzz++++++++++++++++++++++++++++++++++++++++++++++++++++++++++++++++++++++++++
(PID.TID 0000.0001) //      3 +++++++++++++++++++++++++++++++++++++++++++++++++++++++++++++++++++++zzyxxtmnvz+zzzyxxxxwqpnotsuvwyxwy++++y+++y++++++++++++++++wv+++zyzzzzzyz+++++++++++++++++++++++++++++++++++++++++++++++++++++++++++++++++++++++++++
(PID.TID 0000.0001) //      2 ++++++++++++++++++++++++++++++++++++++++++++++++++++++++++++++++++++++zyyyunny+zzzzzxxwwrnmmmqsuvvxxw+++++y+++y++++++++++++++++w++++zyyz+zyyy+++++++++++++++++++++++++++++++++++++++++++++++++++++++++++++++++++++++++++
(PID.TID 0000.0001) //      1 ++++++++++++++++++++++++++++++++++++++++++++++++++++++++++++++++++++++++yxuooy+yyzzyxwwqoomlmqtvutwyy+++++y+++y++++++++++++++++y++++zyyyzzzzz+++++++++++++++++++++++++++++++++++++++++++++++++++++++++++y+++++++++++++++
(PID.TID 0000.0001) //      0 ..++++++++++++++++++++++++++++++++....++++++++++++++++++++++++++++++++....vonrywwzywommlmpppqtttsuy++yy++y....y+++++++++++++++z++++zyyxxxyzz++....++++++++++++++++++++++++++++++++....++++++++++++++++++y+++++++yyz+++..
(PID.TID 0000.0001) //     -1 ..++++++++++++++++++++++++++++++++....++++++++++++++++++++++++++++++++....wqnotsswwphglqttrnnqssswz+++++++....+++++++++++++++++++++zyyxxxyz+++....++++++++++++++++++++++++++++++++....+++++++++++++++++y+++++++yxyzzyz..
(PID.TID 0000.0001) // =======================================================
(PID.TID 0000.0001) // END OF FIELD                                          =
(PID.TID 0000.0001) // =======================================================
(PID.TID 0000.0001) 
(PID.TID 0000.0001) // =======================================================
(PID.TID 0000.0001) // Field hFacC at iteration          1
(PID.TID 0000.0001) // CMIN =          2.000000000000000E-01
(PID.TID 0000.0001) // CMAX =          1.000000000000000E+00
(PID.TID 0000.0001) // CINT =          2.962962962962963E-02
(PID.TID 0000.0001) // SYMBOLS (CMIN->CMAX): -abcdefghijklmnopqrstuvwxyz+
(PID.TID 0000.0001) //                  0.0: .
(PID.TID 0000.0001) // RANGE I (Lo:Hi:Step):(  -1: 194:   1)
(PID.TID 0000.0001) // RANGE J (Lo:Hi:Step):(  34:  -1:  -1)
(PID.TID 0000.0001) // RANGE K (Lo:Hi:Step):(   1:   1:   1)
(PID.TID 0000.0001) // =======================================================
(PID.TID 0000.0001) K =   1
(PID.TID 0000.0001) //                I=8       I=18      I=28      I=34      I=44      I=54      I=64      I=70      I=80      I=90      I=96      I=106     I=116     I=126     I=132     I=142     I=152     I=162     I=168     I=178     I=188
(PID.TID 0000.0001) // |--J--|*01234567|901234567|901234567|901234123|567890123|567890123|567890123|563456789|123456789|123456789|123456785|789012345|789012345|789012345|789078901|345678901|345678901|345678901|901234567|901234567|901234567|901234
(PID.TID 0000.0001) //     34 ..++++++++++++++++qe--bbap++++...........k+vtutskgc-..........hj-+++++....++++++++++++hiorojd......k++++++....++++++++++++++++++++++++++++++++....+++++++++++++++++mgecdel++++++++....++++++++++++++++++++++++++++++++..
(PID.TID 0000.0001) //     33 ..++++++++++++++++b...bac++k-............k+pqvspec-...........elk+++++....+++++++++++ihknomid......e++++++....++++++++++++++++++++++++++++++++....+++++++++++++++++tnhdc--l+++++++....++++++++++++++++++++++++++++++++..
(PID.TID 0000.0001) //     32 ++++++++++++++++++ak+k+c-+e...bilg..lg....kaaro-..............k++kl++kkk++++++++++++mgillkije......d++++++++++++++++++++++++++++++++++++++++++++++++++++++++++++++ysnheba--+++++++++++++++++++++++++++++++++++++++++++++
(PID.TID 0000.0001) //     31 ++++++++++++++++-.++++++k+kfkdeipp-.pp-......db..............ar++++++++++++++++++++vkfilljikga.....+++++++++++++++++++++++++++++++++++++++++++++++++++++++++++++++yspmhbadcc++++++++++++++++++++++++++++++++++++++++++++
(PID.TID 0000.0001) //     30 ++++++++++++++++c+++++++++++++-citk.itk......................ju+++++++++++++++++++++hfipsnkmhc-...k+++++++++++++++++++++++++++++++++++++++++++++++++++++++++++++wuvrmlkgdhha-l++++++++++++++++++++++++++++++++++++++++++
(PID.TID 0000.0001) //     29 ++++++++++++++++++baf+++++++++-bfmvkfmvk.....................ouw++++++++++++++++++rkddi++tpoifa...++++++++++++++++++++++++++++++++++++++++++++++++++++++++++++++qoutnjjgfijgfhr+++++++++++++++++++++++++++++++++++++++++
(PID.TID 0000.0001) //     28 +++++++++++++++e..-fhjm+uuvtl---bfnwbfnwl.......-............kki++++++++++++++++++rjeej+++uoigc...++++++++++++++++++++++++++++++++++++++++++++++++++++++++++++++lovwolkjnpooqqrv++++++++++++++++++++++++++++++++++++++++
(PID.TID 0000.0001) //     27 +++++++++++++++..egiifekstspjd-..beo.beot+++...bta..........bjhd++++++++++++++++++++kint++xpige-..+++++++++++++++++++++++++++++++++++++++++++++++++++++++++++++ldmwytniiouwxxxvw++++++++++++++++++++++++++++++++++++++++
(PID.TID 0000.0001) //     26 ++++++++++++++kfimidbcdgkmiknill.-bj.-bjw++++llpmpe.........bfgl++++++++++++++++++++++++++vpjiga..++++++++++++++++++++++++++++++++++++++++++++++++++++++++++++m--iyzvnmnffiszxxxv+++v+++++++++++++++++++++++++++++++++++
(PID.TID 0000.0001) //     25 +++++++++++++qmmonf...b-agcgnil+..bj..bjutg++++vhhknhkc-...-ill+++++++++++++++++++++++j++qopkih-..++++++++++++++++++++++++++++++++++++++++++++++++++++++++++++l-.euzwtr-....dlpus+++s+++++++++++++++++++++++++++++++++++
(PID.TID 0000.0001) //     24 ++++++++++++xplmnng--a-..achmil+-.-i-.-inus+++++ighho++e...h++++++++++++++++++++++++++jh+pqslih...++++++++++++++++++++++++++++++++++++++++++++++++++++++++++++lbkrxxxu.........isw++sw++++++++++++++++++++++++++++++++++
(PID.TID 0000.0001) //     23 ++++++++++++ysnmmlhf-bifdcbgijc++..c+..cht++++++lgil+++ob-bg+++++++++++++++++++++++..+++jjrwpli...++++++++++++++++++++++++++++++++++++++++++++++v+++++++++++++..-qyyxc...+l.....afm+afm+++++++++++++++-c++++++++++++++++
(PID.TID 0000.0001) //     22 ++++++++++++ysonmmjkfhmnia-cfi..++al++al++++++++ofk+++++nigc+++++++++++++++++++++++...+++h++rrna..a+++++++++++++++++++++++++++++++++++++++++++++km++++++++++++e...nxi...++++++e...-d..-d+++++++++++++.....-+++++++++++++
(PID.TID 0000.0001) //     21 ++++++++++++yojkmnmlhjmmha-cfe...+++.++++++++++++ll++++++spjl++++++++++++++++++++++....++++++++j...a++++++++++++++++++++++++++++++++++++++++++++fgi++++++++++++l-.....++++++++++++e.++e.-l++++++++++........-+++++++++++
(PID.TID 0000.0001) //     20 +++++++++++++lfhlnljecfiidbgie....af..af+++++++++l+++++++++y++++++++++++++++++++++++....-.++++++-cej++++++++++++++++++++++++++++++++++++++++++++iihhjr++++++++++++-.c+++++++++++++++++++++++++j+++++.........+++++++++++
(PID.TID 0000.0001) //     19 ++++++++++++++lkoqpqi--bfdcegd...-fm.-fm+++++++++++++++++q+++++++++++++++++++++++j++....jj++++++kmp+++++++++++++++++++++++++++++++++++++++++++++llkidfsz++++++l++++++++++++++++++++++++++++++++b.++j........a+++++++++++
(PID.TID 0000.0001) //     18 +++++++++++++++++++++bbehgeb--..-kr+-kr+++++++++++++++++ll++++ll++++++++-++++t++++++++..++++++++++++++++++++++++++++++++++++++++++++++++++++++++llnoihr++++++l++++++++++++++++++++++++++++++++++j.+j.........+++++++++++
(PID.TID 0000.0001) //     17 +++++++++++++++++++++lghlkh-....lx++lx+++++++++++++++++++lp++lal++++++++.+++ro++++++++++++++++++++o+++++++++++++++++++++++++++++++++++++++++++++jkorrqv++++tc+++++++++++++++++++++++++++++++++++j.a...........++++++++++
(PID.TID 0000.0001) //     16 yy+++++++++++++++++++rhhkkg.....r+++r+++++++++++++++++++++l++pl++++++r+++abqw++++++++++++++++++++fim++++++++++++++++++++++++++++++++++++++++++++iimoorwz+++n-+++++++++++++++++++++++++++++++++++j.............++++++++++
(PID.TID 0000.0001) //     15 sstm++++++++++++++++++lfghe.....+++++++++++++++++++++++++++s++++++++++l-+k.eq++fc++++++++++++++++dbj++++++++++++++++++++++++++++++++++++++++o+++kjijkntx+++l+++++++++++++++++++++++++++++++++++++.............++++++++++
(PID.TID 0000.0001) //     14 pnnghl++++++++++++++++l--aa....a++++++++++++++++++++++++++++++++++++++++++.-kxwjccbj++++++++++++ufah+++++++++++++++++++++++++++++++++++++++++kl+geddegins++.+++++++++++++++++++++++++++++++++++++a..i+j.......++++++++++
(PID.TID 0000.0001) //     13 mhhei++++++++++++++++++........e+++++++++++++++++++++++++++++++++++++++++k.-guy+vsll+++++++++++uqe-jj+++++++++++++++++++++++++++++++++++++++++++a.....--....++++++++++++++++++++++++++++++++++++++.cn++......+++++++++++
(PID.TID 0000.0001) //     12 hedcn+++++++++++++++++g.......-g+++++++++++++++++++++++++++++++++++++x++++bbgsvwwuqp+++++++r+++gb-.++k++++++++++++++++++++++++++++++++++++++++++...........++++++++++++++++++++++++++++++++++++++++++++.....a+++++++++++
(PID.TID 0000.0001) //     11 bbcd++++++++++++++++++c.......al+++l+++l++++++++++++++++++++++++++sttt+++cabfqstuutu+++++wsqtna....+++++++++++++++++++++++++++++++++++++++++++++.........b+++++++++++++++++++++++++++++++++++++++++++++.....++++++++++++
(PID.TID 0000.0001) //     10 aa-e++++++++++++++++++e..--..-k+++gd++gd+++++++++++++++++++++++++vkknpswk-cafqsrrttuusqxytiijkb...j+++++++++++++++++++++++++++++++++++++++++++++.......-++++++++++++++++++++++++++++++++++++++++++++++++-a++++++++++++++
(PID.TID 0000.0001) //      9 d--l+++++++++++++++++++...-..c++++a+++a+++++++++++++++++++++++++urlkkmoq+++prtsrsuttmghtxnabejljh-j+++++++++++++++++++++++++++++++++++++++++++++.....-l+++++++++++++++++++++++++++++++++++++++++++++++++++++++++++++++++
(PID.TID 0000.0001) //      8 c-l++++++++++++++++++++.....-o++++f+++f+++++++++++++++++++++++ohilkihhmpke++yvsstutqjnsxxrddfikie--ko+++++++++++++++++++++++++++++++++++++++++++.....f++++++++++++++++++++++++++++++++++++++++++++++++++++++++++++++++++
(PID.TID 0000.0001) //      7 c++++++++++++++++++++++a.....s++++l+++l+++++++++++++++++++++++nggiigfhouf.k++rvtstsnmuxwvshghgc--...ek+++++++++++++++++++++++++++++++++piffkk++++dekk+++++++++++++++++++++++++++++++++++++++++++++++++++++++++++++++++++
(PID.TID 0000.0001) //      6 +++++++++++++++++++++++l-...a+++++++++++++++++++++++++++++++++nhhiiggjtyk.-++-swwumhowxwwtiihb..-bfafk++++++++++++++++++++++++++++++++sklnlifm++++++++++++++++++++++++++++++++++++++++++++++++++++++++++++++++++++++++++
(PID.TID 0000.0001) //      5 ++++++++++++++++++++++++....++++++++++++++++++++++++++++++++++oijlnmnqvxd..++.l+zuliquvxwqkhe-..-bjgge+++++++++++++++++++++++++++++++nmjottuqp++++++++++++++++++++++++++++++++++++++++++++++++++++++++++++++++++++++++++
(PID.TID 0000.0001) //      4 ++++++++++++++++++++++++kkk+++++++++++++++++++++++++++++++++++qmosuutttqeb....m++toooorul-......--jgck+++k+++k++++++++++++++++++-+++jglpsuuvvu++++++++++++++++++++++++++++++++++++++++++++++++++++++++++++++++++++++++++
(PID.TID 0000.0001) //      3 +++++++++++++++++++++++++++++++++++++++++++++++++++++++++++++++++++++vrnii....tyvtrqjhhh-........-kjak++++k+++k++++++++++++++++-.++xtprtvwtpr+++++++++++++++++++++++++++++++++++++++++++++++++++++++++++++++++++++++++++
(PID.TID 0000.0001) //      2 ++++++++++++++++++++++++++++++++++++++++++++++++++++++++++++++++++++++sppl...k+vtutskgc-..........hj-+++++k+++k++++++++++++++++-++++wqpuyxqnp+++++++++++++++++++++++++++++++++++++++++++++++++++++++++++++++++++++++++++
(PID.TID 0000.0001) //      1 ++++++++++++++++++++++++++++++++++++++++++++++++++++++++++++++++++++++++pg...k+pqvspec-...........elk+++++k+++k++++++++++++++++l++++somotvtrs+++++++++++++++++++++++++++++++++++++++++++++++++++++++++++l+++++++++++++++
(PID.TID 0000.0001) //      0 ..++++++++++++++++++++++++++++++++....++++++++++++++++++++++++++++++++........kaaro-..............k++kl++k....k+++++++++++++++r+++xtpmhhjqtv++....++++++++++++++++++++++++++++++++....++++++++++++++++++k+++++++mpu+++..
(PID.TID 0000.0001) //     -1 ..++++++++++++++++++++++++++++++++....++++++++++++++++++++++++++++++++....-......db..............ar+++++++....+++++++++++++++++++++tnkhfgnt+++....++++++++++++++++++++++++++++++++....+++++++++++++++++o+++++++kfqvrps..
(PID.TID 0000.0001) // =======================================================
(PID.TID 0000.0001) // END OF FIELD                                          =
(PID.TID 0000.0001) // =======================================================
(PID.TID 0000.0001) 
(PID.TID 0000.0001) // =======================================================
(PID.TID 0000.0001) // Field hFacW at iteration          1
(PID.TID 0000.0001) // CMIN =          2.000000000000000E-01
(PID.TID 0000.0001) // CMAX =          1.000000000000000E+00
(PID.TID 0000.0001) // CINT =          2.962962962962963E-02
(PID.TID 0000.0001) // SYMBOLS (CMIN->CMAX): -abcdefghijklmnopqrstuvwxyz+
(PID.TID 0000.0001) //                  0.0: .
(PID.TID 0000.0001) // RANGE I (Lo:Hi:Step):(  -1: 194:   1)
(PID.TID 0000.0001) // RANGE J (Lo:Hi:Step):(  34:  -1:  -1)
(PID.TID 0000.0001) // RANGE K (Lo:Hi:Step):(   1:   1:   1)
(PID.TID 0000.0001) // =======================================================
(PID.TID 0000.0001) K =   1
(PID.TID 0000.0001) //                I=8       I=18      I=28      I=34      I=44      I=54      I=64      I=70      I=80      I=90      I=96      I=106     I=116     I=126     I=132     I=142     I=152     I=162     I=168     I=178     I=188
(PID.TID 0000.0001) // |--J--|*01234567|901234567|901234567|901234123|567890123|567890123|567890123|563456789|123456789|123456789|123456785|789012345|789012345|789012345|789078901|345678901|345678901|345678901|901234567|901234567|901234567|901234
(PID.TID 0000.0001) //     34 ..++++++++++++++++qe---baap+++............kvtttskgc-...........h--++++k...++++++++++++hhioojd.......k++++++...+++++++++++++++++++++++++++++++++...+++++++++++++++++mgeccdel++++++++...+++++++++++++++++++++++++++++++++.
(PID.TID 0000.0001) //     33 .+++++++++++++++++b....aac+k-.............kppqspec-............ekk++++k+.++++++++++++ihhknmid.......e+++++++.+++++++++++++++++++++++++++++++++++.++++++++++++++++++tnhdc---l++++++++.+++++++++++++++++++++++++++++++++++
(PID.TID 0000.0001) //     32 ++++++++++++++++++aakkkc--e....big..ig.....aaao-...............k+kkl+kkk++++++++++++mggilkiie.......d+++++++++++++++++++++++++++++++++++++++++++++++++++++++++++++ysnheba---++++++++++++++++++++++++++++++++++++++++++++
(PID.TID 0000.0001) //     31 ++++++++++++++++-..+++++kkkffddeip-.ip-.......b...............ar+++++++++++++++++++vkffiljiiga......++++++++++++++++++++++++++++++++++++++++++++++++++++++++++++++yspmhbaaccc+++++++++++++++++++++++++++++++++++++++++++
(PID.TID 0000.0001) //     30 ++++++++++++++++cc++++++++++++--cik.cik.......................ju++++++++++++++++++++hffipnkkhc-....k++++++++++++++++++++++++++++++++++++++++++++++++++++++++++++wuurmlkgddha--l+++++++++++++++++++++++++++++++++++++++++
(PID.TID 0000.0001) //     29 ++++++++++++++++++baaf++++++++--bfmkbfmk......................ouw+++++++++++++++++rkdddi+tpoifa....+++++++++++++++++++++++++++++++++++++++++++++++++++++++++++++qootnjjgffigffhr++++++++++++++++++++++++++++++++++++++++
(PID.TID 0000.0001) //     28 +++++++++++++++e...-fhjmuuutl----bfn-bfnl.....................kii+++++++++++++++++rjeeej++uoigc....+++++++++++++++++++++++++++++++++++++++++++++++++++++++++++++llovolkjjnoooqqrv+++v+++++++++++++++++++++++++++++++++++
(PID.TID 0000.0001) //     27 +++++++++++++++...egifeeksspjd-...be..beot++....ba...........bhdd+++++++++++++++++++kiint+xpige-...++++++++++++++++++++++++++++++++++++++++++++++++++++++++++++lddmwtniiiouwxxvvw+++w+++++++++++++++++++++++++++++++++++
(PID.TID 0000.0001) //     26 ++++++++++++++kffiidbbcdgkiikiil..-b..-bjw+++lllmme..........bfgl+++++++++++++++++++++++++vpjiga...+++++++++++++++++++++++++++++++++++++++++++++++++++++++++++m---iyvnmmfffisxxxvv++vv++++++++++++++++++++++++++++++++++
(PID.TID 0000.0001) //     25 +++++++++++++qmmmnf....--accgiil...b...bjtgg+++vhhhkhhc-....-ill++++++++++++++++++++++jj+qookih-...+++++++++++++++++++++++++++++++++++++++++++++++++++++++++++l-..euwtr-.....dlpss++ss++++++++++++++++++++++++++++++++++
(PID.TID 0000.0001) //     24 ++++++++++++xpllmng----...achiil-..--..-inss++++igghho+e....h+++++++++++++++++++++++++jhhppqlih....+++++++++++++++++++++++++++++++++++++++++++++++++++++++++++lbbkrxxu..........isw+isw+++++++++++++++++++++++++++++++++
(PID.TID 0000.0001) //     23 ++++++++++++ysnmmlhf--bfdcbbgicc+...+...cht+++++lggil++ob--bg++++++++++++++++++++++...++jjjrpli....+++++++++++++++++++++++++++++++++++++++++++++vv++++++++++++...-qyxc....l......afm.afm++++++++++++++--c+++++++++++++++
(PID.TID 0000.0001) //     22 ++++++++++++ysonmmjjffhmia--cf...+aa.+aal+++++++offk++++nigcc++++++++++++++++++++++....++hh+rrna...a++++++++++++++++++++++++++++++++++++++++++++hkm+++++++++++e....ni....+++++e....-...-d++++++++++++......-++++++++++++
(PID.TID 0000.0001) //     21 ++++++++++++yojjkmmlhhjmha--ce....++..+++++++++++lll+++++spjjl+++++++++++++++++++++.....+++++++j....a+++++++++++++++++++++++++++++++++++++++++++ffgi+++++++++++l-......+++++++++++e.++e..-l+++++++++.........-++++++++++
(PID.TID 0000.0001) //     20 +++++++++++++lffhlljeccfidbbge.....a...af++++++++ll++++++++yy+++++++++++++++++++++++.......+++++--cej+++++++++++++++++++++++++++++++++++++++++++iihhhjr+++++++++++-..c++++++++++++++++++++++++jj++++..........++++++++++
(PID.TID 0000.0001) //     19 ++++++++++++++lkkoppi---bdcced....-f..-fm++++++++++++++++qq++++++++++++++++++++++jj+.....jj+++++kkmp++++++++++++++++++++++++++++++++++++++++++++llkiddfsz+++++ll+++++++++++++++++++++++++++++++b..+j.........a++++++++++
(PID.TID 0000.0001) //     18 w++++++++++++++++++++bbbegeb--...-kr.-kr++++++++++++++++lll+++lll+++++++--+++tt+++++++...+++++++++++++++++++++++++++++++++++++++++++++++++++++++lllnihhr+++++ll+++++++++++++++++++++++++++++++++j..j..........++++++++++
(PID.TID 0000.0001) //     17 u++++++++++++++++++++lgghkh-.....lx+.lx++++++++++++++++++llp+laal+++++++..++roo+++++++++++++++++++oo++++++++++++++++++++++++++++++++++++++++++++jjkorqqv+++tcc++++++++++++++++++++++++++++++++++j..............+++++++++
(PID.TID 0000.0001) //     16 vyy++++++++++++++++++rhhhkg......r++.r++++++++++++++++++++ll+pll+++++rr++aabqw+++++++++++++++++++ffim+++++++++++++++++++++++++++++++++++++++++++iiimoorwz++n--++++++++++++++++++++++++++++++++++j..............+++++++++
(PID.TID 0000.0001) //     15 rssmm+++++++++++++++++lffge......+++.++++++++++++++++++++++ss+++++++++l-+k..eq+fcc+++++++++++++++dbbj+++++++++++++++++++++++++++++++++++++++oo++kjiijkntx++ll++++++++++++++++++++++++++++++++++++..............+++++++++
(PID.TID 0000.0001) //     14 mnngghl+++++++++++++++l---a.....a+++a+++++++++++++++++++++++++++++++++++++..-kwjccbbj+++++++++++ufaah++++++++++++++++++++++++++++++++++++++++kklgedddegins+..++++++++++++++++++++++++++++++++++++a...ij........+++++++++
(PID.TID 0000.0001) //     13 lhheei+++++++++++++++++.........e+++e++++++++++++++++++++++++++++++++++++k..-guyvslll++++++++++uqe--jj++++++++++++++++++++++++++++++++++++++++++a......-.....+++++++++++++++++++++++++++++++++++++..cn+.......++++++++++
(PID.TID 0000.0001) //     12 hedccn++++++++++++++++g........-g+++g++++++++++++++++++++++++++++++++xx+++bbbgsvwuqpp++++++rr++gb-..+kk+++++++++++++++++++++++++++++++++++++++++............+++++++++++++++++++++++++++++++++++++++++++......a++++++++++
(PID.TID 0000.0001) //     11 bbbcd+++++++++++++++++c........al++ll++ll+++++++++++++++++++++++++ssttt++caabfqstuttu++++wsqqna.....++++++++++++++++++++++++++++++++++++++++++++..........b++++++++++++++++++++++++++++++++++++++++++++......+++++++++++
(PID.TID 0000.0001) //     10 aa--e+++++++++++++++++e...-...-k++gd++gdd++++++++++++++++++++++++vkkknpsk--aafqrrrttusqqxtiiijb....j++++++++++++++++++++++++++++++++++++++++++++........-+++++++++++++++++++++++++++++++++++++++++++++++--a+++++++++++++
(PID.TID 0000.0001) //      9 d---l++++++++++++++++++.......c+++aa++aa++++++++++++++++++++++++urlkkkmo+++pprsrrsttmgghtnaabejjh--j++++++++++++++++++++++++++++++++++++++++++++......-l++++++++++++++++++++++++++++++++++++++++++++++++++++++++++++++++
(PID.TID 0000.0001) //      8 c--l+++++++++++++++++++......-o+++ff++ff++++++++++++++++++++++ohhikihhhmkee+yvsssttqjjnsxrdddfiie---ko++++++++++++++++++++++++++++++++++++++++++......f+++++++++++++++++++++++++++++++++++++++++++++++++++++++++++++++++
(PID.TID 0000.0001) //      7 ac+++++++++++++++++++++a......s+++ll++ll++++++++++++++++++++++ngggigffhof..k+rrtsssnmmuwvshgggc--....ek++++++++++++++++++++++++++++++++pifffkk+++ddekk++++++++++++++++++++++++++++++++++++++++++++++++++++++++++++++++++
(PID.TID 0000.0001) //      6 -++++++++++++++++++++++l-....a++++++++++++++++++++++++++++++++nhhhigggjtk..-+--swumhhowwwtiihb...-baafk+++++++++++++++++++++++++++++++skklliffm+++++++++++++++++++++++++++++++++++++++++++++++++++++++++++++++++++++++++
(PID.TID 0000.0001) //      5 l+++++++++++++++++++++++.....+++++++++++++++++++++++++++++++++oiijlmmnqvd...+..lzuliiquvwqkhe-...-bggee++++++++++++++++++++++++++++++nmjjottqpp+++++++++++++++++++++++++++++++++++++++++++++++++++++++++++++++++++++++++
(PID.TID 0000.0001) //      4 ++++++++++++++++++++++++kkkk++++++++++++++++++++++++++++++++++qmmosutttq-b.....m+tooooorl-.......--gcck++kk++kk+++++++++++++++++--++jgglpsuuvuu+++++++++++++++++++++++++++++++++++++++++++++++++++++++++++++++++++++++++
(PID.TID 0000.0001) //      3 +++++++++++++++++++++++++++++++++++++++++++++++++++++++++++++++++++++vrnci.....tvtrqjhhh-.........-jaak+++kk++kk+++++++++++++++-..+xtpprtvtppr++++++++++++++++++++++++++++++++++++++++++++++++++++++++++++++++++++++++++
(PID.TID 0000.0001) //      2 ++++++++++++++++++++++++++++++++++++++++++++++++++++++++++++++++++++++spil....kvtttskgc-...........h--++++kk++kk+++++++++++++++--+++wqppuxqnnp++++++++++++++++++++++++++++++++++++++++++++++++++++++++++++++++++++++++++
(PID.TID 0000.0001) //      1 ++++++++++++++++++++++++++++++++++++++++++++++++++++++++++++++++++++++++pg....kppqspec-............ekk++++kk++kk+++++++++++++++ll+++sommottrrs++++++++++++++++++++++++++++++++++++++++++++++++++++++++++ll++++++++++++++
(PID.TID 0000.0001) //      0 .+++++++++++++++++++++++++++++++++++.+++++++++++++++++++++++++++++++++++.......aaao-...............k+kkl+kkk.kkk++++++++++++++rr++xtpmhhhjqtv+++.+++++++++++++++++++++++++++++++++++.+++++++++++++++++++kk++++++mmpu+++s
(PID.TID 0000.0001) //     -1 ..+++++++++++++++++++++++++++++++++...+++++++++++++++++++++++++++++++++...-.......b...............ar+++++++...+++++++++++++++++++++tnkhffgnt+++...+++++++++++++++++++++++++++++++++...+++++++++++++++++oo++++++kffqrpps.
(PID.TID 0000.0001) // =======================================================
(PID.TID 0000.0001) // END OF FIELD                                          =
(PID.TID 0000.0001) // =======================================================
(PID.TID 0000.0001) 
(PID.TID 0000.0001) // =======================================================
(PID.TID 0000.0001) // Field hFacS at iteration          1
(PID.TID 0000.0001) // CMIN =          2.000000000000000E-01
(PID.TID 0000.0001) // CMAX =          1.000000000000000E+00
(PID.TID 0000.0001) // CINT =          2.962962962962963E-02
(PID.TID 0000.0001) // SYMBOLS (CMIN->CMAX): -abcdefghijklmnopqrstuvwxyz+
(PID.TID 0000.0001) //                  0.0: .
(PID.TID 0000.0001) // RANGE I (Lo:Hi:Step):(  -1: 194:   1)
(PID.TID 0000.0001) // RANGE J (Lo:Hi:Step):(  34:  -1:  -1)
(PID.TID 0000.0001) // RANGE K (Lo:Hi:Step):(   1:   1:   1)
(PID.TID 0000.0001) // =======================================================
(PID.TID 0000.0001) K =   1
(PID.TID 0000.0001) //                I=8       I=18      I=28      I=34      I=44      I=54      I=64      I=70      I=80      I=90      I=96      I=106     I=116     I=126     I=132     I=142     I=152     I=162     I=168     I=178     I=188
(PID.TID 0000.0001) // |--J--|*01234567|901234567|901234567|901234123|567890123|567890123|567890123|563456789|123456789|123456789|123456785|789012345|789012345|789012345|789078901|345678901|345678901|345678901|901234567|901234567|901234567|901234
(PID.TID 0000.0001) //     34 .+++++++++++++++++b...baap+k-........g...k+pquspec-...........ej-+++++k..++++++++++++ihinomid......e+++++++..++++++++++++++++++++++++++++++++++..++++++++++++++++++mgecc--l++++++++..++++++++++++++++++++++++++++++++++.
(PID.TID 0000.0001) //     33 ++++++++++++++++++a...ba-+e...............kaaro-..............elkkl++kkk++++++++++++mghklkiid......d++++++++++++++++++++++++++++++++++++++++++++++++++++++++++++++ysnhdb---+++++++++++++++++++++++++++++++++++++++++++++
(PID.TID 0000.0001) //     32 ++++++++++++++++-.ak+k+c-+e...bilg..lg.......db...............k++kl++kkk+++++++++++vkfilljije......d++++++++++++++++++++++++++++++++++++++++++++++++++++++++++++++ysnheba--c++++++++++++++++++++++++++++++++++++++++++++
(PID.TID 0000.0001) //     31 ++++++++++++++++-.++++++k+kfkd-cip-.ip-......................ar++++++++++++++++++++vhfilljikga.....+++++++++++++++++++++++++++++++++++++++++++++++++++++++++++++wuvrmlhbadca-l++++++++++++++++++++++++++++++++++++++++++
(PID.TID 0000.0001) //     30 ++++++++++++++++c+baf+++++++++-bfmk.fmk......................juw++++++++++++++++++rkddipsnkmhc-...k+++++++++++++++++++++++++++++++++++++++++++++++++++++++++++++qourmjjgdhha-hr+++++++++++++++++++++++++++++++++++++++++
(PID.TID 0000.0001) //     29 +++++++++++++++e..-afjm+uuvtl---bfnkbfnk.....................kki++++++++++++++++++rjddi++tpoifa...++++++++++++++++++++++++++++++++++++++++++++++++++++++++++++++loutnjjgfijgfhrv++++++++++++++++++++++++++++++++++++++++
(PID.TID 0000.0001) //     28 +++++++++++++++...-fhfekstspj--..beo.beol.......-............jhd++++++++++++++++++rjeejt++uoigc...+++++++++++++++++++++++++++++++++++++++++++++++++++++++++++++ldmvwoliinpooqqrv++++++++++++++++++++++++++++++++++++++++
(PID.TID 0000.0001) //     27 ++++++++++++++k..egdbcdgkmikjd-..-bj.-bjt+++...bma..........bfgd++++++++++++++++++++kint++vpige-..++++++++++++++++++++++++++++++++++++++++++++++++++++++++++++m--iwytniiffisxxvwv+++v+++++++++++++++++++++++++++++++++++
(PID.TID 0000.0001) //     26 +++++++++++++qkfimf...b-agcgnill..bj..bjutg++llphhe.........bfgl++++++++++++++++++++++j++qopjig-..++++++++++++++++++++++++++++++++++++++++++++++++++++++++++++l-.euzvnm-....dlpus+++s+++++++++++++++++++++++++++++++++++
(PID.TID 0000.0001) //     25 ++++++++++++xplmnnf...-..acgmil+..-i..-intg++++vhghhhkc-...-ill+++++++++++++++++++++++jh+popkih...++++++++++++++++++++++++++++++++++++++++++++++++++++++++++++l-.euxwt.........isw++sw++++++++++++++++++++++++++++++++++
(PID.TID 0000.0001) //     24 ++++++++++++xplmmlg--a-..abgiic+-..c-..chts+++++ighho++e...g+++++++++++++++++++++++..+jhjjqslih...++++++++++++++++++++++++++++++++++++++++++++++v+++++++++++++..-qxxxc..........afm+afm+++++++++++++++-c++++++++++++++++
(PID.TID 0000.0001) //     23 ++++++++++++ysnmmlhf-bifda-cfi..+..c+..cht++++++lfil+++ob-bc+++++++++++++++++++++++...++jhrwpli...a+++++++++++++++++++++++++++++++++++++++++++++km++++++++++++....nxi....+l.......-d..-d+++++++++++++.....-+++++++++++++
(PID.TID 0000.0001) //     22 ++++++++++++yojkmmjkfhmmha-cfe...+al.+al++++++++ofk+++++nigcl++++++++++++++++++++++....++h++rrna...a++++++++++++++++++++++++++++++++++++++++++++fgi+++++++++++e.........++++++e...-...-.-l++++++++++........-+++++++++++
(PID.TID 0000.0001) //     21 ++++++++++++ylfhlnljecfiha-cfe....af..af+++++++++ll++++++spjl++++++++++++++++++++++.....-.+++++j...a++++++++++++++++++++++++++++++++++++++++++++fghhjr+++++++++l-.....++++++++++++e.++e.-l++++j+++++.........+++++++++++
(PID.TID 0000.0001) //     20 +++++++++++++lfhlnlje--bfdbegd....af..af+++++++++l+++++++q+y+++++++++++++++++++++j++....-.++++++-cej++++++++++++++++++++++++++++++++++++++++++++iihhdfsz++++++l+++-.c+++++++++++++++++++++++++jb.++j.........+++++++++++
(PID.TID 0000.0001) //     19 ++++++++++++++lkoqpqi--bfdcb--...-fm.-fm++++++++++++++++ll++++ll++++++++-++++t+++j++....jj++++++kmp+++++++++++++++++++++++++++++++++++++++++++++llkidfrz+++++ll++++++++++++++++++++++++++++++++b..+j.........+++++++++++
(PID.TID 0000.0001) //     18 +++++++++++++++++++++bbehge-....-kr+-kr+++++++++++++++++llp++lal++++++++.+++ro++++++++..++++++++++o+++++++++++++++++++++++++++++++++++++++++++++jknoihr++++tcl++++++++++++++++++++++++++++++++++j.a...........++++++++++
(PID.TID 0000.0001) //     17 yy+++++++++++++++++++lghkkg.....lx++lx+++++++++++++++++++ll++lal+++++r++.abqro+++++++++++++++++++fim++++++++++++++++++++++++++++++++++++++++++++iimooqvz+++n-+++++++++++++++++++++++++++++++++++j.............++++++++++
(PID.TID 0000.0001) //     16 sstm+++++++++++++++++rhfghe.....r+++r+++++++++++++++++++++ls+pl++++++rl-+a.eq++fc++++++++++++++++dbj++++++++++++++++++++++++++++++++++++++++o+++iiijkntx+++l-+++++++++++++++++++++++++++++++++++j.............++++++++++
(PID.TID 0000.0001) //     15 pnnghl++++++++++++++++l--aa.....+++++++++++++++++++++++++++s++++++++++l-+k.-kxwfccbj++++++++++++udah++++++++++++++++++++++++++++++++++++++++okl+geddegins++.+++++++++++++++++++++++++++++++++++++.............++++++++++
(PID.TID 0000.0001) //     14 mhhehl++++++++++++++++l........a+++++++++++++++++++++++++++++++++++++++++k.-guwjccbj+++++++++++uqe-hj++++++++++++++++++++++++++++++++++++++++kl+a.....--....+++++++++++++++++++++++++++++++++++++a..i+j.......++++++++++
(PID.TID 0000.0001) //     13 hedci+++++++++++++++++g........e+++++++++++++++++++++++++++++++++++++x+++k.-gsvwvsll+++++++r+++gb-.jjk++++++++++++++++++++++++++++++++++++++++++............++++++++++++++++++++++++++++++++++++++.cn++......+++++++++++
(PID.TID 0000.0001) //     12 bbccn+++++++++++++++++c.......-g+++l+++l++++++++++++++++++++++++++sttt+++cabfqstuuqp+++++wsqtna....++k++++++++++++++++++++++++++++++++++++++++++...........++++++++++++++++++++++++++++++++++++++++++++.....a+++++++++++
(PID.TID 0000.0001) //     11 aa-d++++++++++++++++++c.......al++gd++gd+++++++++++++++++++++++++vkknpswk-aafqsrrttuusqxytiijka....+++++++++++++++++++++++++++++++++++++++++++++.........b+++++++++++++++++++++++++++++++++++++++++++++.....++++++++++++
(PID.TID 0000.0001) //     10 a--e++++++++++++++++++e...-..-k+++ad++ad++++++++++++++++++++++++urkkkmoqk-cafqsrrtttmghtxnabejb...j+++++++++++++++++++++++++++++++++++++++++++++.......-++++++++++++++++++++++++++++++++++++++++++++++++-a++++++++++++++
(PID.TID 0000.0001) //      9 c--l+++++++++++++++++++......c++++a+++a+++++++++++++++++++++++ohilkihhmpke+prtsrsutqjghtxnabeikie--ko+++++++++++++++++++++++++++++++++++++++++++.....-l+++++++++++++++++++++++++++++++++++++++++++++++++++++++++++++++++
(PID.TID 0000.0001) //      8 c-l++++++++++++++++++++......o++++f+++f+++++++++++++++++++++++nggiigfhmpf.k+yrssstsnjnswvrddfgc--...ek+++++++++++++++++++++++++++++++++piffkk+++.....f++++++++++++++++++++++++++++++++++++++++++++++++++++++++++++++++++
(PID.TID 0000.0001) //      7 c++++++++++++++++++++++a.....s++++l+++l+++++++++++++++++++++++nggiigfhouf.-++-ststmhmuxwvshghb..-...ek++++++++++++++++++++++++++++++++skiffifm+++dekk+++++++++++++++++++++++++++++++++++++++++++++++++++++++++++++++++++
(PID.TID 0000.0001) //      6 +++++++++++++++++++++++l....a+++++++++++++++++++++++++++++++++nhhiiggjtxd..++.lwwulhouvwwqihe-..-bfafe+++++++++++++++++++++++++++++++nmjlnlifm++++++++++++++++++++++++++++++++++++++++++++++++++++++++++++++++++++++++++
(PID.TID 0000.0001) //      5 ++++++++++++++++++++++++....++++++++++++++++++++++++++++++++++oijlnmnqtqd.....l+ztlioorul-......--jgce+++k+++k++++++++++++++++++-+++jgljottuqp++++++++++++++++++++++++++++++++++++++++++++++++++++++++++++++++++++++++++
(PID.TID 0000.0001) //      4 ++++++++++++++++++++++++kkk+++++++++++++++++++++++++++++++++++qmosuuttrneb....myvtoojhhh-........-jgak+++kk++kk++++++++++++++++-.++xjglpsutpru++++++++++++++++++++++++++++++++++++++++++++++++++++++++++++++++++++++++++
(PID.TID 0000.0001) //      3 +++++++++++++++++++++++++++++++++++++++++++++++++++++++++++++++++++++vrnii....tvttrqjgc-..........hj-k++++k+++k++++++++++++++++-.++xtpptvwqnp+++++++++++++++++++++++++++++++++++++++++++++++++++++++++++++++++++++++++++
(PID.TID 0000.0001) //      2 ++++++++++++++++++++++++++++++++++++++++++++++++++++++++++++++++++++++sppg...k+pquspec-...........ej-+++++k+++k++++++++++++++++-++++somotvqnp+++++++++++++++++++++++++++++++++++++++++++++++++++++++++++l+++++++++++++++
(PID.TID 0000.0001) //      1 ++++++++++++++++++++++++++++++++++++++++++++++++++++++++++++++++++++++++-.....kaaro-..............elkkl++kk++kk+++++++++++++++rl++xtpmhhjqtrs+++++++++++++++++++++++++++++++++++++++++++++++++++++++++++k+++++++mpu++++s
(PID.TID 0000.0001) //      0 .++++++++++++++++++++++++++++++++++..++++++++++++++++++++++++++++++++++..g.......db...............k++kl++kk..+k+++++++++++++++r+++xtnkhfgntv+++..++++++++++++++++++++++++++++++++++..++++++++++++++++++ok++++++kfpurps+.
(PID.TID 0000.0001) //     -1 ..++++++++++++++++++++++++++++++++....++++++++++++++++++++++++++++++++....-......................ar+++++++....+++++++++++++++++++++tkkhfgmt+++....++++++++++++++++++++++++++++++++....+++++++++++++++++o+++++++kfqvpnr..
(PID.TID 0000.0001) // =======================================================
(PID.TID 0000.0001) // END OF FIELD                                          =
(PID.TID 0000.0001) // =======================================================
(PID.TID 0000.0001) 
(PID.TID 0000.0001) 
(PID.TID 0000.0001) // ===================================
(PID.TID 0000.0001) // GAD parameters :
(PID.TID 0000.0001) // ===================================
(PID.TID 0000.0001) tempAdvScheme =   /* Temp. Horiz.Advection scheme selector */
(PID.TID 0000.0001)                       2
(PID.TID 0000.0001)     ;
(PID.TID 0000.0001) tempVertAdvScheme =   /* Temp. Vert. Advection scheme selector */
(PID.TID 0000.0001)                       2
(PID.TID 0000.0001)     ;
(PID.TID 0000.0001) tempMultiDimAdvec =   /* use Muti-Dim Advec method for Temp */
(PID.TID 0000.0001)                   F
(PID.TID 0000.0001)     ;
(PID.TID 0000.0001) tempAdamsBashforth =   /* use Adams-Bashforth time-stepping for Temp */
(PID.TID 0000.0001)                   T
(PID.TID 0000.0001)     ;
(PID.TID 0000.0001) saltAdvScheme =   /* Salt. Horiz.advection scheme selector */
(PID.TID 0000.0001)                       3
(PID.TID 0000.0001)     ;
(PID.TID 0000.0001) saltVertAdvScheme =   /* Salt. Vert. Advection scheme selector */
(PID.TID 0000.0001)                       3
(PID.TID 0000.0001)     ;
(PID.TID 0000.0001) saltMultiDimAdvec =   /* use Muti-Dim Advec method for Salt */
(PID.TID 0000.0001)                   F
(PID.TID 0000.0001)     ;
(PID.TID 0000.0001) saltAdamsBashforth =   /* use Adams-Bashforth time-stepping for Salt */
(PID.TID 0000.0001)                   T
(PID.TID 0000.0001)     ;
(PID.TID 0000.0001) // ===================================
- INPHYS: k,SIG, SIGH,   SIGL,   WVI(1),  WVI(2):
  1   0.0750   0.1500  -2.5903   0.8306   0.5757
  2   0.2500   0.3500  -1.3863   1.4427   0.4854
  3   0.5000   0.6500  -0.6931   2.2818   0.5987
  4   0.7750   0.9000  -0.2549   4.9116   0.7344
  5   0.9500   1.0000  -0.0513   0.0000   0.0377
- INPHYS: end setup WVI.
(PID.TID 0000.0001)  AIM_READ_PHYSPARMS: opening data.aimphys
(PID.TID 0000.0001)  OPEN_COPY_DATA_FILE: opening file data.aimphys
(PID.TID 0000.0001) // =======================================================
(PID.TID 0000.0001) // Parameter file "data.aimphys"
(PID.TID 0000.0001) // =======================================================
(PID.TID 0000.0001) ># AIM physics package parameters:
(PID.TID 0000.0001) >
(PID.TID 0000.0001) >C--   AIM interface parameter (namelist AIM_PARAMS):
(PID.TID 0000.0001) >#     aim_useFMsurfBC :: select surface B.C. from Franco Molteni
(PID.TID 0000.0001) >#     aim_useMMsurfFc :: select Monthly Mean surface forcing (e.g., NCEP)
(PID.TID 0000.0001) >#     aim_surfPotTemp :: surf.Temp input file is in Pot.Temp (aim_useMMsurfFc)
(PID.TID 0000.0001) >#     aim_energPrecip :: account for energy of precipitation (snow & rain temp)
(PID.TID 0000.0001) >#     aim_splitSIOsFx :: compute separately Sea-Ice & Ocean surf. Flux
(PID.TID 0000.0001) >#     aim_LandFile :: file name for Land fraction [0-1]
(PID.TID 0000.0001) >#     aim_MMsufx   :: sufix for all Monthly Mean surface forcing files
(PID.TID 0000.0001) >#     aim_MMsufxLength :: Length of sufix (Monthly Mean surf. forc. files)
(PID.TID 0000.0001) >#     aim_albFile  :: file name for Albedo input file   (F.M. surfBC)
(PID.TID 0000.0001) >#     aim_vegFile  :: file name for vegetation fraction (F.M. surfBC)
(PID.TID 0000.0001) >#     aim_sstFile  :: file name for  Sea.Surf.Temp      (F.M. surfBC)
(PID.TID 0000.0001) >#     aim_lstFile  :: file name for Land.Surf.Temp      (F.M. surfBC)
(PID.TID 0000.0001) >#     aim_oiceFile :: file name for Sea Ice fraction    (F.M. surfBC)
(PID.TID 0000.0001) >#     aim_snowFile :: file name for Snow depth          (F.M. surfBC)
(PID.TID 0000.0001) >#     aim_swcFile  :: file name for Soil Water content  (F.M. surfBC)
(PID.TID 0000.0001) >#     aim_dragStrato :: stratospheric-drag damping time scale (s)
(PID.TID 0000.0001) >#     aim_clrSkyDiag :: compute clear-sky radiation for diagnostics
(PID.TID 0000.0001) >#     aim_taveFreq :: Frequency^-1 for time-average output (s)
(PID.TID 0000.0001) >#     aim_diagFreq :: Frequency^-1 for diagnostic output (s)
(PID.TID 0000.0001) >#     aim_tendFreq :: Frequency^-1 for tendencies output (s)
(PID.TID 0000.0001) > &AIM_PARAMS
(PID.TID 0000.0001) >#  aim_useFMsurfBC=.FALSE.,
(PID.TID 0000.0001) >#  aim_useMMsurfFc=.TRUE.,
(PID.TID 0000.0001) >#  aim_surfPotTemp=.TRUE.,
(PID.TID 0000.0001) >   aim_energPrecip=.TRUE.,
(PID.TID 0000.0001) >   aim_splitSIOsFx=.TRUE.,
(PID.TID 0000.0001) >   aim_LandFile= 'landFrc.cpl_FM.bin',
(PID.TID 0000.0001) >   aim_albFile = 'albedo_cs32.bin',
(PID.TID 0000.0001) >   aim_vegFile = 'vegetFrc.cpl_FM.bin',
(PID.TID 0000.0001) >   aim_sstFile = 'seaSurfT.cpl_FM.bin',
(PID.TID 0000.0001) >   aim_lstFile = 'lndSurfT.cpl_FM.bin',
(PID.TID 0000.0001) >   aim_oiceFile= 'seaIce.cpl3FM.bin',
(PID.TID 0000.0001) >   aim_snowFile= 'snowDepth.cpl_FM.bin',
(PID.TID 0000.0001) >   aim_swcFile = 'soilMoist.cpl_FM.bin',
(PID.TID 0000.0001) >   aim_dragStrato= 2592000.,
(PID.TID 0000.0001) >#  aim_clrSkyDiag=.TRUE.,
(PID.TID 0000.0001) >#  aim_diagFreq=3600.,
(PID.TID 0000.0001) > &
(PID.TID 0000.0001) >
(PID.TID 0000.0001) >#--   Physical constants
(PID.TID 0000.0001) >#       P0    = reference pressure                 [Pa=N/m2]
(PID.TID 0000.0001) >#       GG    = gravity accel.                     [m/s2]
(PID.TID 0000.0001) >#       RD    = gas constant for dry air           [J/kg/K]
(PID.TID 0000.0001) >#       CP    = specific heat at constant pressure [J/kg/K]
(PID.TID 0000.0001) >#       ALHC  = latent heat of condensation        [J/g]
(PID.TID 0000.0001) >#       ALHF  = latent heat of freezing            [J/g]
(PID.TID 0000.0001) >#       SBC   = Stefan-Boltzmann constant
(PID.TID 0000.0001) >#     rainCP  = heat capacity of liquid water      [J/g/K]
(PID.TID 0000.0001) >#     tFreeze = freezing temperature of pure water [K]
(PID.TID 0000.0001) >
(PID.TID 0000.0001) >#--   Constants for forcing fields (namelist AIM_PAR_FOR):
(PID.TID 0000.0001) >#      SOLC   = Solar constant (area averaged) in W/m^2
(PID.TID 0000.0001) >#      ALBSEA = Albedo over sea
(PID.TID 0000.0001) >#      ALBICE = Albedo over sea ice (for ice fraction = 1)
(PID.TID 0000.0001) >#      ALBSN  = Albedo over snow (for snow depth > SDALB)
(PID.TID 0000.0001) >#      SDALB  = Snow depth (mm water) corresponding to maximum albedo
(PID.TID 0000.0001) >#      SWCAP  = Soil wetness at field capacity (volume fraction)
(PID.TID 0000.0001) >#      SWWIL  = Soil wetness at wilting point  (volume fraction)
(PID.TID 0000.0001) >#      hSnowWetness :: snow depth (m) corresponding to maximum wetness
(PID.TID 0000.0001) > &AIM_PAR_FOR
(PID.TID 0000.0001) > &
(PID.TID 0000.0001) >
(PID.TID 0000.0001) >#--   Constants for surface fluxes (namelist AIM_PAR_SFL):
(PID.TID 0000.0001) >#      FWIND0 = ratio of near-sfc wind to lowest-level wind
(PID.TID 0000.0001) >#      FTEMP0 = weight for near-sfc temperature extrapolation (0-1) :
(PID.TID 0000.0001) >#               1 : linear extrapolation from two lowest levels
(PID.TID 0000.0001) >#               0 : constant potential temperature ( = lowest level)
(PID.TID 0000.0001) >#      FHUM0  = weight for near-sfc specific humidity extrapolation (0-1) :
(PID.TID 0000.0001) >#               1 : extrap. with constant relative hum. ( = lowest level)
(PID.TID 0000.0001) >#               0 : constant specific hum. ( = lowest level)
(PID.TID 0000.0001) >#      CDL    = drag coefficient for momentum over land
(PID.TID 0000.0001) >#      CDS    = drag coefficient for momentum over sea
(PID.TID 0000.0001) >#      CHL    = heat exchange coefficient over land
(PID.TID 0000.0001) >#      CHS    = heat exchange coefficient over sea
(PID.TID 0000.0001) >#      VGUST  = wind speed for sub-grid-scale gusts
(PID.TID 0000.0001) >#      CTDAY  = daily-cycle correction (dTskin/dSSRad)
(PID.TID 0000.0001) >#      DTHETA = Potential temp. gradient for stability correction
(PID.TID 0000.0001) >#      dTstab = potential temp. increment for stability function derivative
(PID.TID 0000.0001) >#      FSTAB  = Amplitude of stability correction (fraction)
(PID.TID 0000.0001) >#      HDRAG  = Height scale for orographic correction
(PID.TID 0000.0001) >#      FHDRAG = Amplitude of orographic correction (fraction)
(PID.TID 0000.0001) > &AIM_PAR_SFL
(PID.TID 0000.0001) >#  FTEMP0 = 0.,
(PID.TID 0000.0001) >#  FHUM0  = 0.,
(PID.TID 0000.0001) >#  dTstab = 0.,
(PID.TID 0000.0001) > &
(PID.TID 0000.0001) >
(PID.TID 0000.0001) >#--   Convection constants (namelist AIM_PAR_CNV):
(PID.TID 0000.0001) >#      PSMIN  = minimum (norm.) sfc. pressure for the occurrence of convection
(PID.TID 0000.0001) >#      TRCNV  = time of relaxation (in hours) towards reference state
(PID.TID 0000.0001) >#      QBL    = specific hum. threshold in the boundary layer
(PID.TID 0000.0001) >#      RHBL   = relative hum. threshold in the boundary layer
(PID.TID 0000.0001) >#      RHIL   = rel. hum. threshold in intermed. layers for secondary mass flux
(PID.TID 0000.0001) >#      ENTMAX = max. entrainment as a fraction of cloud-base mass flux
(PID.TID 0000.0001) >#      SMF    = ratio between secondary and primary mass flux at cloud-base
(PID.TID 0000.0001) > &AIM_PAR_CNV
(PID.TID 0000.0001) > &
(PID.TID 0000.0001) >
(PID.TID 0000.0001) >#--   Constants for large-scale condensation (namelist AIM_PAR_LSC):
(PID.TID 0000.0001) >#      TRLSC  = Relaxation time (in hours) for specific humidity
(PID.TID 0000.0001) >#      RHLSC  = Maximum relative humidity threshold (at sigma=1)
(PID.TID 0000.0001) >#      DRHLSC = Vertical range of relative humidity threshold
(PID.TID 0000.0001) >#      QSMAX  = used to define the maximum latent heat release
(PID.TID 0000.0001) > &AIM_PAR_LSC
(PID.TID 0000.0001) > &
(PID.TID 0000.0001) >
(PID.TID 0000.0001) >#--   Radiation constants (namelist AIM_PAR_RAD):
(PID.TID 0000.0001) >#      RHCL1  = relative hum. corresponding to cloud cover = 0
(PID.TID 0000.0001) >#      RHCL2  = relative hum. corresponding to cloud cover = 1
(PID.TID 0000.0001) >#      QACL1  = specific hum. threshold for cloud cover in the upper troposphere
(PID.TID 0000.0001) >#      QACL2  = specific hum. threshold for cloud cover in the upper troposphere
(PID.TID 0000.0001) >#      ALBCL  = cloud albedo (for cloud cover = 1)
(PID.TID 0000.0001) >#      EPSSW  = fraction of incoming solar radiation absorbed by ozone
(PID.TID 0000.0001) >#      EPSLW  = fraction of surface LW radiation emitted directly to space
(PID.TID 0000.0001) >#      EMISFC = longwave surface emissivity
(PID.TID 0000.0001) >#--:            shortwave absorptivities (for dp = 10^5 Pa) :
(PID.TID 0000.0001) >#      ABSDRY = abs. of dry air      (visible band)
(PID.TID 0000.0001) >#      ABSAER = abs. of aerosols     (visible band)
(PID.TID 0000.0001) >#      ABSWV1 = abs. of water vapour (visible band, for dq = 1 g/kg)
(PID.TID 0000.0001) >#      ABSWV2 = abs. of water vapour (near IR band, for dq = 1 g/kg)
(PID.TID 0000.0001) >#      ABSCL1 = abs. of clouds       (visible band, constant term)
(PID.TID 0000.0001) >#      ABSCL2 = abs. of clouds       (visible band, for dw = 1 g/kg)
(PID.TID 0000.0001) >#--:            longwave absorptivities (per dp = 10^5 Pa) :
(PID.TID 0000.0001) >#      ABLWIN = abs. of air in "window" band
(PID.TID 0000.0001) >#      ABLCO2 = abs. of air in CO2 band
(PID.TID 0000.0001) >#      ABLWV1 = abs. of water vapour in H2O band 1 (weak),   for dq = 1 g/kg
(PID.TID 0000.0001) >#      ABLWV2 = abs. of water vapour in H2O band 2 (strong), for dq = 1 g/kg
(PID.TID 0000.0001) >#      ABLCL1 = abs. of clouds       in "window" band,       constant term
(PID.TID 0000.0001) >#      ABLCL2 = abs. of clouds       in "window" band,       for dw = 1 g/kg
(PID.TID 0000.0001) > &AIM_PAR_RAD
(PID.TID 0000.0001) > &
(PID.TID 0000.0001) >
(PID.TID 0000.0001) >#--   Constants for vertical dif. and sh. conv. (namelist AIM_PAR_VDI):
(PID.TID 0000.0001) >#      TRSHC  = relaxation time (in hours) for shallow convection
(PID.TID 0000.0001) >#      TRVDI  = relaxation time (in hours) for moisture diffusion
(PID.TID 0000.0001) >#      TRVDS  = relaxation time (in hours) for super-adiab. conditions
(PID.TID 0000.0001) >#      RHGRAD = maximum gradient of relative humidity (d_RH/d_sigma)
(PID.TID 0000.0001) >#      SEGRAD = minimum gradient of dry static energy (d_DSE/d_phi)
(PID.TID 0000.0001) > &AIM_PAR_VDI
(PID.TID 0000.0001) > &
(PID.TID 0000.0001) >
(PID.TID 0000.0001) 
(PID.TID 0000.0001)  AIM_READ_PHYSPARMS: finished reading data.aimphys
(PID.TID 0000.0001) 
(PID.TID 0000.0001) // ===================================
(PID.TID 0000.0001) // AIM physics parameters :
(PID.TID 0000.0001) // ===================================
(PID.TID 0000.0001) useLand =   /* use Land package for surf.BC over land  */
(PID.TID 0000.0001)                   T
(PID.TID 0000.0001)     ;
(PID.TID 0000.0001) aim_useFMsurfBC =   /* F.Molteni surf. BC scheme on/off flag */
(PID.TID 0000.0001)                   T
(PID.TID 0000.0001)     ;
(PID.TID 0000.0001) aim_useMMsurfFc =   /* Monthly Mean surf. Forcing on/off flag */
(PID.TID 0000.0001)                   F
(PID.TID 0000.0001)     ;
(PID.TID 0000.0001) aim_surfPotTemp =   /* Surf Temp file in Pot.Temp on/off flag */
(PID.TID 0000.0001)                   F
(PID.TID 0000.0001)     ;
(PID.TID 0000.0001) aim_energPrecip = /* account for energy of precip. on/off flag */
(PID.TID 0000.0001)                   T
(PID.TID 0000.0001)     ;
(PID.TID 0000.0001) aim_splitSIOsFx = /* separate Sea-Ice & Ocean Flux on/off flag */
(PID.TID 0000.0001)                   T
(PID.TID 0000.0001)     ;
(PID.TID 0000.0001) aim_dragStrato= /* stratospheric-drag damping time scale (s) */
(PID.TID 0000.0001)                 2.592000000000000E+06
(PID.TID 0000.0001)     ;
(PID.TID 0000.0001) aim_clrSkyDiag = /* do clear-sky radiation diagnostics */
(PID.TID 0000.0001)                   F
(PID.TID 0000.0001)     ;
(PID.TID 0000.0001) aim_taveFreq =   /* Frequency^-1 for time-Aver. output (s) */
(PID.TID 0000.0001)                 2.592000000000000E+06
(PID.TID 0000.0001)     ;
(PID.TID 0000.0001) aim_diagFreq =   /* Frequency^-1 for diagnostic output (s) */
(PID.TID 0000.0001)                 2.592000000000000E+06
(PID.TID 0000.0001)     ;
(PID.TID 0000.0001) aim_tendFreq =   /* Frequency^-1 for tendencies output (s) */
(PID.TID 0000.0001)                 0.000000000000000E+00
(PID.TID 0000.0001)     ;
(PID.TID 0000.0001) AIM_FOR:   SOLC =   /* Solar constant (area averaged) in W/m2 */
(PID.TID 0000.0001)                 3.420000000000000E+02
(PID.TID 0000.0001)     ;
(PID.TID 0000.0001) AIM_FOR: ALBSEA =   /* Albedo over sea [0-1]      */
(PID.TID 0000.0001)                 7.000000000000001E-02
(PID.TID 0000.0001)     ;
(PID.TID 0000.0001) AIM_FOR: ALBICE =   /* Albedo over sea ice (for ice fraction =1) */
(PID.TID 0000.0001)                 6.000000000000000E-01
(PID.TID 0000.0001)     ;
(PID.TID 0000.0001) AIM_FOR:  ALBSN =   /* Albedo over snow (for snow depth > SDALB) */
(PID.TID 0000.0001)                 6.000000000000000E-01
(PID.TID 0000.0001)     ;
(PID.TID 0000.0001) AIM_FOR:  SDALB =   /* Snow depth (mm H2O) corresp. maximum albedo */
(PID.TID 0000.0001)                 6.000000000000000E+01
(PID.TID 0000.0001)     ;
(PID.TID 0000.0001) AIM_FOR:  SWCAP =   /* Soil wetness at field capacity (Vol.fract.) */
(PID.TID 0000.0001)                 3.000000000000000E-01
(PID.TID 0000.0001)     ;
(PID.TID 0000.0001) AIM_FOR:  SWWIL =   /* Soil wetness at wilting point  (Vol.fract.) */
(PID.TID 0000.0001)                 1.700000000000000E-01
(PID.TID 0000.0001)     ;
(PID.TID 0000.0001) AIM_FOR: hSnowWetness=   /* snow depth corresp. maximum wetness (m) */
(PID.TID 0000.0001)                 1.000000000000000E-02
(PID.TID 0000.0001)     ;
(PID.TID 0000.0001) AIM_SFL: FWIND0 =   /* ratio of near-sfc wind to lowest-level wind */
(PID.TID 0000.0001)                 6.000000000000000E-01
(PID.TID 0000.0001)     ;
(PID.TID 0000.0001) AIM_SFL: FTEMP0 =  /* weight for near-sfc temp. extrapolation (0-1)*/
(PID.TID 0000.0001)                 1.000000000000000E+00
(PID.TID 0000.0001)     ;
(PID.TID 0000.0001) AIM_SFL:  FHUM0 =  /* weight for near-sfc spec.humid. extrap. (0-1)*/
(PID.TID 0000.0001)                 1.000000000000000E+00
(PID.TID 0000.0001)     ;
(PID.TID 0000.0001) AIM_SFL:    CDL =   /* drag coefficient for momentum over land */
(PID.TID 0000.0001)                 1.800000000000000E-03
(PID.TID 0000.0001)     ;
(PID.TID 0000.0001) AIM_SFL:    CDS =   /* drag coefficient for momentum over sea  */
(PID.TID 0000.0001)                 8.000000000000000E-04
(PID.TID 0000.0001)     ;
(PID.TID 0000.0001) AIM_SFL:    CHL =   /* heat exchange coefficient over land */
(PID.TID 0000.0001)                 1.200000000000000E-03
(PID.TID 0000.0001)     ;
(PID.TID 0000.0001) AIM_SFL:    CHS =   /* heat exchange coefficient over sea  */
(PID.TID 0000.0001)                 8.000000000000000E-04
(PID.TID 0000.0001)     ;
(PID.TID 0000.0001) AIM_SFL:  VGUST =   /* wind speed [m/s] for sub-grid-scale gusts */
(PID.TID 0000.0001)                 5.000000000000000E+00
(PID.TID 0000.0001)     ;
(PID.TID 0000.0001) AIM_SFL:  CTDAY =   /* daily-cycle correction (dTskin/dSSRad) */
(PID.TID 0000.0001)                 1.000000000000000E-02
(PID.TID 0000.0001)     ;
(PID.TID 0000.0001) AIM_SFL: DTHETA =   /* Pot.Temp. gradient for stability correction */
(PID.TID 0000.0001)                 3.000000000000000E+00
(PID.TID 0000.0001)     ;
(PID.TID 0000.0001) AIM_SFL: dTstab =   /* Pot.Temp. increment for stab.funct. derivative */
(PID.TID 0000.0001)                 1.000000000000000E+00
(PID.TID 0000.0001)     ;
(PID.TID 0000.0001) AIM_SFL:  FSTAB =   /* Amplitude of stability correction (fract.) */
(PID.TID 0000.0001)                 6.700000000000001E-01
(PID.TID 0000.0001)     ;
(PID.TID 0000.0001) AIM_SFL:  HDRAG =   /* Height scale for orographic correction */
(PID.TID 0000.0001)                 2.000000000000000E+03
(PID.TID 0000.0001)     ;
(PID.TID 0000.0001) AIM_SFL: FHDRAG =   /* Amplitude of orographic correction (fract.)*/
(PID.TID 0000.0001)                 8.000000000000000E-01
(PID.TID 0000.0001)     ;
(PID.TID 0000.0001) AIM_CNV:  PSMIN =   /* min norm.sfc.P. for occurrence of convect. */
(PID.TID 0000.0001)                 7.000000000000000E-01
(PID.TID 0000.0001)     ;
(PID.TID 0000.0001) AIM_CNV:  TRCNV =   /* time of relaxation [h] towards ref state */
(PID.TID 0000.0001)                 6.000000000000000E+00
(PID.TID 0000.0001)     ;
(PID.TID 0000.0001) AIM_CNV:    QBL =   /* specific hum. threshold in the Bound.layer */
(PID.TID 0000.0001)                 1.500000000000000E+01
(PID.TID 0000.0001)     ;
(PID.TID 0000.0001) AIM_CNV:   RHBL =   /* relative hum. threshold in the Bound.layer */
(PID.TID 0000.0001)                 8.000000000000000E-01
(PID.TID 0000.0001)     ;
(PID.TID 0000.0001) AIM_CNV:   RHIL =   /* rel.hum. threshold (intern) for 2nd mass.Flx*/
(PID.TID 0000.0001)                 7.000000000000000E-01
(PID.TID 0000.0001)     ;
(PID.TID 0000.0001) AIM_CNV: ENTMAX =   /* time of relaxation [h] towards neutral eq. */
(PID.TID 0000.0001)                 5.000000000000000E-01
(PID.TID 0000.0001)     ;
(PID.TID 0000.0001) AIM_CNV:    SMF =   /* ratio 2ndary/primary mass.Flx at cloud-base*/
(PID.TID 0000.0001)                 5.000000000000000E-01
(PID.TID 0000.0001)     ;
(PID.TID 0000.0001) AIM_LSC:  TRLSC =   /* relaxation time [h] for supersat. spec.hum. */
(PID.TID 0000.0001)                 4.000000000000000E+00
(PID.TID 0000.0001)     ;
(PID.TID 0000.0001) AIM_LSC:  RHLSC =   /* Max rel.humidity threshold (at sigma=1) */
(PID.TID 0000.0001)                 9.000000000000000E-01
(PID.TID 0000.0001)     ;
(PID.TID 0000.0001) AIM_LSC: DRHLSC =   /* Vertical range of rel.humidity threshold */
(PID.TID 0000.0001)                 1.000000000000000E-01
(PID.TID 0000.0001)     ;
(PID.TID 0000.0001) AIM_LSC:  QSMAX =   /* Define the maximum latent heat release */
(PID.TID 0000.0001)                 5.000000000000000E+01
(PID.TID 0000.0001)     ;
(PID.TID 0000.0001) AIM_RAD:  RHCL1 =   /*  rel.hum. corresponding to cloud cover = 0 */
(PID.TID 0000.0001)                 4.500000000000000E-01
(PID.TID 0000.0001)     ;
(PID.TID 0000.0001) AIM_RAD:  RHCL2 =   /*  rel.hum. corresponding to cloud cover = 1 */
(PID.TID 0000.0001)                 8.500000000000000E-01
(PID.TID 0000.0001)     ;
(PID.TID 0000.0001) AIM_RAD:  QACL1 =   /* spec.hum. threshold for cloud, upper trop. */
(PID.TID 0000.0001)                 1.000000000000000E-01
(PID.TID 0000.0001)     ;
(PID.TID 0000.0001) AIM_RAD:  QACL2 =   /* spec.hum. threshold for cloud, upper trop. */
(PID.TID 0000.0001)                 1.000000000000000E+00
(PID.TID 0000.0001)     ;
(PID.TID 0000.0001) AIM_RAD:  ALBCL =   /*  cloud albedo (for cloud cover = 1) */
(PID.TID 0000.0001)                 4.000000000000000E-01
(PID.TID 0000.0001)     ;
(PID.TID 0000.0001) AIM_RAD:  EPSSW =   /*  fract. of inc.solar rad. absorbed by ozone */
(PID.TID 0000.0001)                 1.500000000000000E-02
(PID.TID 0000.0001)     ;
(PID.TID 0000.0001) AIM_RAD:  EPSLW =   /*  fract. of sfc LW emitted directly to space */
(PID.TID 0000.0001)                 0.000000000000000E+00
(PID.TID 0000.0001)     ;
(PID.TID 0000.0001) AIM_RAD: EMISFC =   /*  longwave surface emissivity */
(PID.TID 0000.0001)                 9.800000000000000E-01
(PID.TID 0000.0001)     ;
(PID.TID 0000.0001)  AIM_RAD : ShortWave absorptivities (for dp = 10^5 Pa) :
(PID.TID 0000.0001) AIM_RAD: ABSDRY =   /* abs. of dry air (visible band) */
(PID.TID 0000.0001)                 3.300000000000000E-02
(PID.TID 0000.0001)     ;
(PID.TID 0000.0001) AIM_RAD: ABSAER =   /* abs. of aerosols (visible band) */
(PID.TID 0000.0001)                 3.300000000000000E-02
(PID.TID 0000.0001)     ;
(PID.TID 0000.0001) AIM_RAD: ABSWV1 =   /* abs. of water vap. (vis. band)(/dq, 1g/kg) */
(PID.TID 0000.0001)                 2.200000000000000E-02
(PID.TID 0000.0001)     ;
(PID.TID 0000.0001) AIM_RAD: ABSWV2 =   /* abs. of water vap.(near IR bd)(/dq, 1g/kg) */
(PID.TID 0000.0001)                 1.500000000000000E+01
(PID.TID 0000.0001)     ;
(PID.TID 0000.0001) AIM_RAD: ABSCL1 =   /* abs. of clouds (vis.band)(constant term) */
(PID.TID 0000.0001)                 0.000000000000000E+00
(PID.TID 0000.0001)     ;
(PID.TID 0000.0001) AIM_RAD: ABSCL2 =   /* abs. of clouds (vis.band) (/dw, 1g/kg) */
(PID.TID 0000.0001)                 1.000000000000000E-02
(PID.TID 0000.0001)     ;
(PID.TID 0000.0001) AIM_RAD: ABLWIN =   /* abs. of air in "window" band */
(PID.TID 0000.0001)                 7.000000000000000E-01
(PID.TID 0000.0001)     ;
(PID.TID 0000.0001) AIM_RAD: ABLCO2 =   /* abs. of air in CO2 band */
(PID.TID 0000.0001)                 4.000000000000000E+00
(PID.TID 0000.0001)     ;
(PID.TID 0000.0001) AIM_RAD: ABLWV1 =   /* abs. of Water vap. H2O bd-1(weak)(/dq,1g/kg)*/
(PID.TID 0000.0001)                 7.000000000000000E-01
(PID.TID 0000.0001)     ;
(PID.TID 0000.0001) AIM_RAD: ABLWV2 =   /* abs. of W. vap., H2O bd-2(strong)(/dq,1g/kg)*/
(PID.TID 0000.0001)                 5.000000000000000E+01
(PID.TID 0000.0001)     ;
(PID.TID 0000.0001) AIM_RAD: ABLCL1 =   /* abs. of clouds in window band (const term) */
(PID.TID 0000.0001)                 1.200000000000000E+01
(PID.TID 0000.0001)     ;
(PID.TID 0000.0001) AIM_RAD: ABLCL2 =   /* abs. of clouds in window band (/dw, 1g/kg) */
(PID.TID 0000.0001)                 0.000000000000000E+00
(PID.TID 0000.0001)     ;
(PID.TID 0000.0001) AIM_VDI:  TRSHC =   /* relaxation time [h] for shallow convection */
(PID.TID 0000.0001)                 2.400000000000000E+01
(PID.TID 0000.0001)     ;
(PID.TID 0000.0001) AIM_VDI:  TRVDI =   /* relaxation time [h] for moisture diffusion */
(PID.TID 0000.0001)                 4.000000000000000E+01
(PID.TID 0000.0001)     ;
(PID.TID 0000.0001) AIM_VDI:  TRVDS =   /* relaxation time [h] for super-adiab. cond. */
(PID.TID 0000.0001)                 5.000000000000000E+00
(PID.TID 0000.0001)     ;
(PID.TID 0000.0001) AIM_VDI: RHGRAD =   /* max gradient of rel.humidity (d_RH/d_sigma)*/
(PID.TID 0000.0001)                 5.000000000000000E-01
(PID.TID 0000.0001)     ;
(PID.TID 0000.0001) AIM_VDI: RHGRAD =   /* max grad. of dry static Energy(d_DSE/d_phi)*/
(PID.TID 0000.0001)                 5.000000000000000E-01
(PID.TID 0000.0001)     ;
(PID.TID 0000.0001)  MDSREADFIELD: opening global file: landFrc.cpl_FM.bin
(PID.TID 0000.0001)  LAND_READPARMS: opening data.land
(PID.TID 0000.0001)  OPEN_COPY_DATA_FILE: opening file data.land
(PID.TID 0000.0001) // =======================================================
(PID.TID 0000.0001) // Parameter file "data.land"
(PID.TID 0000.0001) // =======================================================
(PID.TID 0000.0001) ># Land package parameters:
(PID.TID 0000.0001) >
(PID.TID 0000.0001) >#--  Land model parameter (namelist LAND_MODEL_PAR):
(PID.TID 0000.0001) >#     land_calc_grT  :: step forward ground Temperature
(PID.TID 0000.0001) >#     land_calc_grW  :: step forward soil moiture
(PID.TID 0000.0001) >#     land_impl_grT  :: solve ground Temperature implicitly
(PID.TID 0000.0001) >#     land_calc_snow :: step forward snow thickness
(PID.TID 0000.0001) >#     land_calc_alb  :: compute albedo of snow over land
(PID.TID 0000.0001) >#     land_oldPickup :: restart from an old pickup (=before checkpoint 52l)
(PID.TID 0000.0001) >#     land_grT_iniFile  :: File containing initial ground Temp.
(PID.TID 0000.0001) >#     land_grW_iniFile  :: File containing initial ground Water.
(PID.TID 0000.0001) >#     land_snow_iniFile :: File containing initial snow thickness.
(PID.TID 0000.0001) >#     land_deltaT   :: land model time-step
(PID.TID 0000.0001) >#     land_taveFreq :: Frequency^-1 for time-Aver. output (s)
(PID.TID 0000.0001) >#     land_diagFreq :: Frequency^-1 for diagnostic output (s)
(PID.TID 0000.0001) >#     land_monFreq  :: Frequency^-1 for monitor    output (s)
(PID.TID 0000.0001) >#     land_dzF      :: layer thickness
(PID.TID 0000.0001) > &LAND_MODEL_PAR
(PID.TID 0000.0001) ># land_calc_grT =.FALSE.,
(PID.TID 0000.0001) ># land_calc_grW =.FALSE.,
(PID.TID 0000.0001) ># land_impl_grT =.FALSE.,
(PID.TID 0000.0001) ># land_calc_snow=.FALSE.,
(PID.TID 0000.0001) ># land_calc_alb =.FALSE.,
(PID.TID 0000.0001) >  land_grT_iniFile='land_grT_ini.cpl.bin',
(PID.TID 0000.0001) >  land_grW_iniFile='land_grW_ini.mn.bin',
(PID.TID 0000.0001) >  land_snow_iniFile='land_snw_ini.cpl.bin',
(PID.TID 0000.0001) ># land_oldPickup=.TRUE.,
(PID.TID 0000.0001) >  land_dzF= 0.1, 4.0,
(PID.TID 0000.0001) ># land_diagFreq=2592000.,
(PID.TID 0000.0001) > &
(PID.TID 0000.0001) >
(PID.TID 0000.0001) >#--  Physical constants (namelist LAND_PHYS_PAR):
(PID.TID 0000.0001) >#     land_grdLambda  :: Thermal conductivity of the ground (W/m/K)
(PID.TID 0000.0001) >#     land_heatCs     :: Heat capacity of dry soil (J/m3/K)
(PID.TID 0000.0001) >#     land_CpWater    :: Heat capacity of water    (J/kg/K)
(PID.TID 0000.0001) >#     land_wTauDiff   :: soil moisture diffusion time scale
(PID.TID 0000.0001) >#     land_waterCap   :: field capacity per meter of soil
(PID.TID 0000.0001) >#     land_fractRunOff:: fraction of water in excess which run-off
(PID.TID 0000.0001) >#     land_rhoLiqW    :: density of liquid water (kg/m3)
(PID.TID 0000.0001) >#     land_rhoSnow    :: density of snow (kg/m3)
(PID.TID 0000.0001) >#     land_Lfreez     :: Latent heat of freezing (J/kg)
(PID.TID 0000.0001) >#     land_hMaxSnow   :: Maximum snow-thickness  (m)
(PID.TID 0000.0001) >#     diffKsnow       :: thermal conductivity of snow (W/m/K)
(PID.TID 0000.0001) >#     timeSnowAge     :: snow aging time scale   (s)
(PID.TID 0000.0001) >#     hNewSnowAge     :: new snow thickness that refresh the snow-age (by 1/e)
(PID.TID 0000.0001) >#     albColdSnow     :: albedo of cold (=dry) new snow (Tsfc < -10)
(PID.TID 0000.0001) >#     albWarmSnow     :: albedo of warm (=wet) new snow (Tsfc = 0)
(PID.TID 0000.0001) >#     albOldSnow      :: albedo of old snow (snowAge > 35.d)
(PID.TID 0000.0001) >#     hAlbSnow        :: snow thickness for albedo transition: snow/ground
(PID.TID 0000.0001) > &LAND_PHYS_PAR
(PID.TID 0000.0001) ># land_Lfreez=0.,
(PID.TID 0000.0001) >  land_hMaxSnow=10.,
(PID.TID 0000.0001) > &
(PID.TID 0000.0001) 
(PID.TID 0000.0001)  LAND_READPARMS: finished reading data.land
(PID.TID 0000.0001) 
(PID.TID 0000.0001) // ===================================
(PID.TID 0000.0001) // Land package parameters :
(PID.TID 0000.0001) // ===================================
(PID.TID 0000.0001) land_calc_grT = /* step forward ground Temp. on/off flag */
(PID.TID 0000.0001)                   T
(PID.TID 0000.0001)     ;
(PID.TID 0000.0001) land_calc_grW = /* step forward soil moiture on/off flag */
(PID.TID 0000.0001)                   T
(PID.TID 0000.0001)     ;
(PID.TID 0000.0001) land_impl_grT = /* solve ground temperature implicitly */
(PID.TID 0000.0001)                   T
(PID.TID 0000.0001)     ;
(PID.TID 0000.0001) land_calc_snow = /* step forward snow thickness */
(PID.TID 0000.0001)                   T
(PID.TID 0000.0001)     ;
(PID.TID 0000.0001) land_calc_alb = /* compute land+snow albedo */
(PID.TID 0000.0001)                   T
(PID.TID 0000.0001)     ;
(PID.TID 0000.0001) land_grT_iniFile = /* Initial ground-Temp Input-File */
(PID.TID 0000.0001)                 land_grT_ini.cpl.bin
(PID.TID 0000.0001)     ;
(PID.TID 0000.0001) land_grW_iniFile = /* Initial soil-Water Input-File */
(PID.TID 0000.0001)                 land_grW_ini.mn.bin
(PID.TID 0000.0001)     ;
(PID.TID 0000.0001) land_snow_iniFile= /* Initial snow thickness Input-File */
(PID.TID 0000.0001)                 land_grW_ini.mn.bin
(PID.TID 0000.0001)     ;
(PID.TID 0000.0001) land_deltaT = /* land model Time-Step (s) */
(PID.TID 0000.0001)                 4.500000000000000E+02
(PID.TID 0000.0001)     ;
(PID.TID 0000.0001) land_taveFreq = /* Frequency^-1 for time-Aver. output (s) */
(PID.TID 0000.0001)                 2.592000000000000E+06
(PID.TID 0000.0001)     ;
(PID.TID 0000.0001) land_diagFreq = /* Frequency^-1 for diagnostic output (s) */
(PID.TID 0000.0001)                 2.592000000000000E+06
(PID.TID 0000.0001)     ;
(PID.TID 0000.0001) land_monFreq = /* Frequency^-1 for monitor output (s) */
(PID.TID 0000.0001)                 2.592000000000000E+06
(PID.TID 0000.0001)     ;
(PID.TID 0000.0001) land_dzF = /* layer thickness ( m ) */
(PID.TID 0000.0001)                 1.000000000000000E-01,      /* K =  1 */
(PID.TID 0000.0001)                 4.000000000000000E+00       /* K =  2 */
(PID.TID 0000.0001)     ;
(PID.TID 0000.0001) land_rec_dzC= /* recip. vertical spacing (m-1) */
(PID.TID 0000.0001)                 2.000000000000000E+01,      /* K =  1 */
(PID.TID 0000.0001)                 4.878048780487806E-01       /* K =  2 */
(PID.TID 0000.0001)     ;
(PID.TID 0000.0001) land_grdLambda = /* Thermal conductivity of the ground (W/m/K)*/
(PID.TID 0000.0001)                 4.200000000000001E-01
(PID.TID 0000.0001)     ;
(PID.TID 0000.0001) land_heatCs = /* Heat capacity of dry soil (J/m3/K) */
(PID.TID 0000.0001)                 1.130000000000000E+06
(PID.TID 0000.0001)     ;
(PID.TID 0000.0001) land_CpWater = /* Heat capacity of water    (J/kg/K) */
(PID.TID 0000.0001)                 4.200000000000001E+03
(PID.TID 0000.0001)     ;
(PID.TID 0000.0001) land_wTauDiff = /* soil moisture diffusion time scale (s) */
(PID.TID 0000.0001)                 1.728000000000000E+05
(PID.TID 0000.0001)     ;
(PID.TID 0000.0001) land_waterCap = /* field capacity per meter of soil (1) */
(PID.TID 0000.0001)                 2.400000000000000E-01
(PID.TID 0000.0001)     ;
(PID.TID 0000.0001) land_fractRunOff= /* fraction of water in excess which run-off */
(PID.TID 0000.0001)                 5.000000000000000E-01
(PID.TID 0000.0001)     ;
(PID.TID 0000.0001) land_rhoLiqW = /* density of liquid water (kg/m3) */
(PID.TID 0000.0001)                 1.000000000000000E+03
(PID.TID 0000.0001)     ;
(PID.TID 0000.0001) land_rhoSnow = /* density of snow (kg/m3) */
(PID.TID 0000.0001)                 3.300000000000000E+02
(PID.TID 0000.0001)     ;
(PID.TID 0000.0001) land_Lfreez = /* Latent heat of freezing (J/kg) */
(PID.TID 0000.0001)                 3.340000000000000E+05
(PID.TID 0000.0001)     ;
(PID.TID 0000.0001) land_hMaxSnow = /* maximum snow-thickness (m) */
(PID.TID 0000.0001)                 1.000000000000000E+01
(PID.TID 0000.0001)     ;
(PID.TID 0000.0001) diffKsnow = /* thermal conductivity of snow (W/m/K) */
(PID.TID 0000.0001)                 3.000000000000000E-01
(PID.TID 0000.0001)     ;
(PID.TID 0000.0001) timeSnowAge = /* snow aging time scale   (s) */
(PID.TID 0000.0001)                 4.320000000000001E+06
(PID.TID 0000.0001)     ;
(PID.TID 0000.0001) hNewSnowAge = /* new snow thickness to refresh snow-age by 1/e */
(PID.TID 0000.0001)                 2.000000000000000E-03
(PID.TID 0000.0001)     ;
(PID.TID 0000.0001) albColdSnow = /* albedo of cold (=dry) new snow */
(PID.TID 0000.0001)                 8.500000000000000E-01
(PID.TID 0000.0001)     ;
(PID.TID 0000.0001) albWarmSnow = /* albedo of warm (=wet) new snow */
(PID.TID 0000.0001)                 7.000000000000000E-01
(PID.TID 0000.0001)     ;
(PID.TID 0000.0001) albOldSnow = /* albedo of old snow (snowAge >35.d)*/
(PID.TID 0000.0001)                 5.500000000000000E-01
(PID.TID 0000.0001)     ;
(PID.TID 0000.0001) hAlbSnow = /* snow depth for albedo transition */
(PID.TID 0000.0001)                 3.000000000000000E-01
(PID.TID 0000.0001)     ;
INI_P_GROUND: PhiRef/g [m] at Center (integer) and Interface (half-int.) levels:
  K=  0.5  ;  r=  100000.0  ;  phiRef/g=       0.000
  K=  1.0  ;  r=   95000.0  ;  phiRef/g=     431.199
  K=  1.5  ;  r=   90000.0  ;  phiRef/g=    1256.487
  K=  2.0  ;  r=   77500.0  ;  phiRef/g=    2105.998
  K=  2.5  ;  r=   65000.0  ;  phiRef/g=    3775.246
  K=  3.0  ;  r=   50000.0  ;  phiRef/g=    5536.327
  K=  3.5  ;  r=   35000.0  ;  phiRef/g=    7908.298
  K=  4.0  ;  r=   25000.0  ;  phiRef/g=   10440.915
  K=  4.5  ;  r=   15000.0  ;  phiRef/g=   13806.721
  K=  5.0  ;  r=    7500.0  ;  phiRef/g=   18190.889
  K=  5.5  ;  r=       0.0  ;  phiRef/g=   39547.504
(PID.TID 0000.0001) %MON fCori_max                    =   1.4535016908525E-04
(PID.TID 0000.0001) %MON fCori_min                    =  -1.4535016908525E-04
(PID.TID 0000.0001) %MON fCori_mean                   =   0.0000000000000E+00
(PID.TID 0000.0001) %MON fCori_sd                     =   8.3972192788621E-05
(PID.TID 0000.0001) %MON fCoriG_max                   =   1.4544410433286E-04
(PID.TID 0000.0001) %MON fCoriG_min                   =  -1.4544410433286E-04
(PID.TID 0000.0001) %MON fCoriG_mean                  =   0.0000000000000E+00
(PID.TID 0000.0001) %MON fCoriG_sd                    =   8.4860812167727E-05
(PID.TID 0000.0001) %MON fCoriCos_max                 =   1.4540341538469E-04
(PID.TID 0000.0001) %MON fCoriCos_min                 =   5.2264550201501E-06
(PID.TID 0000.0001) %MON fCoriCos_mean                =   1.1482595466044E-04
(PID.TID 0000.0001) %MON fCoriCos_sd                  =   3.0292878037194E-05
(PID.TID 0000.0001) // CG2D normalisation factor =          0.9911960384346745200900841E-05
(PID.TID 0000.0001) 
 ini_cg2d: sumArea,cg2dTolerance =  5.09904363781724E+14  1.12314485635777E-10
(PID.TID 0000.0001) CONFIG_CHECK: OK
(PID.TID 0000.0001) // =======================================================
(PID.TID 0000.0001) // Model configuration
(PID.TID 0000.0001) // =======================================================
(PID.TID 0000.0001) //
(PID.TID 0000.0001) // "Physical" paramters ( PARM01 in namelist )
(PID.TID 0000.0001) //
(PID.TID 0000.0001) buoyancyRelation = ATMOSPHERIC
(PID.TID 0000.0001) fluidIsAir  =  /* fluid major constituent is Air */
(PID.TID 0000.0001)                   T
(PID.TID 0000.0001)     ;
(PID.TID 0000.0001) fluidIsWater=  /* fuild major constituent is Water */
(PID.TID 0000.0001)                   F
(PID.TID 0000.0001)     ;
(PID.TID 0000.0001) usingPCoords =  /* use p (or p*) vertical coordinate */
(PID.TID 0000.0001)                   T
(PID.TID 0000.0001)     ;
(PID.TID 0000.0001) usingZCoords =  /* use z (or z*) vertical coordinate */
(PID.TID 0000.0001)                   F
(PID.TID 0000.0001)     ;
(PID.TID 0000.0001) tRef =   /* Reference temperature profile ( oC or oK ) */
(PID.TID 0000.0001)                 2.896000000000000E+02,      /* K =  1 */
(PID.TID 0000.0001)                 2.981000000000000E+02,      /* K =  2 */
(PID.TID 0000.0001)                 3.145000000000000E+02,      /* K =  3 */
(PID.TID 0000.0001)                 3.358000000000000E+02,      /* K =  4 */
(PID.TID 0000.0001)                 4.374000000000000E+02       /* K =  5 */
(PID.TID 0000.0001)     ;
(PID.TID 0000.0001) sRef =   /* Reference salinity profile ( ppt ) */
(PID.TID 0000.0001)     5 @  0.000000000000000E+00              /* K =  1:  5 */
(PID.TID 0000.0001)     ;
(PID.TID 0000.0001) viscAh =   /* Lateral eddy viscosity ( m^2/s ) */
(PID.TID 0000.0001)                 0.000000000000000E+00
(PID.TID 0000.0001)     ;
(PID.TID 0000.0001) viscAhMax =   /* Maximum lateral eddy viscosity ( m^2/s ) */
(PID.TID 0000.0001)                 1.000000000000000E+21
(PID.TID 0000.0001)     ;
(PID.TID 0000.0001) viscAhGrid =   /* Grid dependent lateral eddy viscosity ( non-dim. ) */
(PID.TID 0000.0001)                 0.000000000000000E+00
(PID.TID 0000.0001)     ;
(PID.TID 0000.0001) viscC2leith =   /* Leith harmonic viscosity factor ( non-dom. ) */
(PID.TID 0000.0001)                 0.000000000000000E+00
(PID.TID 0000.0001)     ;
(PID.TID 0000.0001) viscA4 =   /* Lateral biharmonic viscosity ( m^4/s ) */
(PID.TID 0000.0001)                 0.000000000000000E+00
(PID.TID 0000.0001)     ;
(PID.TID 0000.0001) viscA4Max =   /* Maximum biharmonic viscosity ( m^2/s ) */
(PID.TID 0000.0001)                 1.000000000000000E+21
(PID.TID 0000.0001)     ;
(PID.TID 0000.0001) viscA4Grid =   /* Grid dependent biharmonic viscosity ( non-dim. ) */
(PID.TID 0000.0001)                 0.000000000000000E+00
(PID.TID 0000.0001)     ;
(PID.TID 0000.0001) viscC4leith =   /* Leith biharmonic viscosity factor ( non-dom. ) */
(PID.TID 0000.0001)                 0.000000000000000E+00
(PID.TID 0000.0001)     ;
(PID.TID 0000.0001) no_slip_sides =  /* Viscous BCs: No-slip sides */
(PID.TID 0000.0001)                   F
(PID.TID 0000.0001)     ;
(PID.TID 0000.0001) viscAr =   /* Vertical eddy viscosity ( units of r^2/s ) */
(PID.TID 0000.0001)                 0.000000000000000E+00
(PID.TID 0000.0001)     ;
(PID.TID 0000.0001) no_slip_bottom =  /* Viscous BCs: No-slip bottom */
(PID.TID 0000.0001)                   F
(PID.TID 0000.0001)     ;
(PID.TID 0000.0001) diffKhT =   /* Laplacian diffusion of heat laterally ( m^2/s ) */
(PID.TID 0000.0001)                 0.000000000000000E+00
(PID.TID 0000.0001)     ;
(PID.TID 0000.0001) diffK4T =   /* Bihaarmonic diffusion of heat laterally ( m^4/s ) */
(PID.TID 0000.0001)                 0.000000000000000E+00
(PID.TID 0000.0001)     ;
(PID.TID 0000.0001) diffKhS =   /* Laplacian diffusion of salt laterally ( m^2/s ) */
(PID.TID 0000.0001)                 0.000000000000000E+00
(PID.TID 0000.0001)     ;
(PID.TID 0000.0001) diffK4S =   /* Bihaarmonic diffusion of salt laterally ( m^4/s ) */
(PID.TID 0000.0001)                 0.000000000000000E+00
(PID.TID 0000.0001)     ;
(PID.TID 0000.0001) diffKrNrT = /* vertical profile of vertical diffusion of Temp ( m^2/s )*/
(PID.TID 0000.0001)     5 @  0.000000000000000E+00              /* K =  1:  5 */
(PID.TID 0000.0001)     ;
(PID.TID 0000.0001) diffKrNrS = /* vertical profile of vertical diffusion of Salt ( m^2/s )*/
(PID.TID 0000.0001)     5 @  0.000000000000000E+00              /* K =  1:  5 */
(PID.TID 0000.0001)     ;
(PID.TID 0000.0001) diffKrBL79surf =   /* Surface diffusion for Bryan and Lewis 1979 ( m^2/s ) */
(PID.TID 0000.0001)                 0.000000000000000E+00
(PID.TID 0000.0001)     ;
(PID.TID 0000.0001) diffKrBL79deep =   /* Deep diffusion for Bryan and Lewis 1979 ( m^2/s ) */
(PID.TID 0000.0001)                 0.000000000000000E+00
(PID.TID 0000.0001)     ;
(PID.TID 0000.0001) diffKrBL79scl =   /* Depth scale for Bryan and Lewis 1979 ( m ) */
(PID.TID 0000.0001)                 2.000000000000000E+02
(PID.TID 0000.0001)     ;
(PID.TID 0000.0001) diffKrBL79Ho =   /* Turning depth for Bryan and Lewis 1979 ( m ) */
(PID.TID 0000.0001)                -2.000000000000000E+03
(PID.TID 0000.0001)     ;
(PID.TID 0000.0001)  Equation of State : eosType = IDEALG
(PID.TID 0000.0001) tAlpha =   /* Linear EOS thermal expansion coefficient ( 1/degree ) */
(PID.TID 0000.0001)                 1.234567000000000E+05
(PID.TID 0000.0001)     ;
(PID.TID 0000.0001) sBeta =   /* Linear EOS haline contraction coefficient ( 1/ppt ) */
(PID.TID 0000.0001)                 1.234567000000000E+05
(PID.TID 0000.0001)     ;
(PID.TID 0000.0001) atm_Rd =  /* gas constant for dry air ( J/kg/K ) */
(PID.TID 0000.0001)                 2.868571428571428E+02
(PID.TID 0000.0001)     ;
(PID.TID 0000.0001) atm_Cp =  /* specific heat (Cp) of dry air ( J/kg/K ) */
(PID.TID 0000.0001)                 1.004000000000000E+03
(PID.TID 0000.0001)     ;
(PID.TID 0000.0001) atm_kappa =  /* kappa (=Rd/Cp ) of dry air */
(PID.TID 0000.0001)                 2.857142857142857E-01
(PID.TID 0000.0001)     ;
(PID.TID 0000.0001) atm_Rq = /* water vap. specific vol. anomaly relative to dry air */
(PID.TID 0000.0001)                 6.078000000000001E-04
(PID.TID 0000.0001)     ;
(PID.TID 0000.0001) atm_Po =  /* standard reference pressure ( Pa ) */
(PID.TID 0000.0001)                 1.000000000000000E+05
(PID.TID 0000.0001)     ;
(PID.TID 0000.0001) integr_GeoPot =  /* select how the geopotential is integrated */
(PID.TID 0000.0001)                       2
(PID.TID 0000.0001)     ;
(PID.TID 0000.0001) selectFindRoSurf=  /* select how Surf.Ref. pressure is defined */
(PID.TID 0000.0001)                       1
(PID.TID 0000.0001)     ;
(PID.TID 0000.0001) rhonil =   /* Reference density ( kg/m^3 ) */
(PID.TID 0000.0001)                 1.000000000000000E+00
(PID.TID 0000.0001)     ;
(PID.TID 0000.0001) rhoConst =   /* Reference density ( kg/m^3 ) */
(PID.TID 0000.0001)                 1.000000000000000E+00
(PID.TID 0000.0001)     ;
(PID.TID 0000.0001) rhoConstFresh =   /* Reference density ( kg/m^3 ) */
(PID.TID 0000.0001)                 1.000000000000000E+03
(PID.TID 0000.0001)     ;
(PID.TID 0000.0001) gravity =   /* Gravitational acceleration ( m/s^2 ) */
(PID.TID 0000.0001)                 9.810000000000000E+00
(PID.TID 0000.0001)     ;
(PID.TID 0000.0001) gBaro =   /* Barotropic gravity ( m/s^2 ) */
(PID.TID 0000.0001)                 9.810000000000000E+00
(PID.TID 0000.0001)     ;
(PID.TID 0000.0001) rotationPeriod =   /* Rotation Period ( s ) */
(PID.TID 0000.0001)                 8.640000000000000E+04
(PID.TID 0000.0001)     ;
(PID.TID 0000.0001) omega =   /* Angular velocity ( rad/s ) */
(PID.TID 0000.0001)                 7.272205216643039E-05
(PID.TID 0000.0001)     ;
(PID.TID 0000.0001) f0 =   /* Reference coriolis parameter ( 1/s ) */
(PID.TID 0000.0001)                 1.000000000000000E-04
(PID.TID 0000.0001)     ;
(PID.TID 0000.0001) beta =   /* Beta ( 1/(m.s) ) */
(PID.TID 0000.0001)                 1.000000000000000E-11
(PID.TID 0000.0001)     ;
(PID.TID 0000.0001) freeSurfFac =   /* Implicit free surface factor */
(PID.TID 0000.0001)                 1.000000000000000E+00
(PID.TID 0000.0001)     ;
(PID.TID 0000.0001) implicitFreeSurface =   /* Implicit free surface on/off flag */
(PID.TID 0000.0001)                   T
(PID.TID 0000.0001)     ;
(PID.TID 0000.0001) rigidLid =   /* Rigid lid on/off flag */
(PID.TID 0000.0001)                   F
(PID.TID 0000.0001)     ;
(PID.TID 0000.0001) implicSurfPress =   /* Surface Pressure implicit factor (0-1)*/
(PID.TID 0000.0001)                 1.000000000000000E+00
(PID.TID 0000.0001)     ;
(PID.TID 0000.0001) implicDiv2Dflow =   /* Barot. Flow Div. implicit factor (0-1)*/
(PID.TID 0000.0001)                 1.000000000000000E+00
(PID.TID 0000.0001)     ;
(PID.TID 0000.0001) exactConserv =   /* Exact Volume Conservation on/off flag*/
(PID.TID 0000.0001)                   T
(PID.TID 0000.0001)     ;
(PID.TID 0000.0001) uniformLin_PhiSurf =   /* use uniform Bo_surf on/off flag*/
(PID.TID 0000.0001)                   F
(PID.TID 0000.0001)     ;
(PID.TID 0000.0001) nonlinFreeSurf =   /* Non-linear Free Surf. options (-1,0,1,2,3)*/
(PID.TID 0000.0001)                       4
(PID.TID 0000.0001)     ;
(PID.TID 0000.0001)      -1,0= Off ; 1,2,3= On, 2=+rescale gU,gV, 3=+update cg2d solv.
(PID.TID 0000.0001) hFacInf =   /* lower threshold for hFac (nonlinFreeSurf only)*/
(PID.TID 0000.0001)                 2.000000000000000E-01
(PID.TID 0000.0001)     ;
(PID.TID 0000.0001) hFacSup =   /* upper threshold for hFac (nonlinFreeSurf only)*/
(PID.TID 0000.0001)                 2.000000000000000E+00
(PID.TID 0000.0001)     ;
(PID.TID 0000.0001) select_rStar =   /* r* Coordinate options (not yet implemented)*/
(PID.TID 0000.0001)                       2
(PID.TID 0000.0001)     ;
(PID.TID 0000.0001) useRealFreshWaterFlux =   /* Real Fresh Water Flux on/off flag*/
(PID.TID 0000.0001)                   F
(PID.TID 0000.0001)     ;
(PID.TID 0000.0001) convertFW2Salt = /* convert F.W. Flux to Salt Flux (-1=use local S)(ppt)*/
(PID.TID 0000.0001)                 3.500000000000000E+01
(PID.TID 0000.0001)     ;
(PID.TID 0000.0001) nonHydrostatic =  /* Non-Hydrostatic on/off flag */
(PID.TID 0000.0001)                   F
(PID.TID 0000.0001)     ;
(PID.TID 0000.0001) momStepping =  /* Momentum equation on/off flag */
(PID.TID 0000.0001)                   T
(PID.TID 0000.0001)     ;
(PID.TID 0000.0001) momAdvection =  /* Momentum advection on/off flag */
(PID.TID 0000.0001)                   T
(PID.TID 0000.0001)     ;
(PID.TID 0000.0001) momViscosity =  /* Momentum viscosity on/off flag */
(PID.TID 0000.0001)                   T
(PID.TID 0000.0001)     ;
(PID.TID 0000.0001) momImplVertAdv =/* Momentum implicit vert. advection on/off*/
(PID.TID 0000.0001)                   F
(PID.TID 0000.0001)     ;
(PID.TID 0000.0001) implicitViscosity = /* Implicit viscosity on/off flag */
(PID.TID 0000.0001)                   F
(PID.TID 0000.0001)     ;
(PID.TID 0000.0001) useCoriolis =  /* Coriolis on/off flag */
(PID.TID 0000.0001)                   T
(PID.TID 0000.0001)     ;
(PID.TID 0000.0001) useCDscheme =  /* CD scheme on/off flag */
(PID.TID 0000.0001)                   F
(PID.TID 0000.0001)     ;
(PID.TID 0000.0001) useJamartWetPoints= /* Coriolis WetPoints method flag */
(PID.TID 0000.0001)                   T
(PID.TID 0000.0001)     ;
(PID.TID 0000.0001) useJamartMomAdv= /* V.I. Non-linear terms Jamart flag */
(PID.TID 0000.0001)                   F
(PID.TID 0000.0001)     ;
(PID.TID 0000.0001) SadournyCoriolis= /* Sadourny Coriolis discr. flag */
(PID.TID 0000.0001)                   F
(PID.TID 0000.0001)     ;
(PID.TID 0000.0001) upwindVorticity= /* Upwind bias vorticity flag */
(PID.TID 0000.0001)                   F
(PID.TID 0000.0001)     ;
(PID.TID 0000.0001) useAbsVorticity= /* Work with f+zeta in Coriolis */
(PID.TID 0000.0001)                   F
(PID.TID 0000.0001)     ;
(PID.TID 0000.0001) highOrderVorticity= /* High order interp. of vort. flag */
(PID.TID 0000.0001)                   F
(PID.TID 0000.0001)     ;
(PID.TID 0000.0001) momForcing =  /* Momentum forcing on/off flag */
(PID.TID 0000.0001)                   T
(PID.TID 0000.0001)     ;
(PID.TID 0000.0001) momPressureForcing =  /* Momentum pressure term on/off flag */
(PID.TID 0000.0001)                   T
(PID.TID 0000.0001)     ;
(PID.TID 0000.0001) staggerTimeStep =   /* Stagger time stepping on/off flag */
(PID.TID 0000.0001)                   T
(PID.TID 0000.0001)     ;
(PID.TID 0000.0001) multiDimAdvection =   /* enable/disable Multi-Dim Advection */
(PID.TID 0000.0001)                   T
(PID.TID 0000.0001)     ;
(PID.TID 0000.0001) useMultiDimAdvec =   /* Multi-Dim Advection is/is-not used */
(PID.TID 0000.0001)                   F
(PID.TID 0000.0001)     ;
(PID.TID 0000.0001) implicitDiffusion =/* Implicit Diffusion on/off flag */
(PID.TID 0000.0001)                   F
(PID.TID 0000.0001)     ;
(PID.TID 0000.0001) tempStepping =  /* Temperature equation on/off flag */
(PID.TID 0000.0001)                   T
(PID.TID 0000.0001)     ;
(PID.TID 0000.0001) tempAdvection=  /* Temperature advection on/off flag */
(PID.TID 0000.0001)                   T
(PID.TID 0000.0001)     ;
(PID.TID 0000.0001) tempImplVertAdv =/* Temp. implicit vert. advection on/off */
(PID.TID 0000.0001)                   F
(PID.TID 0000.0001)     ;
(PID.TID 0000.0001) tempForcing  =  /* Temperature forcing on/off flag */
(PID.TID 0000.0001)                   T
(PID.TID 0000.0001)     ;
(PID.TID 0000.0001) saltStepping =  /* Salinity equation on/off flag */
(PID.TID 0000.0001)                   T
(PID.TID 0000.0001)     ;
(PID.TID 0000.0001) saltAdvection=  /* Salinity advection on/off flag */
(PID.TID 0000.0001)                   T
(PID.TID 0000.0001)     ;
(PID.TID 0000.0001) saltImplVertAdv =/* Sali. implicit vert. advection on/off */
(PID.TID 0000.0001)                   F
(PID.TID 0000.0001)     ;
(PID.TID 0000.0001) saltForcing  =  /* Salinity forcing on/off flag */
(PID.TID 0000.0001)                   T
(PID.TID 0000.0001)     ;
(PID.TID 0000.0001) //
(PID.TID 0000.0001) // Elliptic solver(s) paramters ( PARM02 in namelist )
(PID.TID 0000.0001) //
(PID.TID 0000.0001) cg2dMaxIters =   /* Upper limit on 2d con. grad iterations  */
(PID.TID 0000.0001)                     200
(PID.TID 0000.0001)     ;
(PID.TID 0000.0001) cg2dChkResFreq =   /* 2d con. grad convergence test frequency */
(PID.TID 0000.0001)                       1
(PID.TID 0000.0001)     ;
(PID.TID 0000.0001) cg2dTargetResidual =   /* 2d con. grad target residual  */
(PID.TID 0000.0001)                 1.000000000000000E-07
(PID.TID 0000.0001)     ;
(PID.TID 0000.0001) cg2dTargetResWunit =   /* CG2d target residual [W units] */
(PID.TID 0000.0001)                 1.000000000000000E-17
(PID.TID 0000.0001)     ;
(PID.TID 0000.0001) cg2dPreCondFreq =   /* Freq. for updating cg2d preconditioner */
(PID.TID 0000.0001)                       1
(PID.TID 0000.0001)     ;
(PID.TID 0000.0001) //
(PID.TID 0000.0001) // Time stepping paramters ( PARM03 in namelist )
(PID.TID 0000.0001) //
(PID.TID 0000.0001) nIter0 =   /* Base timestep number  */
(PID.TID 0000.0001)                       0
(PID.TID 0000.0001)     ;
(PID.TID 0000.0001) nTimeSteps =   /* Number of timesteps */
(PID.TID 0000.0001)                      40
(PID.TID 0000.0001)     ;
(PID.TID 0000.0001) deltatTmom =   /* Momentum equation timestep ( s ) */
(PID.TID 0000.0001)                 4.500000000000000E+02
(PID.TID 0000.0001)     ;
(PID.TID 0000.0001) deltaTfreesurf =   /* FreeSurface equation timestep ( s ) */
(PID.TID 0000.0001)                 4.500000000000000E+02
(PID.TID 0000.0001)     ;
(PID.TID 0000.0001) deltatTtracer =   /* Tracer equation timestep ( s ) */
(PID.TID 0000.0001)                 4.500000000000000E+02
(PID.TID 0000.0001)     ;
(PID.TID 0000.0001) deltatTClock  =   /* Model clock timestep ( s ) */
(PID.TID 0000.0001)                 4.500000000000000E+02
(PID.TID 0000.0001)     ;
(PID.TID 0000.0001) cAdjFreq =   /* Convective adjustment interval ( s ) */
(PID.TID 0000.0001)                 0.000000000000000E+00
(PID.TID 0000.0001)     ;
(PID.TID 0000.0001) forcing_In_AB =   /* put T,S Forcing in Adams-Bash. stepping */
(PID.TID 0000.0001)                   F
(PID.TID 0000.0001)     ;
(PID.TID 0000.0001) abeps =   /* Adams-Bashforth stabilizing weight */
(PID.TID 0000.0001)                 1.000000000000000E-01
(PID.TID 0000.0001)     ;
(PID.TID 0000.0001) startTime =   /* Run start time ( s ). */
(PID.TID 0000.0001)                 0.000000000000000E+00
(PID.TID 0000.0001)     ;
(PID.TID 0000.0001) endTime =   /* Integration ending time ( s ). */
(PID.TID 0000.0001)                 1.800000000000000E+04
(PID.TID 0000.0001)     ;
(PID.TID 0000.0001) pChkPtFreq =   /* Permanent restart/checkpoint file interval ( s ). */
(PID.TID 0000.0001)                 2.592000000000000E+06
(PID.TID 0000.0001)     ;
(PID.TID 0000.0001) chkPtFreq =   /* Rolling restart/checkpoint file interval ( s ). */
(PID.TID 0000.0001)                 0.000000000000000E+00
(PID.TID 0000.0001)     ;
(PID.TID 0000.0001) pickup_write_mdsio =   /* Model IO flag. */
(PID.TID 0000.0001)                   T
(PID.TID 0000.0001)     ;
(PID.TID 0000.0001) pickup_read_mdsio =   /* Model IO flag. */
(PID.TID 0000.0001)                   T
(PID.TID 0000.0001)     ;
(PID.TID 0000.0001) pickup_write_immed =   /* Model IO flag. */
(PID.TID 0000.0001)                   F
(PID.TID 0000.0001)     ;
(PID.TID 0000.0001) dumpFreq =   /* Model state write out interval ( s ). */
(PID.TID 0000.0001)                 2.592000000000000E+06
(PID.TID 0000.0001)     ;
(PID.TID 0000.0001) snapshot_mdsio =   /* Model IO flag. */
(PID.TID 0000.0001)                   F
(PID.TID 0000.0001)     ;
(PID.TID 0000.0001) monitorFreq =   /* Monitor output interval ( s ). */
(PID.TID 0000.0001)                 1.000000000000000E+00
(PID.TID 0000.0001)     ;
(PID.TID 0000.0001) monitor_stdio =   /* Model IO flag. */
(PID.TID 0000.0001)                   T
(PID.TID 0000.0001)     ;
(PID.TID 0000.0001) externForcingPeriod =   /* forcing period (s) */
(PID.TID 0000.0001)                 0.000000000000000E+00
(PID.TID 0000.0001)     ;
(PID.TID 0000.0001) externForcingCycle =   /* period of the cyle (s). */
(PID.TID 0000.0001)                 0.000000000000000E+00
(PID.TID 0000.0001)     ;
(PID.TID 0000.0001) tauThetaClimRelax =   /* relaxation time scale (s) */
(PID.TID 0000.0001)                 0.000000000000000E+00
(PID.TID 0000.0001)     ;
(PID.TID 0000.0001) tauSaltClimRelax =   /* relaxation time scale (s) */
(PID.TID 0000.0001)                 0.000000000000000E+00
(PID.TID 0000.0001)     ;
(PID.TID 0000.0001) latBandClimRelax =   /* max. Lat. where relaxation */
(PID.TID 0000.0001)                 1.800000000000000E+02
(PID.TID 0000.0001)     ;
(PID.TID 0000.0001) //
(PID.TID 0000.0001) // Gridding paramters ( PARM04 in namelist )
(PID.TID 0000.0001) //
(PID.TID 0000.0001) usingCartesianGrid =   /* Cartesian coordinates flag ( True / False ) */
(PID.TID 0000.0001)                   F
(PID.TID 0000.0001)     ;
(PID.TID 0000.0001) usingSphericalPolarGrid =   /* Spherical coordinates flag ( True / False ) */
(PID.TID 0000.0001)                   F
(PID.TID 0000.0001)     ;
(PID.TID 0000.0001) usingCylindricalGrid =   /* Spherical coordinates flag ( True / False ) */
(PID.TID 0000.0001)                   F
(PID.TID 0000.0001)     ;
(PID.TID 0000.0001) groundAtK1 =   /* Lower Boundary (ground) at the surface(k=1) ( T / F ) */
(PID.TID 0000.0001)                   T
(PID.TID 0000.0001)     ;
(PID.TID 0000.0001) Ro_SeaLevel =   /* r(1) ( units of r ) */
(PID.TID 0000.0001)                 1.000000000000000E+05
(PID.TID 0000.0001)     ;
(PID.TID 0000.0001) rkFac =   /* minus Vertical index orientation  */
(PID.TID 0000.0001)                 1.000000000000000E+00
(PID.TID 0000.0001)     ;
(PID.TID 0000.0001) horiVertRatio =   /* Ratio on units : Horiz - Vertical */
(PID.TID 0000.0001)                 9.810000000000000E+00
(PID.TID 0000.0001)     ;
(PID.TID 0000.0001) drC =   /* C spacing ( units of r ) */
(PID.TID 0000.0001)                 5.000000000000000E+03,      /* K =  1 */
(PID.TID 0000.0001)                 1.750000000000000E+04,      /* K =  2 */
(PID.TID 0000.0001)                 2.750000000000000E+04,      /* K =  3 */
(PID.TID 0000.0001)                 2.500000000000000E+04,      /* K =  4 */
(PID.TID 0000.0001)                 1.750000000000000E+04       /* K =  5 */
(PID.TID 0000.0001)     ;
(PID.TID 0000.0001) drF =   /* W spacing ( units of r ) */
(PID.TID 0000.0001)                 1.000000000000000E+04,      /* K =  1 */
(PID.TID 0000.0001)                 2.500000000000000E+04,      /* K =  2 */
(PID.TID 0000.0001)                 3.000000000000000E+04,      /* K =  3 */
(PID.TID 0000.0001)                 2.000000000000000E+04,      /* K =  4 */
(PID.TID 0000.0001)                 1.500000000000000E+04       /* K =  5 */
(PID.TID 0000.0001)     ;
(PID.TID 0000.0001) delX =   /* U spacing ( m - cartesian, degrees - spherical ) */
(PID.TID 0000.0001)   192 @  1.234567000000000E+05              /* I =  1:192 */
(PID.TID 0000.0001)     ;
(PID.TID 0000.0001) delY =   /* V spacing ( m - cartesian, degrees - spherical ) */
(PID.TID 0000.0001)    32 @  1.234567000000000E+05              /* J =  1: 32 */
(PID.TID 0000.0001)     ;
(PID.TID 0000.0001) phiMin =    /* South edge (ignored - cartesian, degrees - spherical ) */
(PID.TID 0000.0001)                 0.000000000000000E+00
(PID.TID 0000.0001)     ;
(PID.TID 0000.0001) thetaMin =    /* West edge ( ignored - cartesian, degrees - spherical ) */
(PID.TID 0000.0001)                 0.000000000000000E+00
(PID.TID 0000.0001)     ;
(PID.TID 0000.0001) rSphere =    /* Radius ( ignored - cartesian, m - spherical ) */
(PID.TID 0000.0001)                 6.370000000000000E+06
(PID.TID 0000.0001)     ;
(PID.TID 0000.0001) xcoord =   /* P-point X coord ( m - cartesian, degrees - spherical ) */
(PID.TID 0000.0001)                -4.439521994760536E+01,      /* I =  1 */
(PID.TID 0000.0001)                -4.295641272275884E+01,      /* I =  2 */
(PID.TID 0000.0001)                -4.122055553388957E+01,      /* I =  3 */
(PID.TID 0000.0001)                -3.923446288487304E+01,      /* I =  4 */
(PID.TID 0000.0001)                -3.702585158682200E+01,      /* I =  5 */
(PID.TID 0000.0001)                -3.461179367094151E+01,      /* I =  6 */
(PID.TID 0000.0001)                -3.200434569041793E+01,      /* I =  7 */
(PID.TID 0000.0001)                -2.921355965632675E+01,      /* I =  8 */
(PID.TID 0000.0001)                -2.624932223028289E+01,      /* I =  9 */
(PID.TID 0000.0001)                -2.312261250426344E+01,      /* I = 10 */
(PID.TID 0000.0001)                -1.984640717127058E+01,      /* I = 11 */
(PID.TID 0000.0001)                -1.643630800555134E+01,      /* I = 12 */
(PID.TID 0000.0001)                -1.291089806302069E+01,      /* I = 13 */
(PID.TID 0000.0001)                -9.291807802719402E+00,      /* I = 14 */
(PID.TID 0000.0001)                -5.603475335822333E+00,      /* I = 15 */
(PID.TID 0000.0001)                -1.872608513033445E+00,      /* I = 16 */
(PID.TID 0000.0001)                 1.872608513033445E+00,      /* I = 17 */
(PID.TID 0000.0001)                 5.603475335822333E+00,      /* I = 18 */
(PID.TID 0000.0001)                 9.291807802719402E+00,      /* I = 19 */
(PID.TID 0000.0001)                 1.291089806302069E+01,      /* I = 20 */
(PID.TID 0000.0001)                 1.643630800555134E+01,      /* I = 21 */
(PID.TID 0000.0001)                 1.984640717127058E+01,      /* I = 22 */
(PID.TID 0000.0001)                 2.312261250426344E+01,      /* I = 23 */
(PID.TID 0000.0001)                 2.624932223028289E+01,      /* I = 24 */
(PID.TID 0000.0001)                 2.921355965632675E+01,      /* I = 25 */
(PID.TID 0000.0001)                 3.200434569041793E+01,      /* I = 26 */
(PID.TID 0000.0001)                 3.461179367094151E+01,      /* I = 27 */
(PID.TID 0000.0001)                 3.702585158682200E+01,      /* I = 28 */
(PID.TID 0000.0001)                 3.923446288487304E+01,      /* I = 29 */
(PID.TID 0000.0001)                 4.122055553388957E+01,      /* I = 30 */
(PID.TID 0000.0001)                 4.295641272275884E+01,      /* I = 31 */
(PID.TID 0000.0001)                 4.439521994760536E+01,      /* I = 32 */
(PID.TID 0000.0001)                 4.560478005239465E+01,      /* I = 33 */
(PID.TID 0000.0001)                 4.704358727724117E+01,      /* I = 34 */
(PID.TID 0000.0001)                 4.877944446611044E+01,      /* I = 35 */
(PID.TID 0000.0001)                 5.076553711512697E+01,      /* I = 36 */
(PID.TID 0000.0001)                 5.297414841317801E+01,      /* I = 37 */
(PID.TID 0000.0001)                 5.538820632905850E+01,      /* I = 38 */
(PID.TID 0000.0001)                 5.799565430958209E+01,      /* I = 39 */
(PID.TID 0000.0001)                 6.078644034367325E+01,      /* I = 40 */
(PID.TID 0000.0001)                 6.375067776971711E+01,      /* I = 41 */
(PID.TID 0000.0001)                 6.687738749573657E+01,      /* I = 42 */
(PID.TID 0000.0001)                 7.015359282872943E+01,      /* I = 43 */
(PID.TID 0000.0001)                 7.356369199444866E+01,      /* I = 44 */
(PID.TID 0000.0001)                 7.708910193697932E+01,      /* I = 45 */
(PID.TID 0000.0001)                 8.070819219728059E+01,      /* I = 46 */
(PID.TID 0000.0001)                 8.439652466417765E+01,      /* I = 47 */
(PID.TID 0000.0001)                 8.812739148696655E+01,      /* I = 48 */
(PID.TID 0000.0001)                 9.187260851303344E+01,      /* I = 49 */
(PID.TID 0000.0001)                 9.560347533582234E+01,      /* I = 50 */
(PID.TID 0000.0001)                 9.929180780271940E+01,      /* I = 51 */
(PID.TID 0000.0001)                 1.029108980630207E+02,      /* I = 52 */
(PID.TID 0000.0001)                 1.064363080055513E+02,      /* I = 53 */
(PID.TID 0000.0001)                 1.098464071712706E+02,      /* I = 54 */
(PID.TID 0000.0001)                 1.131226125042634E+02,      /* I = 55 */
(PID.TID 0000.0001)                 1.162493222302829E+02,      /* I = 56 */
(PID.TID 0000.0001)                 1.192135596563268E+02,      /* I = 57 */
(PID.TID 0000.0001)                 1.220043456904179E+02,      /* I = 58 */
(PID.TID 0000.0001)                 1.246117936709415E+02,      /* I = 59 */
(PID.TID 0000.0001)                 1.270258515868220E+02,      /* I = 60 */
(PID.TID 0000.0001)                 1.292344628848730E+02,      /* I = 61 */
(PID.TID 0000.0001)                 1.312205555338896E+02,      /* I = 62 */
(PID.TID 0000.0001)                 1.329564127227588E+02,      /* I = 63 */
(PID.TID 0000.0001)                 1.343952199476053E+02,      /* I = 64 */
(PID.TID 0000.0001)                 4.500000000000000E+01,      /* I = 65 */
(PID.TID 0000.0001)                 4.620805468796297E+01,      /* I = 66 */
(PID.TID 0000.0001)                 4.781369642513039E+01,      /* I = 67 */
(PID.TID 0000.0001)                 4.971767671143929E+01,      /* I = 68 */
(PID.TID 0000.0001)                 5.187738319787235E+01,      /* I = 69 */
(PID.TID 0000.0001)                 5.427004371478711E+01,      /* I = 70 */
(PID.TID 0000.0001)                 5.688128325334060E+01,      /* I = 71 */
(PID.TID 0000.0001)                 5.970018167786760E+01,      /* I = 72 */
(PID.TID 0000.0001)                 6.271654991792348E+01,      /* I = 73 */
(PID.TID 0000.0001)                 6.591914604853015E+01,      /* I = 74 */
(PID.TID 0000.0001)                 6.929439270484149E+01,      /* I = 75 */
(PID.TID 0000.0001)                 7.282545807616151E+01,      /* I = 76 */
(PID.TID 0000.0001)                 7.649168830618934E+01,      /* I = 77 */
(PID.TID 0000.0001)                 8.026842803787175E+01,      /* I = 78 */
(PID.TID 0000.0001)                 8.412726743124185E+01,      /* I = 79 */
(PID.TID 0000.0001)                 8.803672008547504E+01,      /* I = 80 */
(PID.TID 0000.0001)                 9.196327991452495E+01,      /* I = 81 */
(PID.TID 0000.0001)                 9.587273256875814E+01,      /* I = 82 */
(PID.TID 0000.0001)                 9.973157196212824E+01,      /* I = 83 */
(PID.TID 0000.0001)                 1.035083116938107E+02,      /* I = 84 */
(PID.TID 0000.0001)                 1.071745419238385E+02,      /* I = 85 */
(PID.TID 0000.0001)                 1.107056072951585E+02,      /* I = 86 */
(PID.TID 0000.0001)                 1.140808539514698E+02,      /* I = 87 */
(PID.TID 0000.0001)                 1.172834500820765E+02,      /* I = 88 */
(PID.TID 0000.0001)                 1.202998183221324E+02,      /* I = 89 */
(PID.TID 0000.0001)                 1.231187167466594E+02,      /* I = 90 */
(PID.TID 0000.0001)                 1.257299562852129E+02,      /* I = 91 */
(PID.TID 0000.0001)                 1.281226168021276E+02,      /* I = 92 */
(PID.TID 0000.0001)                 1.302823232885607E+02,      /* I = 93 */
(PID.TID 0000.0001)                 1.321863035748696E+02,      /* I = 94 */
(PID.TID 0000.0001)                 1.337919453120370E+02,      /* I = 95 */
(PID.TID 0000.0001)                 1.350000000000000E+02,      /* I = 96 */
(PID.TID 0000.0001)                 1.356047800523947E+02,      /* I = 97 */
(PID.TID 0000.0001)                 1.358367907661329E+02,      /* I = 98 */
(PID.TID 0000.0001)                 1.359720382181193E+02,      /* I = 99 */
(PID.TID 0000.0001)                 1.360654656901789E+02,      /* I =100 */
(PID.TID 0000.0001)                 1.361344533147042E+02,      /* I =101 */
(PID.TID 0000.0001)                 1.361871219420981E+02,      /* I =102 */
(PID.TID 0000.0001)                 1.362280794509603E+02,      /* I =103 */
(PID.TID 0000.0001)                 1.362602511071934E+02,      /* I =104 */
(PID.TID 0000.0001)                 1.362856280326734E+02,      /* I =105 */
(PID.TID 0000.0001)                 1.363056266270901E+02,      /* I =106 */
(PID.TID 0000.0001)                 1.363212817739446E+02,      /* I =107 */
(PID.TID 0000.0001)                 1.363333595910255E+02,      /* I =108 */
(PID.TID 0000.0001)                 1.363424272425760E+02,      /* I =109 */
(PID.TID 0000.0001)                 1.363488978790713E+02,      /* I =110 */
(PID.TID 0000.0001)                 1.363530600590580E+02,      /* I =111 */
(PID.TID 0000.0001)     2 @  1.363550967500717E+02,             /* I =112:113 */
(PID.TID 0000.0001)                 1.363530600590580E+02,      /* I =114 */
(PID.TID 0000.0001)                 1.363488978790713E+02,      /* I =115 */
(PID.TID 0000.0001)                 1.363424272425760E+02,      /* I =116 */
(PID.TID 0000.0001)                 1.363333595910255E+02,      /* I =117 */
(PID.TID 0000.0001)                 1.363212817739446E+02,      /* I =118 */
(PID.TID 0000.0001)                 1.363056266270901E+02,      /* I =119 */
(PID.TID 0000.0001)                 1.362856280326734E+02,      /* I =120 */
(PID.TID 0000.0001)                 1.362602511071934E+02,      /* I =121 */
(PID.TID 0000.0001)                 1.362280794509603E+02,      /* I =122 */
(PID.TID 0000.0001)                 1.361871219420981E+02,      /* I =123 */
(PID.TID 0000.0001)                 1.361344533147042E+02,      /* I =124 */
(PID.TID 0000.0001)                 1.360654656901789E+02,      /* I =125 */
(PID.TID 0000.0001)                 1.359720382181193E+02,      /* I =126 */
(PID.TID 0000.0001)                 1.358367907661329E+02,      /* I =127 */
(PID.TID 0000.0001)                 1.356047800523947E+02,      /* I =128 */
(PID.TID 0000.0001)                -1.343952199476053E+02,      /* I =129 */
(PID.TID 0000.0001)                -1.341632092338671E+02,      /* I =130 */
(PID.TID 0000.0001)                -1.340279617818807E+02,      /* I =131 */
(PID.TID 0000.0001)                -1.339345343098211E+02,      /* I =132 */
(PID.TID 0000.0001)                -1.338655466852957E+02,      /* I =133 */
(PID.TID 0000.0001)                -1.338128780579019E+02,      /* I =134 */
(PID.TID 0000.0001)                -1.337719205490397E+02,      /* I =135 */
(PID.TID 0000.0001)                -1.337397488928066E+02,      /* I =136 */
(PID.TID 0000.0001)                -1.337143719673266E+02,      /* I =137 */
(PID.TID 0000.0001)                -1.336943733729099E+02,      /* I =138 */
(PID.TID 0000.0001)                -1.336787182260554E+02,      /* I =139 */
(PID.TID 0000.0001)                -1.336666404089745E+02,      /* I =140 */
(PID.TID 0000.0001)                -1.336575727574240E+02,      /* I =141 */
(PID.TID 0000.0001)                -1.336511021209287E+02,      /* I =142 */
(PID.TID 0000.0001)                -1.336469399409420E+02,      /* I =143 */
(PID.TID 0000.0001)     2 @ -1.336449032499283E+02,             /* I =144:145 */
(PID.TID 0000.0001)                -1.336469399409420E+02,      /* I =146 */
(PID.TID 0000.0001)                -1.336511021209287E+02,      /* I =147 */
(PID.TID 0000.0001)                -1.336575727574240E+02,      /* I =148 */
(PID.TID 0000.0001)                -1.336666404089745E+02,      /* I =149 */
(PID.TID 0000.0001)                -1.336787182260554E+02,      /* I =150 */
(PID.TID 0000.0001)                -1.336943733729099E+02,      /* I =151 */
(PID.TID 0000.0001)                -1.337143719673266E+02,      /* I =152 */
(PID.TID 0000.0001)                -1.337397488928066E+02,      /* I =153 */
(PID.TID 0000.0001)                -1.337719205490397E+02,      /* I =154 */
(PID.TID 0000.0001)                -1.338128780579019E+02,      /* I =155 */
(PID.TID 0000.0001)                -1.338655466852957E+02,      /* I =156 */
(PID.TID 0000.0001)                -1.339345343098211E+02,      /* I =157 */
(PID.TID 0000.0001)                -1.340279617818807E+02,      /* I =158 */
(PID.TID 0000.0001)                -1.341632092338671E+02,      /* I =159 */
(PID.TID 0000.0001)                -1.343952199476053E+02,      /* I =160 */
(PID.TID 0000.0001)                -1.350000000000000E+02,      /* I =161 */
(PID.TID 0000.0001)                -1.362080546879630E+02,      /* I =162 */
(PID.TID 0000.0001)                -1.378136964251304E+02,      /* I =163 */
(PID.TID 0000.0001)                -1.397176767114393E+02,      /* I =164 */
(PID.TID 0000.0001)                -1.418773831978723E+02,      /* I =165 */
(PID.TID 0000.0001)                -1.442700437147871E+02,      /* I =166 */
(PID.TID 0000.0001)                -1.468812832533406E+02,      /* I =167 */
(PID.TID 0000.0001)                -1.497001816778676E+02,      /* I =168 */
(PID.TID 0000.0001)                -1.527165499179235E+02,      /* I =169 */
(PID.TID 0000.0001)                -1.559191460485302E+02,      /* I =170 */
(PID.TID 0000.0001)                -1.592943927048415E+02,      /* I =171 */
(PID.TID 0000.0001)                -1.628254580761615E+02,      /* I =172 */
(PID.TID 0000.0001)                -1.664916883061893E+02,      /* I =173 */
(PID.TID 0000.0001)                -1.702684280378718E+02,      /* I =174 */
(PID.TID 0000.0001)                -1.741272674312418E+02,      /* I =175 */
(PID.TID 0000.0001)                -1.780367200854751E+02,      /* I =176 */
(PID.TID 0000.0001)                 1.780367200854751E+02,      /* I =177 */
(PID.TID 0000.0001)                 1.741272674312418E+02,      /* I =178 */
(PID.TID 0000.0001)                 1.702684280378718E+02,      /* I =179 */
(PID.TID 0000.0001)                 1.664916883061893E+02,      /* I =180 */
(PID.TID 0000.0001)                 1.628254580761615E+02,      /* I =181 */
(PID.TID 0000.0001)                 1.592943927048415E+02,      /* I =182 */
(PID.TID 0000.0001)                 1.559191460485302E+02,      /* I =183 */
(PID.TID 0000.0001)                 1.527165499179235E+02,      /* I =184 */
(PID.TID 0000.0001)                 1.497001816778676E+02,      /* I =185 */
(PID.TID 0000.0001)                 1.468812832533406E+02,      /* I =186 */
(PID.TID 0000.0001)                 1.442700437147871E+02,      /* I =187 */
(PID.TID 0000.0001)                 1.418773831978723E+02,      /* I =188 */
(PID.TID 0000.0001)                 1.397176767114393E+02,      /* I =189 */
(PID.TID 0000.0001)                 1.378136964251304E+02,      /* I =190 */
(PID.TID 0000.0001)                 1.362080546879630E+02,      /* I =191 */
(PID.TID 0000.0001)                 1.350000000000000E+02       /* I =192 */
(PID.TID 0000.0001)     ;
(PID.TID 0000.0001) ycoord =   /* P-point Y coord ( m - cartesian, degrees - spherical ) */
(PID.TID 0000.0001)                -3.497677942598243E+01,      /* J =  1 */
(PID.TID 0000.0001)                -3.374005967394886E+01,      /* J =  2 */
(PID.TID 0000.0001)                -3.220655175667454E+01,      /* J =  3 */
(PID.TID 0000.0001)                -3.045756348838640E+01,      /* J =  4 */
(PID.TID 0000.0001)                -2.853728129852918E+01,      /* J =  5 */
(PID.TID 0000.0001)                -2.647426640173173E+01,      /* J =  6 */
(PID.TID 0000.0001)                -2.428936657094636E+01,      /* J =  7 */
(PID.TID 0000.0001)                -2.199915808312262E+01,      /* J =  8 */
(PID.TID 0000.0001)                -1.961768597440146E+01,      /* J =  9 */
(PID.TID 0000.0001)                -1.715743888281371E+01,      /* J = 10 */
(PID.TID 0000.0001)                -1.462993396899330E+01,      /* J = 11 */
(PID.TID 0000.0001)                -1.204608340464756E+01,      /* J = 12 */
(PID.TID 0000.0001)                -9.416429130284818E+00,      /* J = 13 */
(PID.TID 0000.0001)                -6.751293662992217E+00,      /* J = 14 */
(PID.TID 0000.0001)                -4.060875511835959E+00,      /* J = 15 */
(PID.TID 0000.0001)                -1.355307764409121E+00,      /* J = 16 */
(PID.TID 0000.0001)                 1.355307764409121E+00,      /* J = 17 */
(PID.TID 0000.0001)                 4.060875511835959E+00,      /* J = 18 */
(PID.TID 0000.0001)                 6.751293662992217E+00,      /* J = 19 */
(PID.TID 0000.0001)                 9.416429130284818E+00,      /* J = 20 */
(PID.TID 0000.0001)                 1.204608340464756E+01,      /* J = 21 */
(PID.TID 0000.0001)                 1.462993396899330E+01,      /* J = 22 */
(PID.TID 0000.0001)                 1.715743888281371E+01,      /* J = 23 */
(PID.TID 0000.0001)                 1.961768597440146E+01,      /* J = 24 */
(PID.TID 0000.0001)                 2.199915808312262E+01,      /* J = 25 */
(PID.TID 0000.0001)                 2.428936657094636E+01,      /* J = 26 */
(PID.TID 0000.0001)                 2.647426640173173E+01,      /* J = 27 */
(PID.TID 0000.0001)                 2.853728129852918E+01,      /* J = 28 */
(PID.TID 0000.0001)                 3.045756348838640E+01,      /* J = 29 */
(PID.TID 0000.0001)                 3.220655175667454E+01,      /* J = 30 */
(PID.TID 0000.0001)                 3.374005967394886E+01,      /* J = 31 */
(PID.TID 0000.0001)                 3.497677942598243E+01       /* J = 32 */
(PID.TID 0000.0001)     ;
(PID.TID 0000.0001) rcoord =   /* P-point R coordinate (  units of r ) */
(PID.TID 0000.0001)                 9.500000000000000E+04,      /* K =  1 */
(PID.TID 0000.0001)                 7.750000000000000E+04,      /* K =  2 */
(PID.TID 0000.0001)                 5.000000000000000E+04,      /* K =  3 */
(PID.TID 0000.0001)                 2.500000000000000E+04,      /* K =  4 */
(PID.TID 0000.0001)                 7.500000000000000E+03       /* K =  5 */
(PID.TID 0000.0001)     ;
(PID.TID 0000.0001) rF =   /* W-Interf. R coordinate (  units of r ) */
(PID.TID 0000.0001)                 1.000000000000000E+05,      /* K =  1 */
(PID.TID 0000.0001)                 9.000000000000000E+04,      /* K =  2 */
(PID.TID 0000.0001)                 6.500000000000000E+04,      /* K =  3 */
(PID.TID 0000.0001)                 3.500000000000000E+04,      /* K =  4 */
(PID.TID 0000.0001)                 1.500000000000000E+04,      /* K =  5 */
(PID.TID 0000.0001)                 0.000000000000000E+00       /* K =  6 */
(PID.TID 0000.0001)     ;
(PID.TID 0000.0001) dxF =  /* dxF(:,1,:,1) ( m - cartesian, degrees - spherical ) */
(PID.TID 0000.0001)                 1.202082051331828E+05,      /* I =  1 */
(PID.TID 0000.0001)                 1.563594089971120E+05,      /* I =  2 */
(PID.TID 0000.0001)                 1.835530058121492E+05,      /* I =  3 */
(PID.TID 0000.0001)                 2.045883481718707E+05,      /* I =  4 */
(PID.TID 0000.0001)                 2.218350349844184E+05,      /* I =  5 */
(PID.TID 0000.0001)                 2.364352994647058E+05,      /* I =  6 */
(PID.TID 0000.0001)                 2.490022710862746E+05,      /* I =  7 */
(PID.TID 0000.0001)                 2.598919724358304E+05,      /* I =  8 */
(PID.TID 0000.0001)                 2.693210245495156E+05,      /* I =  9 */
(PID.TID 0000.0001)                 2.774243179696503E+05,      /* I = 10 */
(PID.TID 0000.0001)                 2.842862532064523E+05,      /* I = 11 */
(PID.TID 0000.0001)                 2.899590699694043E+05,      /* I = 12 */
(PID.TID 0000.0001)                 2.944742915095688E+05,      /* I = 13 */
(PID.TID 0000.0001)                 2.978501920522793E+05,      /* I = 14 */
(PID.TID 0000.0001)                 3.000967749619962E+05,      /* I = 15 */
(PID.TID 0000.0001)     2 @  3.012190981969054E+05,             /* I = 16: 17 */
(PID.TID 0000.0001)                 3.000967749619962E+05,      /* I = 18 */
(PID.TID 0000.0001)                 2.978501920522793E+05,      /* I = 19 */
(PID.TID 0000.0001)                 2.944742915095688E+05,      /* I = 20 */
(PID.TID 0000.0001)                 2.899590699694043E+05,      /* I = 21 */
(PID.TID 0000.0001)                 2.842862532064523E+05,      /* I = 22 */
(PID.TID 0000.0001)                 2.774243179696503E+05,      /* I = 23 */
(PID.TID 0000.0001)                 2.693210245495156E+05,      /* I = 24 */
(PID.TID 0000.0001)                 2.598919724358304E+05,      /* I = 25 */
(PID.TID 0000.0001)                 2.490022710862746E+05,      /* I = 26 */
(PID.TID 0000.0001)                 2.364352994647058E+05,      /* I = 27 */
(PID.TID 0000.0001)                 2.218350349844184E+05,      /* I = 28 */
(PID.TID 0000.0001)                 2.045883481718707E+05,      /* I = 29 */
(PID.TID 0000.0001)                 1.835530058121492E+05,      /* I = 30 */
(PID.TID 0000.0001)                 1.563594089971120E+05,      /* I = 31 */
(PID.TID 0000.0001)     2 @  1.202082051331828E+05,             /* I = 32: 33 */
(PID.TID 0000.0001)                 1.563594089971120E+05,      /* I = 34 */
(PID.TID 0000.0001)                 1.835530058121492E+05,      /* I = 35 */
(PID.TID 0000.0001)                 2.045883481718707E+05,      /* I = 36 */
(PID.TID 0000.0001)                 2.218350349844184E+05,      /* I = 37 */
(PID.TID 0000.0001)                 2.364352994647058E+05,      /* I = 38 */
(PID.TID 0000.0001)                 2.490022710862746E+05,      /* I = 39 */
(PID.TID 0000.0001)                 2.598919724358304E+05,      /* I = 40 */
(PID.TID 0000.0001)                 2.693210245495156E+05,      /* I = 41 */
(PID.TID 0000.0001)                 2.774243179696503E+05,      /* I = 42 */
(PID.TID 0000.0001)                 2.842862532064523E+05,      /* I = 43 */
(PID.TID 0000.0001)                 2.899590699694043E+05,      /* I = 44 */
(PID.TID 0000.0001)                 2.944742915095688E+05,      /* I = 45 */
(PID.TID 0000.0001)                 2.978501920522793E+05,      /* I = 46 */
(PID.TID 0000.0001)                 3.000967749619962E+05,      /* I = 47 */
(PID.TID 0000.0001)     2 @  3.012190981969054E+05,             /* I = 48: 49 */
(PID.TID 0000.0001)                 3.000967749619962E+05,      /* I = 50 */
(PID.TID 0000.0001)                 2.978501920522793E+05,      /* I = 51 */
(PID.TID 0000.0001)                 2.944742915095688E+05,      /* I = 52 */
(PID.TID 0000.0001)                 2.899590699694043E+05,      /* I = 53 */
(PID.TID 0000.0001)                 2.842862532064523E+05,      /* I = 54 */
(PID.TID 0000.0001)                 2.774243179696503E+05,      /* I = 55 */
(PID.TID 0000.0001)                 2.693210245495156E+05,      /* I = 56 */
(PID.TID 0000.0001)                 2.598919724358304E+05,      /* I = 57 */
(PID.TID 0000.0001)                 2.490022710862746E+05,      /* I = 58 */
(PID.TID 0000.0001)                 2.364352994647058E+05,      /* I = 59 */
(PID.TID 0000.0001)                 2.218350349844184E+05,      /* I = 60 */
(PID.TID 0000.0001)                 2.045883481718707E+05,      /* I = 61 */
(PID.TID 0000.0001)                 1.835530058121492E+05,      /* I = 62 */
(PID.TID 0000.0001)                 1.563594089971120E+05,      /* I = 63 */
(PID.TID 0000.0001)     2 @  1.202082051331828E+05,             /* I = 64: 65 */
(PID.TID 0000.0001)                 1.563594089971120E+05,      /* I = 66 */
(PID.TID 0000.0001)                 1.835530058121492E+05,      /* I = 67 */
(PID.TID 0000.0001)                 2.045883481718707E+05,      /* I = 68 */
(PID.TID 0000.0001)                 2.218350349844184E+05,      /* I = 69 */
(PID.TID 0000.0001)                 2.364352994647058E+05,      /* I = 70 */
(PID.TID 0000.0001)                 2.490022710862746E+05,      /* I = 71 */
(PID.TID 0000.0001)                 2.598919724358304E+05,      /* I = 72 */
(PID.TID 0000.0001)                 2.693210245495156E+05,      /* I = 73 */
(PID.TID 0000.0001)                 2.774243179696503E+05,      /* I = 74 */
(PID.TID 0000.0001)                 2.842862532064523E+05,      /* I = 75 */
(PID.TID 0000.0001)                 2.899590699694043E+05,      /* I = 76 */
(PID.TID 0000.0001)                 2.944742915095688E+05,      /* I = 77 */
(PID.TID 0000.0001)                 2.978501920522793E+05,      /* I = 78 */
(PID.TID 0000.0001)                 3.000967749619962E+05,      /* I = 79 */
(PID.TID 0000.0001)     2 @  3.012190981969054E+05,             /* I = 80: 81 */
(PID.TID 0000.0001)                 3.000967749619962E+05,      /* I = 82 */
(PID.TID 0000.0001)                 2.978501920522793E+05,      /* I = 83 */
(PID.TID 0000.0001)                 2.944742915095688E+05,      /* I = 84 */
(PID.TID 0000.0001)                 2.899590699694043E+05,      /* I = 85 */
(PID.TID 0000.0001)                 2.842862532064523E+05,      /* I = 86 */
(PID.TID 0000.0001)                 2.774243179696503E+05,      /* I = 87 */
(PID.TID 0000.0001)                 2.693210245495156E+05,      /* I = 88 */
(PID.TID 0000.0001)                 2.598919724358304E+05,      /* I = 89 */
(PID.TID 0000.0001)                 2.490022710862746E+05,      /* I = 90 */
(PID.TID 0000.0001)                 2.364352994647058E+05,      /* I = 91 */
(PID.TID 0000.0001)                 2.218350349844184E+05,      /* I = 92 */
(PID.TID 0000.0001)                 2.045883481718707E+05,      /* I = 93 */
(PID.TID 0000.0001)                 1.835530058121492E+05,      /* I = 94 */
(PID.TID 0000.0001)                 1.563594089971120E+05,      /* I = 95 */
(PID.TID 0000.0001)     2 @  1.202082051331828E+05,             /* I = 96: 97 */
(PID.TID 0000.0001)                 1.563594089971120E+05,      /* I = 98 */
(PID.TID 0000.0001)                 1.835530058121492E+05,      /* I = 99 */
(PID.TID 0000.0001)                 2.045883481718707E+05,      /* I =100 */
(PID.TID 0000.0001)                 2.218350349844184E+05,      /* I =101 */
(PID.TID 0000.0001)                 2.364352994647058E+05,      /* I =102 */
(PID.TID 0000.0001)                 2.490022710862746E+05,      /* I =103 */
(PID.TID 0000.0001)                 2.598919724358304E+05,      /* I =104 */
(PID.TID 0000.0001)                 2.693210245495156E+05,      /* I =105 */
(PID.TID 0000.0001)                 2.774243179696503E+05,      /* I =106 */
(PID.TID 0000.0001)                 2.842862532064523E+05,      /* I =107 */
(PID.TID 0000.0001)                 2.899590699694043E+05,      /* I =108 */
(PID.TID 0000.0001)                 2.944742915095688E+05,      /* I =109 */
(PID.TID 0000.0001)                 2.978501920522793E+05,      /* I =110 */
(PID.TID 0000.0001)                 3.000967749619962E+05,      /* I =111 */
(PID.TID 0000.0001)     2 @  3.012190981969054E+05,             /* I =112:113 */
(PID.TID 0000.0001)                 3.000967749619962E+05,      /* I =114 */
(PID.TID 0000.0001)                 2.978501920522793E+05,      /* I =115 */
(PID.TID 0000.0001)                 2.944742915095688E+05,      /* I =116 */
(PID.TID 0000.0001)                 2.899590699694043E+05,      /* I =117 */
(PID.TID 0000.0001)                 2.842862532064523E+05,      /* I =118 */
(PID.TID 0000.0001)                 2.774243179696503E+05,      /* I =119 */
(PID.TID 0000.0001)                 2.693210245495156E+05,      /* I =120 */
(PID.TID 0000.0001)                 2.598919724358304E+05,      /* I =121 */
(PID.TID 0000.0001)                 2.490022710862746E+05,      /* I =122 */
(PID.TID 0000.0001)                 2.364352994647058E+05,      /* I =123 */
(PID.TID 0000.0001)                 2.218350349844184E+05,      /* I =124 */
(PID.TID 0000.0001)                 2.045883481718707E+05,      /* I =125 */
(PID.TID 0000.0001)                 1.835530058121492E+05,      /* I =126 */
(PID.TID 0000.0001)                 1.563594089971120E+05,      /* I =127 */
(PID.TID 0000.0001)     2 @  1.202082051331828E+05,             /* I =128:129 */
(PID.TID 0000.0001)                 1.563594089971120E+05,      /* I =130 */
(PID.TID 0000.0001)                 1.835530058121492E+05,      /* I =131 */
(PID.TID 0000.0001)                 2.045883481718707E+05,      /* I =132 */
(PID.TID 0000.0001)                 2.218350349844184E+05,      /* I =133 */
(PID.TID 0000.0001)                 2.364352994647058E+05,      /* I =134 */
(PID.TID 0000.0001)                 2.490022710862746E+05,      /* I =135 */
(PID.TID 0000.0001)                 2.598919724358304E+05,      /* I =136 */
(PID.TID 0000.0001)                 2.693210245495156E+05,      /* I =137 */
(PID.TID 0000.0001)                 2.774243179696503E+05,      /* I =138 */
(PID.TID 0000.0001)                 2.842862532064523E+05,      /* I =139 */
(PID.TID 0000.0001)                 2.899590699694043E+05,      /* I =140 */
(PID.TID 0000.0001)                 2.944742915095688E+05,      /* I =141 */
(PID.TID 0000.0001)                 2.978501920522793E+05,      /* I =142 */
(PID.TID 0000.0001)                 3.000967749619962E+05,      /* I =143 */
(PID.TID 0000.0001)     2 @  3.012190981969054E+05,             /* I =144:145 */
(PID.TID 0000.0001)                 3.000967749619962E+05,      /* I =146 */
(PID.TID 0000.0001)                 2.978501920522793E+05,      /* I =147 */
(PID.TID 0000.0001)                 2.944742915095688E+05,      /* I =148 */
(PID.TID 0000.0001)                 2.899590699694043E+05,      /* I =149 */
(PID.TID 0000.0001)                 2.842862532064523E+05,      /* I =150 */
(PID.TID 0000.0001)                 2.774243179696503E+05,      /* I =151 */
(PID.TID 0000.0001)                 2.693210245495156E+05,      /* I =152 */
(PID.TID 0000.0001)                 2.598919724358304E+05,      /* I =153 */
(PID.TID 0000.0001)                 2.490022710862746E+05,      /* I =154 */
(PID.TID 0000.0001)                 2.364352994647058E+05,      /* I =155 */
(PID.TID 0000.0001)                 2.218350349844184E+05,      /* I =156 */
(PID.TID 0000.0001)                 2.045883481718707E+05,      /* I =157 */
(PID.TID 0000.0001)                 1.835530058121492E+05,      /* I =158 */
(PID.TID 0000.0001)                 1.563594089971120E+05,      /* I =159 */
(PID.TID 0000.0001)     2 @  1.202082051331828E+05,             /* I =160:161 */
(PID.TID 0000.0001)                 1.563594089971120E+05,      /* I =162 */
(PID.TID 0000.0001)                 1.835530058121492E+05,      /* I =163 */
(PID.TID 0000.0001)                 2.045883481718707E+05,      /* I =164 */
(PID.TID 0000.0001)                 2.218350349844184E+05,      /* I =165 */
(PID.TID 0000.0001)                 2.364352994647058E+05,      /* I =166 */
(PID.TID 0000.0001)                 2.490022710862746E+05,      /* I =167 */
(PID.TID 0000.0001)                 2.598919724358304E+05,      /* I =168 */
(PID.TID 0000.0001)                 2.693210245495156E+05,      /* I =169 */
(PID.TID 0000.0001)                 2.774243179696503E+05,      /* I =170 */
(PID.TID 0000.0001)                 2.842862532064523E+05,      /* I =171 */
(PID.TID 0000.0001)                 2.899590699694043E+05,      /* I =172 */
(PID.TID 0000.0001)                 2.944742915095688E+05,      /* I =173 */
(PID.TID 0000.0001)                 2.978501920522793E+05,      /* I =174 */
(PID.TID 0000.0001)                 3.000967749619962E+05,      /* I =175 */
(PID.TID 0000.0001)     2 @  3.012190981969054E+05,             /* I =176:177 */
(PID.TID 0000.0001)                 3.000967749619962E+05,      /* I =178 */
(PID.TID 0000.0001)                 2.978501920522793E+05,      /* I =179 */
(PID.TID 0000.0001)                 2.944742915095688E+05,      /* I =180 */
(PID.TID 0000.0001)                 2.899590699694043E+05,      /* I =181 */
(PID.TID 0000.0001)                 2.842862532064523E+05,      /* I =182 */
(PID.TID 0000.0001)                 2.774243179696503E+05,      /* I =183 */
(PID.TID 0000.0001)                 2.693210245495156E+05,      /* I =184 */
(PID.TID 0000.0001)                 2.598919724358304E+05,      /* I =185 */
(PID.TID 0000.0001)                 2.490022710862746E+05,      /* I =186 */
(PID.TID 0000.0001)                 2.364352994647058E+05,      /* I =187 */
(PID.TID 0000.0001)                 2.218350349844184E+05,      /* I =188 */
(PID.TID 0000.0001)                 2.045883481718707E+05,      /* I =189 */
(PID.TID 0000.0001)                 1.835530058121492E+05,      /* I =190 */
(PID.TID 0000.0001)                 1.563594089971120E+05,      /* I =191 */
(PID.TID 0000.0001)                 1.202082051331828E+05       /* I =192 */
(PID.TID 0000.0001)     ;
(PID.TID 0000.0001) dxF =  /* dxF(1,:,1,:) ( m - cartesian, degrees - spherical ) */
(PID.TID 0000.0001)                 1.202082051331828E+05,      /* J =  1 */
(PID.TID 0000.0001)                 1.572908084538706E+05,      /* J =  2 */
(PID.TID 0000.0001)                 1.840412227747703E+05,      /* J =  3 */
(PID.TID 0000.0001)                 2.048868197919576E+05,      /* J =  4 */
(PID.TID 0000.0001)                 2.220405216043041E+05,      /* J =  5 */
(PID.TID 0000.0001)                 2.365892017348392E+05,      /* J =  6 */
(PID.TID 0000.0001)                 2.491250781852558E+05,      /* J =  7 */
(PID.TID 0000.0001)                 2.599949918261880E+05,      /* J =  8 */
(PID.TID 0000.0001)                 2.694110134598581E+05,      /* J =  9 */
(PID.TID 0000.0001)                 2.775055554645015E+05,      /* J = 10 */
(PID.TID 0000.0001)                 2.843615645344775E+05,      /* J = 11 */
(PID.TID 0000.0001)                 2.900303768613598E+05,      /* J = 12 */
(PID.TID 0000.0001)                 2.945429307892709E+05,      /* J = 13 */
(PID.TID 0000.0001)                 2.979171143158405E+05,      /* J = 14 */
(PID.TID 0000.0001)                 3.001626787528886E+05,      /* J = 15 */
(PID.TID 0000.0001)     2 @  3.012844832048790E+05,             /* J = 16: 17 */
(PID.TID 0000.0001)                 3.001626787528886E+05,      /* J = 18 */
(PID.TID 0000.0001)                 2.979171143158405E+05,      /* J = 19 */
(PID.TID 0000.0001)                 2.945429307892709E+05,      /* J = 20 */
(PID.TID 0000.0001)                 2.900303768613598E+05,      /* J = 21 */
(PID.TID 0000.0001)                 2.843615645344775E+05,      /* J = 22 */
(PID.TID 0000.0001)                 2.775055554645015E+05,      /* J = 23 */
(PID.TID 0000.0001)                 2.694110134598581E+05,      /* J = 24 */
(PID.TID 0000.0001)                 2.599949918261880E+05,      /* J = 25 */
(PID.TID 0000.0001)                 2.491250781852558E+05,      /* J = 26 */
(PID.TID 0000.0001)                 2.365892017348392E+05,      /* J = 27 */
(PID.TID 0000.0001)                 2.220405216043041E+05,      /* J = 28 */
(PID.TID 0000.0001)                 2.048868197919576E+05,      /* J = 29 */
(PID.TID 0000.0001)                 1.840412227747703E+05,      /* J = 30 */
(PID.TID 0000.0001)                 1.572908084538706E+05,      /* J = 31 */
(PID.TID 0000.0001)                 1.202082051331828E+05       /* J = 32 */
(PID.TID 0000.0001)     ;
(PID.TID 0000.0001) dyF =  /* dyF(:,1,:,1) ( m - cartesian, degrees - spherical ) */
(PID.TID 0000.0001)                 1.202082051331828E+05,      /* I =  1 */
(PID.TID 0000.0001)                 1.572908084538706E+05,      /* I =  2 */
(PID.TID 0000.0001)                 1.840412227747703E+05,      /* I =  3 */
(PID.TID 0000.0001)                 2.048868197919576E+05,      /* I =  4 */
(PID.TID 0000.0001)                 2.220405216043041E+05,      /* I =  5 */
(PID.TID 0000.0001)                 2.365892017348392E+05,      /* I =  6 */
(PID.TID 0000.0001)                 2.491250781852558E+05,      /* I =  7 */
(PID.TID 0000.0001)                 2.599949918261880E+05,      /* I =  8 */
(PID.TID 0000.0001)                 2.694110134598581E+05,      /* I =  9 */
(PID.TID 0000.0001)                 2.775055554645015E+05,      /* I = 10 */
(PID.TID 0000.0001)                 2.843615645344775E+05,      /* I = 11 */
(PID.TID 0000.0001)                 2.900303768613598E+05,      /* I = 12 */
(PID.TID 0000.0001)                 2.945429307892709E+05,      /* I = 13 */
(PID.TID 0000.0001)                 2.979171143158405E+05,      /* I = 14 */
(PID.TID 0000.0001)                 3.001626787528886E+05,      /* I = 15 */
(PID.TID 0000.0001)     2 @  3.012844832048790E+05,             /* I = 16: 17 */
(PID.TID 0000.0001)                 3.001626787528886E+05,      /* I = 18 */
(PID.TID 0000.0001)                 2.979171143158405E+05,      /* I = 19 */
(PID.TID 0000.0001)                 2.945429307892709E+05,      /* I = 20 */
(PID.TID 0000.0001)                 2.900303768613598E+05,      /* I = 21 */
(PID.TID 0000.0001)                 2.843615645344775E+05,      /* I = 22 */
(PID.TID 0000.0001)                 2.775055554645015E+05,      /* I = 23 */
(PID.TID 0000.0001)                 2.694110134598581E+05,      /* I = 24 */
(PID.TID 0000.0001)                 2.599949918261880E+05,      /* I = 25 */
(PID.TID 0000.0001)                 2.491250781852558E+05,      /* I = 26 */
(PID.TID 0000.0001)                 2.365892017348392E+05,      /* I = 27 */
(PID.TID 0000.0001)                 2.220405216043041E+05,      /* I = 28 */
(PID.TID 0000.0001)                 2.048868197919576E+05,      /* I = 29 */
(PID.TID 0000.0001)                 1.840412227747703E+05,      /* I = 30 */
(PID.TID 0000.0001)                 1.572908084538706E+05,      /* I = 31 */
(PID.TID 0000.0001)     2 @  1.202082051331828E+05,             /* I = 32: 33 */
(PID.TID 0000.0001)                 1.572908084538706E+05,      /* I = 34 */
(PID.TID 0000.0001)                 1.840412227747703E+05,      /* I = 35 */
(PID.TID 0000.0001)                 2.048868197919576E+05,      /* I = 36 */
(PID.TID 0000.0001)                 2.220405216043041E+05,      /* I = 37 */
(PID.TID 0000.0001)                 2.365892017348392E+05,      /* I = 38 */
(PID.TID 0000.0001)                 2.491250781852558E+05,      /* I = 39 */
(PID.TID 0000.0001)                 2.599949918261880E+05,      /* I = 40 */
(PID.TID 0000.0001)                 2.694110134598581E+05,      /* I = 41 */
(PID.TID 0000.0001)                 2.775055554645015E+05,      /* I = 42 */
(PID.TID 0000.0001)                 2.843615645344775E+05,      /* I = 43 */
(PID.TID 0000.0001)                 2.900303768613598E+05,      /* I = 44 */
(PID.TID 0000.0001)                 2.945429307892709E+05,      /* I = 45 */
(PID.TID 0000.0001)                 2.979171143158405E+05,      /* I = 46 */
(PID.TID 0000.0001)                 3.001626787528886E+05,      /* I = 47 */
(PID.TID 0000.0001)     2 @  3.012844832048790E+05,             /* I = 48: 49 */
(PID.TID 0000.0001)                 3.001626787528886E+05,      /* I = 50 */
(PID.TID 0000.0001)                 2.979171143158405E+05,      /* I = 51 */
(PID.TID 0000.0001)                 2.945429307892709E+05,      /* I = 52 */
(PID.TID 0000.0001)                 2.900303768613598E+05,      /* I = 53 */
(PID.TID 0000.0001)                 2.843615645344775E+05,      /* I = 54 */
(PID.TID 0000.0001)                 2.775055554645015E+05,      /* I = 55 */
(PID.TID 0000.0001)                 2.694110134598581E+05,      /* I = 56 */
(PID.TID 0000.0001)                 2.599949918261880E+05,      /* I = 57 */
(PID.TID 0000.0001)                 2.491250781852558E+05,      /* I = 58 */
(PID.TID 0000.0001)                 2.365892017348392E+05,      /* I = 59 */
(PID.TID 0000.0001)                 2.220405216043041E+05,      /* I = 60 */
(PID.TID 0000.0001)                 2.048868197919576E+05,      /* I = 61 */
(PID.TID 0000.0001)                 1.840412227747703E+05,      /* I = 62 */
(PID.TID 0000.0001)                 1.572908084538706E+05,      /* I = 63 */
(PID.TID 0000.0001)     2 @  1.202082051331828E+05,             /* I = 64: 65 */
(PID.TID 0000.0001)                 1.572908084538706E+05,      /* I = 66 */
(PID.TID 0000.0001)                 1.840412227747703E+05,      /* I = 67 */
(PID.TID 0000.0001)                 2.048868197919576E+05,      /* I = 68 */
(PID.TID 0000.0001)                 2.220405216043041E+05,      /* I = 69 */
(PID.TID 0000.0001)                 2.365892017348392E+05,      /* I = 70 */
(PID.TID 0000.0001)                 2.491250781852558E+05,      /* I = 71 */
(PID.TID 0000.0001)                 2.599949918261880E+05,      /* I = 72 */
(PID.TID 0000.0001)                 2.694110134598581E+05,      /* I = 73 */
(PID.TID 0000.0001)                 2.775055554645015E+05,      /* I = 74 */
(PID.TID 0000.0001)                 2.843615645344775E+05,      /* I = 75 */
(PID.TID 0000.0001)                 2.900303768613598E+05,      /* I = 76 */
(PID.TID 0000.0001)                 2.945429307892709E+05,      /* I = 77 */
(PID.TID 0000.0001)                 2.979171143158405E+05,      /* I = 78 */
(PID.TID 0000.0001)                 3.001626787528886E+05,      /* I = 79 */
(PID.TID 0000.0001)     2 @  3.012844832048790E+05,             /* I = 80: 81 */
(PID.TID 0000.0001)                 3.001626787528886E+05,      /* I = 82 */
(PID.TID 0000.0001)                 2.979171143158405E+05,      /* I = 83 */
(PID.TID 0000.0001)                 2.945429307892709E+05,      /* I = 84 */
(PID.TID 0000.0001)                 2.900303768613598E+05,      /* I = 85 */
(PID.TID 0000.0001)                 2.843615645344775E+05,      /* I = 86 */
(PID.TID 0000.0001)                 2.775055554645015E+05,      /* I = 87 */
(PID.TID 0000.0001)                 2.694110134598581E+05,      /* I = 88 */
(PID.TID 0000.0001)                 2.599949918261880E+05,      /* I = 89 */
(PID.TID 0000.0001)                 2.491250781852558E+05,      /* I = 90 */
(PID.TID 0000.0001)                 2.365892017348392E+05,      /* I = 91 */
(PID.TID 0000.0001)                 2.220405216043041E+05,      /* I = 92 */
(PID.TID 0000.0001)                 2.048868197919576E+05,      /* I = 93 */
(PID.TID 0000.0001)                 1.840412227747703E+05,      /* I = 94 */
(PID.TID 0000.0001)                 1.572908084538706E+05,      /* I = 95 */
(PID.TID 0000.0001)     2 @  1.202082051331828E+05,             /* I = 96: 97 */
(PID.TID 0000.0001)                 1.572908084538706E+05,      /* I = 98 */
(PID.TID 0000.0001)                 1.840412227747703E+05,      /* I = 99 */
(PID.TID 0000.0001)                 2.048868197919576E+05,      /* I =100 */
(PID.TID 0000.0001)                 2.220405216043041E+05,      /* I =101 */
(PID.TID 0000.0001)                 2.365892017348392E+05,      /* I =102 */
(PID.TID 0000.0001)                 2.491250781852558E+05,      /* I =103 */
(PID.TID 0000.0001)                 2.599949918261880E+05,      /* I =104 */
(PID.TID 0000.0001)                 2.694110134598581E+05,      /* I =105 */
(PID.TID 0000.0001)                 2.775055554645015E+05,      /* I =106 */
(PID.TID 0000.0001)                 2.843615645344775E+05,      /* I =107 */
(PID.TID 0000.0001)                 2.900303768613598E+05,      /* I =108 */
(PID.TID 0000.0001)                 2.945429307892709E+05,      /* I =109 */
(PID.TID 0000.0001)                 2.979171143158405E+05,      /* I =110 */
(PID.TID 0000.0001)                 3.001626787528886E+05,      /* I =111 */
(PID.TID 0000.0001)     2 @  3.012844832048790E+05,             /* I =112:113 */
(PID.TID 0000.0001)                 3.001626787528886E+05,      /* I =114 */
(PID.TID 0000.0001)                 2.979171143158405E+05,      /* I =115 */
(PID.TID 0000.0001)                 2.945429307892709E+05,      /* I =116 */
(PID.TID 0000.0001)                 2.900303768613598E+05,      /* I =117 */
(PID.TID 0000.0001)                 2.843615645344775E+05,      /* I =118 */
(PID.TID 0000.0001)                 2.775055554645015E+05,      /* I =119 */
(PID.TID 0000.0001)                 2.694110134598581E+05,      /* I =120 */
(PID.TID 0000.0001)                 2.599949918261880E+05,      /* I =121 */
(PID.TID 0000.0001)                 2.491250781852558E+05,      /* I =122 */
(PID.TID 0000.0001)                 2.365892017348392E+05,      /* I =123 */
(PID.TID 0000.0001)                 2.220405216043041E+05,      /* I =124 */
(PID.TID 0000.0001)                 2.048868197919576E+05,      /* I =125 */
(PID.TID 0000.0001)                 1.840412227747703E+05,      /* I =126 */
(PID.TID 0000.0001)                 1.572908084538706E+05,      /* I =127 */
(PID.TID 0000.0001)     2 @  1.202082051331828E+05,             /* I =128:129 */
(PID.TID 0000.0001)                 1.572908084538706E+05,      /* I =130 */
(PID.TID 0000.0001)                 1.840412227747703E+05,      /* I =131 */
(PID.TID 0000.0001)                 2.048868197919576E+05,      /* I =132 */
(PID.TID 0000.0001)                 2.220405216043041E+05,      /* I =133 */
(PID.TID 0000.0001)                 2.365892017348392E+05,      /* I =134 */
(PID.TID 0000.0001)                 2.491250781852558E+05,      /* I =135 */
(PID.TID 0000.0001)                 2.599949918261880E+05,      /* I =136 */
(PID.TID 0000.0001)                 2.694110134598581E+05,      /* I =137 */
(PID.TID 0000.0001)                 2.775055554645015E+05,      /* I =138 */
(PID.TID 0000.0001)                 2.843615645344775E+05,      /* I =139 */
(PID.TID 0000.0001)                 2.900303768613598E+05,      /* I =140 */
(PID.TID 0000.0001)                 2.945429307892709E+05,      /* I =141 */
(PID.TID 0000.0001)                 2.979171143158405E+05,      /* I =142 */
(PID.TID 0000.0001)                 3.001626787528886E+05,      /* I =143 */
(PID.TID 0000.0001)     2 @  3.012844832048790E+05,             /* I =144:145 */
(PID.TID 0000.0001)                 3.001626787528886E+05,      /* I =146 */
(PID.TID 0000.0001)                 2.979171143158405E+05,      /* I =147 */
(PID.TID 0000.0001)                 2.945429307892709E+05,      /* I =148 */
(PID.TID 0000.0001)                 2.900303768613598E+05,      /* I =149 */
(PID.TID 0000.0001)                 2.843615645344775E+05,      /* I =150 */
(PID.TID 0000.0001)                 2.775055554645015E+05,      /* I =151 */
(PID.TID 0000.0001)                 2.694110134598581E+05,      /* I =152 */
(PID.TID 0000.0001)                 2.599949918261880E+05,      /* I =153 */
(PID.TID 0000.0001)                 2.491250781852558E+05,      /* I =154 */
(PID.TID 0000.0001)                 2.365892017348392E+05,      /* I =155 */
(PID.TID 0000.0001)                 2.220405216043041E+05,      /* I =156 */
(PID.TID 0000.0001)                 2.048868197919576E+05,      /* I =157 */
(PID.TID 0000.0001)                 1.840412227747703E+05,      /* I =158 */
(PID.TID 0000.0001)                 1.572908084538706E+05,      /* I =159 */
(PID.TID 0000.0001)     2 @  1.202082051331828E+05,             /* I =160:161 */
(PID.TID 0000.0001)                 1.572908084538706E+05,      /* I =162 */
(PID.TID 0000.0001)                 1.840412227747703E+05,      /* I =163 */
(PID.TID 0000.0001)                 2.048868197919576E+05,      /* I =164 */
(PID.TID 0000.0001)                 2.220405216043041E+05,      /* I =165 */
(PID.TID 0000.0001)                 2.365892017348392E+05,      /* I =166 */
(PID.TID 0000.0001)                 2.491250781852558E+05,      /* I =167 */
(PID.TID 0000.0001)                 2.599949918261880E+05,      /* I =168 */
(PID.TID 0000.0001)                 2.694110134598581E+05,      /* I =169 */
(PID.TID 0000.0001)                 2.775055554645015E+05,      /* I =170 */
(PID.TID 0000.0001)                 2.843615645344775E+05,      /* I =171 */
(PID.TID 0000.0001)                 2.900303768613598E+05,      /* I =172 */
(PID.TID 0000.0001)                 2.945429307892709E+05,      /* I =173 */
(PID.TID 0000.0001)                 2.979171143158405E+05,      /* I =174 */
(PID.TID 0000.0001)                 3.001626787528886E+05,      /* I =175 */
(PID.TID 0000.0001)     2 @  3.012844832048790E+05,             /* I =176:177 */
(PID.TID 0000.0001)                 3.001626787528886E+05,      /* I =178 */
(PID.TID 0000.0001)                 2.979171143158405E+05,      /* I =179 */
(PID.TID 0000.0001)                 2.945429307892709E+05,      /* I =180 */
(PID.TID 0000.0001)                 2.900303768613598E+05,      /* I =181 */
(PID.TID 0000.0001)                 2.843615645344775E+05,      /* I =182 */
(PID.TID 0000.0001)                 2.775055554645015E+05,      /* I =183 */
(PID.TID 0000.0001)                 2.694110134598581E+05,      /* I =184 */
(PID.TID 0000.0001)                 2.599949918261880E+05,      /* I =185 */
(PID.TID 0000.0001)                 2.491250781852558E+05,      /* I =186 */
(PID.TID 0000.0001)                 2.365892017348392E+05,      /* I =187 */
(PID.TID 0000.0001)                 2.220405216043041E+05,      /* I =188 */
(PID.TID 0000.0001)                 2.048868197919576E+05,      /* I =189 */
(PID.TID 0000.0001)                 1.840412227747703E+05,      /* I =190 */
(PID.TID 0000.0001)                 1.572908084538706E+05,      /* I =191 */
(PID.TID 0000.0001)                 1.202082051331828E+05       /* I =192 */
(PID.TID 0000.0001)     ;
(PID.TID 0000.0001) dyF =  /* dyF(1,:,1,:) ( m - cartesian, degrees - spherical ) */
(PID.TID 0000.0001)                 1.202082051331828E+05,      /* J =  1 */
(PID.TID 0000.0001)                 1.563594089971120E+05,      /* J =  2 */
(PID.TID 0000.0001)                 1.835530058121492E+05,      /* J =  3 */
(PID.TID 0000.0001)                 2.045883481718707E+05,      /* J =  4 */
(PID.TID 0000.0001)                 2.218350349844184E+05,      /* J =  5 */
(PID.TID 0000.0001)                 2.364352994647058E+05,      /* J =  6 */
(PID.TID 0000.0001)                 2.490022710862746E+05,      /* J =  7 */
(PID.TID 0000.0001)                 2.598919724358304E+05,      /* J =  8 */
(PID.TID 0000.0001)                 2.693210245495156E+05,      /* J =  9 */
(PID.TID 0000.0001)                 2.774243179696503E+05,      /* J = 10 */
(PID.TID 0000.0001)                 2.842862532064523E+05,      /* J = 11 */
(PID.TID 0000.0001)                 2.899590699694043E+05,      /* J = 12 */
(PID.TID 0000.0001)                 2.944742915095688E+05,      /* J = 13 */
(PID.TID 0000.0001)                 2.978501920522793E+05,      /* J = 14 */
(PID.TID 0000.0001)                 3.000967749619962E+05,      /* J = 15 */
(PID.TID 0000.0001)     2 @  3.012190981969054E+05,             /* J = 16: 17 */
(PID.TID 0000.0001)                 3.000967749619962E+05,      /* J = 18 */
(PID.TID 0000.0001)                 2.978501920522793E+05,      /* J = 19 */
(PID.TID 0000.0001)                 2.944742915095688E+05,      /* J = 20 */
(PID.TID 0000.0001)                 2.899590699694043E+05,      /* J = 21 */
(PID.TID 0000.0001)                 2.842862532064523E+05,      /* J = 22 */
(PID.TID 0000.0001)                 2.774243179696503E+05,      /* J = 23 */
(PID.TID 0000.0001)                 2.693210245495156E+05,      /* J = 24 */
(PID.TID 0000.0001)                 2.598919724358304E+05,      /* J = 25 */
(PID.TID 0000.0001)                 2.490022710862746E+05,      /* J = 26 */
(PID.TID 0000.0001)                 2.364352994647058E+05,      /* J = 27 */
(PID.TID 0000.0001)                 2.218350349844184E+05,      /* J = 28 */
(PID.TID 0000.0001)                 2.045883481718707E+05,      /* J = 29 */
(PID.TID 0000.0001)                 1.835530058121492E+05,      /* J = 30 */
(PID.TID 0000.0001)                 1.563594089971120E+05,      /* J = 31 */
(PID.TID 0000.0001)                 1.202082051331828E+05       /* J = 32 */
(PID.TID 0000.0001)     ;
(PID.TID 0000.0001) dxG =  /* dxG(:,1,:,1) ( m - cartesian, degrees - spherical ) */
(PID.TID 0000.0001)                 1.009837800879055E+05,      /* I =  1 */
(PID.TID 0000.0001)                 1.534505834330337E+05,      /* I =  2 */
(PID.TID 0000.0001)                 1.823321598773926E+05,      /* I =  3 */
(PID.TID 0000.0001)                 2.038999045536999E+05,      /* I =  4 */
(PID.TID 0000.0001)                 2.213884732245467E+05,      /* I =  5 */
(PID.TID 0000.0001)                 2.361211699596122E+05,      /* I =  6 */
(PID.TID 0000.0001)                 2.487693460283865E+05,      /* I =  7 */
(PID.TID 0000.0001)                 2.597126963772146E+05,      /* I =  8 */
(PID.TID 0000.0001)                 2.691790288994575E+05,      /* I =  9 */
(PID.TID 0000.0001)                 2.773091043277394E+05,      /* I = 10 */
(PID.TID 0000.0001)                 2.841906470085516E+05,      /* I = 11 */
(PID.TID 0000.0001)                 2.898778860929753E+05,      /* I = 12 */
(PID.TID 0000.0001)                 2.944035815526417E+05,      /* I = 13 */
(PID.TID 0000.0001)                 2.977867909042096E+05,      /* I = 14 */
(PID.TID 0000.0001)                 3.000380090330854E+05,      /* I = 15 */
(PID.TID 0000.0001)     2 @  3.011625828699101E+05,             /* I = 16: 17 */
(PID.TID 0000.0001)                 3.000380090330854E+05,      /* I = 18 */
(PID.TID 0000.0001)                 2.977867909042096E+05,      /* I = 19 */
(PID.TID 0000.0001)                 2.944035815526417E+05,      /* I = 20 */
(PID.TID 0000.0001)                 2.898778860929753E+05,      /* I = 21 */
(PID.TID 0000.0001)                 2.841906470085516E+05,      /* I = 22 */
(PID.TID 0000.0001)                 2.773091043277394E+05,      /* I = 23 */
(PID.TID 0000.0001)                 2.691790288994575E+05,      /* I = 24 */
(PID.TID 0000.0001)                 2.597126963772146E+05,      /* I = 25 */
(PID.TID 0000.0001)                 2.487693460283865E+05,      /* I = 26 */
(PID.TID 0000.0001)                 2.361211699596122E+05,      /* I = 27 */
(PID.TID 0000.0001)                 2.213884732245467E+05,      /* I = 28 */
(PID.TID 0000.0001)                 2.038999045536999E+05,      /* I = 29 */
(PID.TID 0000.0001)                 1.823321598773926E+05,      /* I = 30 */
(PID.TID 0000.0001)                 1.534505834330337E+05,      /* I = 31 */
(PID.TID 0000.0001)     2 @  1.009837800879055E+05,             /* I = 32: 33 */
(PID.TID 0000.0001)                 1.534505834330337E+05,      /* I = 34 */
(PID.TID 0000.0001)                 1.823321598773926E+05,      /* I = 35 */
(PID.TID 0000.0001)                 2.038999045536999E+05,      /* I = 36 */
(PID.TID 0000.0001)                 2.213884732245467E+05,      /* I = 37 */
(PID.TID 0000.0001)                 2.361211699596122E+05,      /* I = 38 */
(PID.TID 0000.0001)                 2.487693460283865E+05,      /* I = 39 */
(PID.TID 0000.0001)                 2.597126963772146E+05,      /* I = 40 */
(PID.TID 0000.0001)                 2.691790288994575E+05,      /* I = 41 */
(PID.TID 0000.0001)                 2.773091043277394E+05,      /* I = 42 */
(PID.TID 0000.0001)                 2.841906470085516E+05,      /* I = 43 */
(PID.TID 0000.0001)                 2.898778860929753E+05,      /* I = 44 */
(PID.TID 0000.0001)                 2.944035815526417E+05,      /* I = 45 */
(PID.TID 0000.0001)                 2.977867909042096E+05,      /* I = 46 */
(PID.TID 0000.0001)                 3.000380090330854E+05,      /* I = 47 */
(PID.TID 0000.0001)     2 @  3.011625828699101E+05,             /* I = 48: 49 */
(PID.TID 0000.0001)                 3.000380090330854E+05,      /* I = 50 */
(PID.TID 0000.0001)                 2.977867909042096E+05,      /* I = 51 */
(PID.TID 0000.0001)                 2.944035815526417E+05,      /* I = 52 */
(PID.TID 0000.0001)                 2.898778860929753E+05,      /* I = 53 */
(PID.TID 0000.0001)                 2.841906470085516E+05,      /* I = 54 */
(PID.TID 0000.0001)                 2.773091043277394E+05,      /* I = 55 */
(PID.TID 0000.0001)                 2.691790288994575E+05,      /* I = 56 */
(PID.TID 0000.0001)                 2.597126963772146E+05,      /* I = 57 */
(PID.TID 0000.0001)                 2.487693460283865E+05,      /* I = 58 */
(PID.TID 0000.0001)                 2.361211699596122E+05,      /* I = 59 */
(PID.TID 0000.0001)                 2.213884732245467E+05,      /* I = 60 */
(PID.TID 0000.0001)                 2.038999045536999E+05,      /* I = 61 */
(PID.TID 0000.0001)                 1.823321598773926E+05,      /* I = 62 */
(PID.TID 0000.0001)                 1.534505834330337E+05,      /* I = 63 */
(PID.TID 0000.0001)     2 @  1.009837800879055E+05,             /* I = 64: 65 */
(PID.TID 0000.0001)                 1.534505834330337E+05,      /* I = 66 */
(PID.TID 0000.0001)                 1.823321598773926E+05,      /* I = 67 */
(PID.TID 0000.0001)                 2.038999045536999E+05,      /* I = 68 */
(PID.TID 0000.0001)                 2.213884732245467E+05,      /* I = 69 */
(PID.TID 0000.0001)                 2.361211699596122E+05,      /* I = 70 */
(PID.TID 0000.0001)                 2.487693460283865E+05,      /* I = 71 */
(PID.TID 0000.0001)                 2.597126963772146E+05,      /* I = 72 */
(PID.TID 0000.0001)                 2.691790288994575E+05,      /* I = 73 */
(PID.TID 0000.0001)                 2.773091043277394E+05,      /* I = 74 */
(PID.TID 0000.0001)                 2.841906470085516E+05,      /* I = 75 */
(PID.TID 0000.0001)                 2.898778860929753E+05,      /* I = 76 */
(PID.TID 0000.0001)                 2.944035815526417E+05,      /* I = 77 */
(PID.TID 0000.0001)                 2.977867909042096E+05,      /* I = 78 */
(PID.TID 0000.0001)                 3.000380090330854E+05,      /* I = 79 */
(PID.TID 0000.0001)     2 @  3.011625828699101E+05,             /* I = 80: 81 */
(PID.TID 0000.0001)                 3.000380090330854E+05,      /* I = 82 */
(PID.TID 0000.0001)                 2.977867909042096E+05,      /* I = 83 */
(PID.TID 0000.0001)                 2.944035815526417E+05,      /* I = 84 */
(PID.TID 0000.0001)                 2.898778860929753E+05,      /* I = 85 */
(PID.TID 0000.0001)                 2.841906470085516E+05,      /* I = 86 */
(PID.TID 0000.0001)                 2.773091043277394E+05,      /* I = 87 */
(PID.TID 0000.0001)                 2.691790288994575E+05,      /* I = 88 */
(PID.TID 0000.0001)                 2.597126963772146E+05,      /* I = 89 */
(PID.TID 0000.0001)                 2.487693460283865E+05,      /* I = 90 */
(PID.TID 0000.0001)                 2.361211699596122E+05,      /* I = 91 */
(PID.TID 0000.0001)                 2.213884732245467E+05,      /* I = 92 */
(PID.TID 0000.0001)                 2.038999045536999E+05,      /* I = 93 */
(PID.TID 0000.0001)                 1.823321598773926E+05,      /* I = 94 */
(PID.TID 0000.0001)                 1.534505834330337E+05,      /* I = 95 */
(PID.TID 0000.0001)     2 @  1.009837800879055E+05,             /* I = 96: 97 */
(PID.TID 0000.0001)                 1.534505834330337E+05,      /* I = 98 */
(PID.TID 0000.0001)                 1.823321598773926E+05,      /* I = 99 */
(PID.TID 0000.0001)                 2.038999045536999E+05,      /* I =100 */
(PID.TID 0000.0001)                 2.213884732245467E+05,      /* I =101 */
(PID.TID 0000.0001)                 2.361211699596122E+05,      /* I =102 */
(PID.TID 0000.0001)                 2.487693460283865E+05,      /* I =103 */
(PID.TID 0000.0001)                 2.597126963772146E+05,      /* I =104 */
(PID.TID 0000.0001)                 2.691790288994575E+05,      /* I =105 */
(PID.TID 0000.0001)                 2.773091043277394E+05,      /* I =106 */
(PID.TID 0000.0001)                 2.841906470085516E+05,      /* I =107 */
(PID.TID 0000.0001)                 2.898778860929753E+05,      /* I =108 */
(PID.TID 0000.0001)                 2.944035815526417E+05,      /* I =109 */
(PID.TID 0000.0001)                 2.977867909042096E+05,      /* I =110 */
(PID.TID 0000.0001)                 3.000380090330854E+05,      /* I =111 */
(PID.TID 0000.0001)     2 @  3.011625828699101E+05,             /* I =112:113 */
(PID.TID 0000.0001)                 3.000380090330854E+05,      /* I =114 */
(PID.TID 0000.0001)                 2.977867909042096E+05,      /* I =115 */
(PID.TID 0000.0001)                 2.944035815526417E+05,      /* I =116 */
(PID.TID 0000.0001)                 2.898778860929753E+05,      /* I =117 */
(PID.TID 0000.0001)                 2.841906470085516E+05,      /* I =118 */
(PID.TID 0000.0001)                 2.773091043277394E+05,      /* I =119 */
(PID.TID 0000.0001)                 2.691790288994575E+05,      /* I =120 */
(PID.TID 0000.0001)                 2.597126963772146E+05,      /* I =121 */
(PID.TID 0000.0001)                 2.487693460283865E+05,      /* I =122 */
(PID.TID 0000.0001)                 2.361211699596122E+05,      /* I =123 */
(PID.TID 0000.0001)                 2.213884732245467E+05,      /* I =124 */
(PID.TID 0000.0001)                 2.038999045536999E+05,      /* I =125 */
(PID.TID 0000.0001)                 1.823321598773926E+05,      /* I =126 */
(PID.TID 0000.0001)                 1.534505834330337E+05,      /* I =127 */
(PID.TID 0000.0001)     2 @  1.009837800879055E+05,             /* I =128:129 */
(PID.TID 0000.0001)                 1.534505834330337E+05,      /* I =130 */
(PID.TID 0000.0001)                 1.823321598773926E+05,      /* I =131 */
(PID.TID 0000.0001)                 2.038999045536999E+05,      /* I =132 */
(PID.TID 0000.0001)                 2.213884732245467E+05,      /* I =133 */
(PID.TID 0000.0001)                 2.361211699596122E+05,      /* I =134 */
(PID.TID 0000.0001)                 2.487693460283865E+05,      /* I =135 */
(PID.TID 0000.0001)                 2.597126963772146E+05,      /* I =136 */
(PID.TID 0000.0001)                 2.691790288994575E+05,      /* I =137 */
(PID.TID 0000.0001)                 2.773091043277394E+05,      /* I =138 */
(PID.TID 0000.0001)                 2.841906470085516E+05,      /* I =139 */
(PID.TID 0000.0001)                 2.898778860929753E+05,      /* I =140 */
(PID.TID 0000.0001)                 2.944035815526417E+05,      /* I =141 */
(PID.TID 0000.0001)                 2.977867909042096E+05,      /* I =142 */
(PID.TID 0000.0001)                 3.000380090330854E+05,      /* I =143 */
(PID.TID 0000.0001)     2 @  3.011625828699101E+05,             /* I =144:145 */
(PID.TID 0000.0001)                 3.000380090330854E+05,      /* I =146 */
(PID.TID 0000.0001)                 2.977867909042096E+05,      /* I =147 */
(PID.TID 0000.0001)                 2.944035815526417E+05,      /* I =148 */
(PID.TID 0000.0001)                 2.898778860929753E+05,      /* I =149 */
(PID.TID 0000.0001)                 2.841906470085516E+05,      /* I =150 */
(PID.TID 0000.0001)                 2.773091043277394E+05,      /* I =151 */
(PID.TID 0000.0001)                 2.691790288994575E+05,      /* I =152 */
(PID.TID 0000.0001)                 2.597126963772146E+05,      /* I =153 */
(PID.TID 0000.0001)                 2.487693460283865E+05,      /* I =154 */
(PID.TID 0000.0001)                 2.361211699596122E+05,      /* I =155 */
(PID.TID 0000.0001)                 2.213884732245467E+05,      /* I =156 */
(PID.TID 0000.0001)                 2.038999045536999E+05,      /* I =157 */
(PID.TID 0000.0001)                 1.823321598773926E+05,      /* I =158 */
(PID.TID 0000.0001)                 1.534505834330337E+05,      /* I =159 */
(PID.TID 0000.0001)     2 @  1.009837800879055E+05,             /* I =160:161 */
(PID.TID 0000.0001)                 1.534505834330337E+05,      /* I =162 */
(PID.TID 0000.0001)                 1.823321598773926E+05,      /* I =163 */
(PID.TID 0000.0001)                 2.038999045536999E+05,      /* I =164 */
(PID.TID 0000.0001)                 2.213884732245467E+05,      /* I =165 */
(PID.TID 0000.0001)                 2.361211699596122E+05,      /* I =166 */
(PID.TID 0000.0001)                 2.487693460283865E+05,      /* I =167 */
(PID.TID 0000.0001)                 2.597126963772146E+05,      /* I =168 */
(PID.TID 0000.0001)                 2.691790288994575E+05,      /* I =169 */
(PID.TID 0000.0001)                 2.773091043277394E+05,      /* I =170 */
(PID.TID 0000.0001)                 2.841906470085516E+05,      /* I =171 */
(PID.TID 0000.0001)                 2.898778860929753E+05,      /* I =172 */
(PID.TID 0000.0001)                 2.944035815526417E+05,      /* I =173 */
(PID.TID 0000.0001)                 2.977867909042096E+05,      /* I =174 */
(PID.TID 0000.0001)                 3.000380090330854E+05,      /* I =175 */
(PID.TID 0000.0001)     2 @  3.011625828699101E+05,             /* I =176:177 */
(PID.TID 0000.0001)                 3.000380090330854E+05,      /* I =178 */
(PID.TID 0000.0001)                 2.977867909042096E+05,      /* I =179 */
(PID.TID 0000.0001)                 2.944035815526417E+05,      /* I =180 */
(PID.TID 0000.0001)                 2.898778860929753E+05,      /* I =181 */
(PID.TID 0000.0001)                 2.841906470085516E+05,      /* I =182 */
(PID.TID 0000.0001)                 2.773091043277394E+05,      /* I =183 */
(PID.TID 0000.0001)                 2.691790288994575E+05,      /* I =184 */
(PID.TID 0000.0001)                 2.597126963772146E+05,      /* I =185 */
(PID.TID 0000.0001)                 2.487693460283865E+05,      /* I =186 */
(PID.TID 0000.0001)                 2.361211699596122E+05,      /* I =187 */
(PID.TID 0000.0001)                 2.213884732245467E+05,      /* I =188 */
(PID.TID 0000.0001)                 2.038999045536999E+05,      /* I =189 */
(PID.TID 0000.0001)                 1.823321598773926E+05,      /* I =190 */
(PID.TID 0000.0001)                 1.534505834330337E+05,      /* I =191 */
(PID.TID 0000.0001)                 1.009837800879055E+05       /* I =192 */
(PID.TID 0000.0001)     ;
(PID.TID 0000.0001) dxG =  /* dxG(1,:,1,:) ( m - cartesian, degrees - spherical ) */
(PID.TID 0000.0001)                 1.009837800879055E+05,      /* J =  1 */
(PID.TID 0000.0001)                 1.403701524205398E+05,      /* J =  2 */
(PID.TID 0000.0001)                 1.716197227386011E+05,      /* J =  3 */
(PID.TID 0000.0001)                 1.950254041626018E+05,      /* J =  4 */
(PID.TID 0000.0001)                 2.138410773065497E+05,      /* J =  5 */
(PID.TID 0000.0001)                 2.295958105911513E+05,      /* J =  6 */
(PID.TID 0000.0001)                 2.430829951739083E+05,      /* J =  7 */
(PID.TID 0000.0001)                 2.547526806712888E+05,      /* J =  8 */
(PID.TID 0000.0001)                 2.648750305193301E+05,      /* J =  9 */
(PID.TID 0000.0001)                 2.736173771018112E+05,      /* J = 10 */
(PID.TID 0000.0001)                 2.810845823202646E+05,      /* J = 11 */
(PID.TID 0000.0001)                 2.873420591008078E+05,      /* J = 12 */
(PID.TID 0000.0001)                 2.924298293668651E+05,      /* J = 13 */
(PID.TID 0000.0001)                 2.963715635865306E+05,      /* J = 14 */
(PID.TID 0000.0001)                 2.991805843171258E+05,      /* J = 15 */
(PID.TID 0000.0001)                 3.008638765647886E+05,      /* J = 16 */
(PID.TID 0000.0001)                 3.014246674484008E+05,      /* J = 17 */
(PID.TID 0000.0001)                 3.008638765647886E+05,      /* J = 18 */
(PID.TID 0000.0001)                 2.991805843171258E+05,      /* J = 19 */
(PID.TID 0000.0001)                 2.963715635865306E+05,      /* J = 20 */
(PID.TID 0000.0001)                 2.924298293668651E+05,      /* J = 21 */
(PID.TID 0000.0001)                 2.873420591008078E+05,      /* J = 22 */
(PID.TID 0000.0001)                 2.810845823202646E+05,      /* J = 23 */
(PID.TID 0000.0001)                 2.736173771018112E+05,      /* J = 24 */
(PID.TID 0000.0001)                 2.648750305193301E+05,      /* J = 25 */
(PID.TID 0000.0001)                 2.547526806712888E+05,      /* J = 26 */
(PID.TID 0000.0001)                 2.430829951739083E+05,      /* J = 27 */
(PID.TID 0000.0001)                 2.295958105911513E+05,      /* J = 28 */
(PID.TID 0000.0001)                 2.138410773065497E+05,      /* J = 29 */
(PID.TID 0000.0001)                 1.950254041626018E+05,      /* J = 30 */
(PID.TID 0000.0001)                 1.716197227386011E+05,      /* J = 31 */
(PID.TID 0000.0001)                 1.403701524205398E+05       /* J = 32 */
(PID.TID 0000.0001)     ;
(PID.TID 0000.0001) dyG =  /* dyG(:,1,:,1) ( m - cartesian, degrees - spherical ) */
(PID.TID 0000.0001)                 1.009837800879055E+05,      /* I =  1 */
(PID.TID 0000.0001)                 1.403701524205398E+05,      /* I =  2 */
(PID.TID 0000.0001)                 1.716197227386011E+05,      /* I =  3 */
(PID.TID 0000.0001)                 1.950254041626018E+05,      /* I =  4 */
(PID.TID 0000.0001)                 2.138410773065497E+05,      /* I =  5 */
(PID.TID 0000.0001)                 2.295958105911513E+05,      /* I =  6 */
(PID.TID 0000.0001)                 2.430829951739083E+05,      /* I =  7 */
(PID.TID 0000.0001)                 2.547526806712888E+05,      /* I =  8 */
(PID.TID 0000.0001)                 2.648750305193301E+05,      /* I =  9 */
(PID.TID 0000.0001)                 2.736173771018112E+05,      /* I = 10 */
(PID.TID 0000.0001)                 2.810845823202646E+05,      /* I = 11 */
(PID.TID 0000.0001)                 2.873420591008078E+05,      /* I = 12 */
(PID.TID 0000.0001)                 2.924298293668651E+05,      /* I = 13 */
(PID.TID 0000.0001)                 2.963715635865306E+05,      /* I = 14 */
(PID.TID 0000.0001)                 2.991805843171258E+05,      /* I = 15 */
(PID.TID 0000.0001)                 3.008638765647886E+05,      /* I = 16 */
(PID.TID 0000.0001)                 3.014246674484008E+05,      /* I = 17 */
(PID.TID 0000.0001)                 3.008638765647886E+05,      /* I = 18 */
(PID.TID 0000.0001)                 2.991805843171258E+05,      /* I = 19 */
(PID.TID 0000.0001)                 2.963715635865306E+05,      /* I = 20 */
(PID.TID 0000.0001)                 2.924298293668651E+05,      /* I = 21 */
(PID.TID 0000.0001)                 2.873420591008078E+05,      /* I = 22 */
(PID.TID 0000.0001)                 2.810845823202646E+05,      /* I = 23 */
(PID.TID 0000.0001)                 2.736173771018112E+05,      /* I = 24 */
(PID.TID 0000.0001)                 2.648750305193301E+05,      /* I = 25 */
(PID.TID 0000.0001)                 2.547526806712888E+05,      /* I = 26 */
(PID.TID 0000.0001)                 2.430829951739083E+05,      /* I = 27 */
(PID.TID 0000.0001)                 2.295958105911513E+05,      /* I = 28 */
(PID.TID 0000.0001)                 2.138410773065497E+05,      /* I = 29 */
(PID.TID 0000.0001)                 1.950254041626018E+05,      /* I = 30 */
(PID.TID 0000.0001)                 1.716197227386011E+05,      /* I = 31 */
(PID.TID 0000.0001)                 1.403701524205398E+05,      /* I = 32 */
(PID.TID 0000.0001)                 1.009837800879055E+05,      /* I = 33 */
(PID.TID 0000.0001)                 1.403701524205398E+05,      /* I = 34 */
(PID.TID 0000.0001)                 1.716197227386011E+05,      /* I = 35 */
(PID.TID 0000.0001)                 1.950254041626018E+05,      /* I = 36 */
(PID.TID 0000.0001)                 2.138410773065497E+05,      /* I = 37 */
(PID.TID 0000.0001)                 2.295958105911513E+05,      /* I = 38 */
(PID.TID 0000.0001)                 2.430829951739083E+05,      /* I = 39 */
(PID.TID 0000.0001)                 2.547526806712888E+05,      /* I = 40 */
(PID.TID 0000.0001)                 2.648750305193301E+05,      /* I = 41 */
(PID.TID 0000.0001)                 2.736173771018112E+05,      /* I = 42 */
(PID.TID 0000.0001)                 2.810845823202646E+05,      /* I = 43 */
(PID.TID 0000.0001)                 2.873420591008078E+05,      /* I = 44 */
(PID.TID 0000.0001)                 2.924298293668651E+05,      /* I = 45 */
(PID.TID 0000.0001)                 2.963715635865306E+05,      /* I = 46 */
(PID.TID 0000.0001)                 2.991805843171258E+05,      /* I = 47 */
(PID.TID 0000.0001)                 3.008638765647886E+05,      /* I = 48 */
(PID.TID 0000.0001)                 3.014246674484008E+05,      /* I = 49 */
(PID.TID 0000.0001)                 3.008638765647886E+05,      /* I = 50 */
(PID.TID 0000.0001)                 2.991805843171258E+05,      /* I = 51 */
(PID.TID 0000.0001)                 2.963715635865306E+05,      /* I = 52 */
(PID.TID 0000.0001)                 2.924298293668651E+05,      /* I = 53 */
(PID.TID 0000.0001)                 2.873420591008078E+05,      /* I = 54 */
(PID.TID 0000.0001)                 2.810845823202646E+05,      /* I = 55 */
(PID.TID 0000.0001)                 2.736173771018112E+05,      /* I = 56 */
(PID.TID 0000.0001)                 2.648750305193301E+05,      /* I = 57 */
(PID.TID 0000.0001)                 2.547526806712888E+05,      /* I = 58 */
(PID.TID 0000.0001)                 2.430829951739083E+05,      /* I = 59 */
(PID.TID 0000.0001)                 2.295958105911513E+05,      /* I = 60 */
(PID.TID 0000.0001)                 2.138410773065497E+05,      /* I = 61 */
(PID.TID 0000.0001)                 1.950254041626018E+05,      /* I = 62 */
(PID.TID 0000.0001)                 1.716197227386011E+05,      /* I = 63 */
(PID.TID 0000.0001)                 1.403701524205398E+05,      /* I = 64 */
(PID.TID 0000.0001)                 1.009837800879055E+05,      /* I = 65 */
(PID.TID 0000.0001)                 1.403701524205398E+05,      /* I = 66 */
(PID.TID 0000.0001)                 1.716197227386011E+05,      /* I = 67 */
(PID.TID 0000.0001)                 1.950254041626018E+05,      /* I = 68 */
(PID.TID 0000.0001)                 2.138410773065497E+05,      /* I = 69 */
(PID.TID 0000.0001)                 2.295958105911513E+05,      /* I = 70 */
(PID.TID 0000.0001)                 2.430829951739083E+05,      /* I = 71 */
(PID.TID 0000.0001)                 2.547526806712888E+05,      /* I = 72 */
(PID.TID 0000.0001)                 2.648750305193301E+05,      /* I = 73 */
(PID.TID 0000.0001)                 2.736173771018112E+05,      /* I = 74 */
(PID.TID 0000.0001)                 2.810845823202646E+05,      /* I = 75 */
(PID.TID 0000.0001)                 2.873420591008078E+05,      /* I = 76 */
(PID.TID 0000.0001)                 2.924298293668651E+05,      /* I = 77 */
(PID.TID 0000.0001)                 2.963715635865306E+05,      /* I = 78 */
(PID.TID 0000.0001)                 2.991805843171258E+05,      /* I = 79 */
(PID.TID 0000.0001)                 3.008638765647886E+05,      /* I = 80 */
(PID.TID 0000.0001)                 3.014246674484008E+05,      /* I = 81 */
(PID.TID 0000.0001)                 3.008638765647886E+05,      /* I = 82 */
(PID.TID 0000.0001)                 2.991805843171258E+05,      /* I = 83 */
(PID.TID 0000.0001)                 2.963715635865306E+05,      /* I = 84 */
(PID.TID 0000.0001)                 2.924298293668651E+05,      /* I = 85 */
(PID.TID 0000.0001)                 2.873420591008078E+05,      /* I = 86 */
(PID.TID 0000.0001)                 2.810845823202646E+05,      /* I = 87 */
(PID.TID 0000.0001)                 2.736173771018112E+05,      /* I = 88 */
(PID.TID 0000.0001)                 2.648750305193301E+05,      /* I = 89 */
(PID.TID 0000.0001)                 2.547526806712888E+05,      /* I = 90 */
(PID.TID 0000.0001)                 2.430829951739083E+05,      /* I = 91 */
(PID.TID 0000.0001)                 2.295958105911513E+05,      /* I = 92 */
(PID.TID 0000.0001)                 2.138410773065497E+05,      /* I = 93 */
(PID.TID 0000.0001)                 1.950254041626018E+05,      /* I = 94 */
(PID.TID 0000.0001)                 1.716197227386011E+05,      /* I = 95 */
(PID.TID 0000.0001)                 1.403701524205398E+05,      /* I = 96 */
(PID.TID 0000.0001)                 1.009837800879055E+05,      /* I = 97 */
(PID.TID 0000.0001)                 1.403701524205398E+05,      /* I = 98 */
(PID.TID 0000.0001)                 1.716197227386011E+05,      /* I = 99 */
(PID.TID 0000.0001)                 1.950254041626018E+05,      /* I =100 */
(PID.TID 0000.0001)                 2.138410773065497E+05,      /* I =101 */
(PID.TID 0000.0001)                 2.295958105911513E+05,      /* I =102 */
(PID.TID 0000.0001)                 2.430829951739083E+05,      /* I =103 */
(PID.TID 0000.0001)                 2.547526806712888E+05,      /* I =104 */
(PID.TID 0000.0001)                 2.648750305193301E+05,      /* I =105 */
(PID.TID 0000.0001)                 2.736173771018112E+05,      /* I =106 */
(PID.TID 0000.0001)                 2.810845823202646E+05,      /* I =107 */
(PID.TID 0000.0001)                 2.873420591008078E+05,      /* I =108 */
(PID.TID 0000.0001)                 2.924298293668651E+05,      /* I =109 */
(PID.TID 0000.0001)                 2.963715635865306E+05,      /* I =110 */
(PID.TID 0000.0001)                 2.991805843171258E+05,      /* I =111 */
(PID.TID 0000.0001)                 3.008638765647886E+05,      /* I =112 */
(PID.TID 0000.0001)                 3.014246674484008E+05,      /* I =113 */
(PID.TID 0000.0001)                 3.008638765647886E+05,      /* I =114 */
(PID.TID 0000.0001)                 2.991805843171258E+05,      /* I =115 */
(PID.TID 0000.0001)                 2.963715635865306E+05,      /* I =116 */
(PID.TID 0000.0001)                 2.924298293668651E+05,      /* I =117 */
(PID.TID 0000.0001)                 2.873420591008078E+05,      /* I =118 */
(PID.TID 0000.0001)                 2.810845823202646E+05,      /* I =119 */
(PID.TID 0000.0001)                 2.736173771018112E+05,      /* I =120 */
(PID.TID 0000.0001)                 2.648750305193301E+05,      /* I =121 */
(PID.TID 0000.0001)                 2.547526806712888E+05,      /* I =122 */
(PID.TID 0000.0001)                 2.430829951739083E+05,      /* I =123 */
(PID.TID 0000.0001)                 2.295958105911513E+05,      /* I =124 */
(PID.TID 0000.0001)                 2.138410773065497E+05,      /* I =125 */
(PID.TID 0000.0001)                 1.950254041626018E+05,      /* I =126 */
(PID.TID 0000.0001)                 1.716197227386011E+05,      /* I =127 */
(PID.TID 0000.0001)                 1.403701524205398E+05,      /* I =128 */
(PID.TID 0000.0001)                 1.009837800879055E+05,      /* I =129 */
(PID.TID 0000.0001)                 1.403701524205398E+05,      /* I =130 */
(PID.TID 0000.0001)                 1.716197227386011E+05,      /* I =131 */
(PID.TID 0000.0001)                 1.950254041626018E+05,      /* I =132 */
(PID.TID 0000.0001)                 2.138410773065497E+05,      /* I =133 */
(PID.TID 0000.0001)                 2.295958105911513E+05,      /* I =134 */
(PID.TID 0000.0001)                 2.430829951739083E+05,      /* I =135 */
(PID.TID 0000.0001)                 2.547526806712888E+05,      /* I =136 */
(PID.TID 0000.0001)                 2.648750305193301E+05,      /* I =137 */
(PID.TID 0000.0001)                 2.736173771018112E+05,      /* I =138 */
(PID.TID 0000.0001)                 2.810845823202646E+05,      /* I =139 */
(PID.TID 0000.0001)                 2.873420591008078E+05,      /* I =140 */
(PID.TID 0000.0001)                 2.924298293668651E+05,      /* I =141 */
(PID.TID 0000.0001)                 2.963715635865306E+05,      /* I =142 */
(PID.TID 0000.0001)                 2.991805843171258E+05,      /* I =143 */
(PID.TID 0000.0001)                 3.008638765647886E+05,      /* I =144 */
(PID.TID 0000.0001)                 3.014246674484008E+05,      /* I =145 */
(PID.TID 0000.0001)                 3.008638765647886E+05,      /* I =146 */
(PID.TID 0000.0001)                 2.991805843171258E+05,      /* I =147 */
(PID.TID 0000.0001)                 2.963715635865306E+05,      /* I =148 */
(PID.TID 0000.0001)                 2.924298293668651E+05,      /* I =149 */
(PID.TID 0000.0001)                 2.873420591008078E+05,      /* I =150 */
(PID.TID 0000.0001)                 2.810845823202646E+05,      /* I =151 */
(PID.TID 0000.0001)                 2.736173771018112E+05,      /* I =152 */
(PID.TID 0000.0001)                 2.648750305193301E+05,      /* I =153 */
(PID.TID 0000.0001)                 2.547526806712888E+05,      /* I =154 */
(PID.TID 0000.0001)                 2.430829951739083E+05,      /* I =155 */
(PID.TID 0000.0001)                 2.295958105911513E+05,      /* I =156 */
(PID.TID 0000.0001)                 2.138410773065497E+05,      /* I =157 */
(PID.TID 0000.0001)                 1.950254041626018E+05,      /* I =158 */
(PID.TID 0000.0001)                 1.716197227386011E+05,      /* I =159 */
(PID.TID 0000.0001)                 1.403701524205398E+05,      /* I =160 */
(PID.TID 0000.0001)                 1.009837800879055E+05,      /* I =161 */
(PID.TID 0000.0001)                 1.403701524205398E+05,      /* I =162 */
(PID.TID 0000.0001)                 1.716197227386011E+05,      /* I =163 */
(PID.TID 0000.0001)                 1.950254041626018E+05,      /* I =164 */
(PID.TID 0000.0001)                 2.138410773065497E+05,      /* I =165 */
(PID.TID 0000.0001)                 2.295958105911513E+05,      /* I =166 */
(PID.TID 0000.0001)                 2.430829951739083E+05,      /* I =167 */
(PID.TID 0000.0001)                 2.547526806712888E+05,      /* I =168 */
(PID.TID 0000.0001)                 2.648750305193301E+05,      /* I =169 */
(PID.TID 0000.0001)                 2.736173771018112E+05,      /* I =170 */
(PID.TID 0000.0001)                 2.810845823202646E+05,      /* I =171 */
(PID.TID 0000.0001)                 2.873420591008078E+05,      /* I =172 */
(PID.TID 0000.0001)                 2.924298293668651E+05,      /* I =173 */
(PID.TID 0000.0001)                 2.963715635865306E+05,      /* I =174 */
(PID.TID 0000.0001)                 2.991805843171258E+05,      /* I =175 */
(PID.TID 0000.0001)                 3.008638765647886E+05,      /* I =176 */
(PID.TID 0000.0001)                 3.014246674484008E+05,      /* I =177 */
(PID.TID 0000.0001)                 3.008638765647886E+05,      /* I =178 */
(PID.TID 0000.0001)                 2.991805843171258E+05,      /* I =179 */
(PID.TID 0000.0001)                 2.963715635865306E+05,      /* I =180 */
(PID.TID 0000.0001)                 2.924298293668651E+05,      /* I =181 */
(PID.TID 0000.0001)                 2.873420591008078E+05,      /* I =182 */
(PID.TID 0000.0001)                 2.810845823202646E+05,      /* I =183 */
(PID.TID 0000.0001)                 2.736173771018112E+05,      /* I =184 */
(PID.TID 0000.0001)                 2.648750305193301E+05,      /* I =185 */
(PID.TID 0000.0001)                 2.547526806712888E+05,      /* I =186 */
(PID.TID 0000.0001)                 2.430829951739083E+05,      /* I =187 */
(PID.TID 0000.0001)                 2.295958105911513E+05,      /* I =188 */
(PID.TID 0000.0001)                 2.138410773065497E+05,      /* I =189 */
(PID.TID 0000.0001)                 1.950254041626018E+05,      /* I =190 */
(PID.TID 0000.0001)                 1.716197227386011E+05,      /* I =191 */
(PID.TID 0000.0001)                 1.403701524205398E+05       /* I =192 */
(PID.TID 0000.0001)     ;
(PID.TID 0000.0001) dyG =  /* dyG(1,:,1,:) ( m - cartesian, degrees - spherical ) */
(PID.TID 0000.0001)                 1.009837800879055E+05,      /* J =  1 */
(PID.TID 0000.0001)                 1.534505834330337E+05,      /* J =  2 */
(PID.TID 0000.0001)                 1.823321598773926E+05,      /* J =  3 */
(PID.TID 0000.0001)                 2.038999045536999E+05,      /* J =  4 */
(PID.TID 0000.0001)                 2.213884732245467E+05,      /* J =  5 */
(PID.TID 0000.0001)                 2.361211699596122E+05,      /* J =  6 */
(PID.TID 0000.0001)                 2.487693460283865E+05,      /* J =  7 */
(PID.TID 0000.0001)                 2.597126963772146E+05,      /* J =  8 */
(PID.TID 0000.0001)                 2.691790288994575E+05,      /* J =  9 */
(PID.TID 0000.0001)                 2.773091043277394E+05,      /* J = 10 */
(PID.TID 0000.0001)                 2.841906470085516E+05,      /* J = 11 */
(PID.TID 0000.0001)                 2.898778860929753E+05,      /* J = 12 */
(PID.TID 0000.0001)                 2.944035815526417E+05,      /* J = 13 */
(PID.TID 0000.0001)                 2.977867909042096E+05,      /* J = 14 */
(PID.TID 0000.0001)                 3.000380090330854E+05,      /* J = 15 */
(PID.TID 0000.0001)     2 @  3.011625828699101E+05,             /* J = 16: 17 */
(PID.TID 0000.0001)                 3.000380090330854E+05,      /* J = 18 */
(PID.TID 0000.0001)                 2.977867909042096E+05,      /* J = 19 */
(PID.TID 0000.0001)                 2.944035815526417E+05,      /* J = 20 */
(PID.TID 0000.0001)                 2.898778860929753E+05,      /* J = 21 */
(PID.TID 0000.0001)                 2.841906470085516E+05,      /* J = 22 */
(PID.TID 0000.0001)                 2.773091043277394E+05,      /* J = 23 */
(PID.TID 0000.0001)                 2.691790288994575E+05,      /* J = 24 */
(PID.TID 0000.0001)                 2.597126963772146E+05,      /* J = 25 */
(PID.TID 0000.0001)                 2.487693460283865E+05,      /* J = 26 */
(PID.TID 0000.0001)                 2.361211699596122E+05,      /* J = 27 */
(PID.TID 0000.0001)                 2.213884732245467E+05,      /* J = 28 */
(PID.TID 0000.0001)                 2.038999045536999E+05,      /* J = 29 */
(PID.TID 0000.0001)                 1.823321598773926E+05,      /* J = 30 */
(PID.TID 0000.0001)                 1.534505834330337E+05,      /* J = 31 */
(PID.TID 0000.0001)                 1.009837800879055E+05       /* J = 32 */
(PID.TID 0000.0001)     ;
(PID.TID 0000.0001) dxC =  /* dxC(:,1,:,1) ( m - cartesian, degrees - spherical ) */
(PID.TID 0000.0001)                 1.114203141013064E+05,      /* I =  1 */
(PID.TID 0000.0001)                 1.391343389937105E+05,      /* I =  2 */
(PID.TID 0000.0001)                 1.709574999026266E+05,      /* I =  3 */
(PID.TID 0000.0001)                 1.946503699269892E+05,      /* I =  4 */
(PID.TID 0000.0001)                 2.135964483342134E+05,      /* I =  5 */
(PID.TID 0000.0001)                 2.294195678257306E+05,      /* I =  6 */
(PID.TID 0000.0001)                 2.429464709770498E+05,      /* I =  7 */
(PID.TID 0000.0001)                 2.546408290696998E+05,      /* I =  8 */
(PID.TID 0000.0001)                 2.647791839299727E+05,      /* I =  9 */
(PID.TID 0000.0001)                 2.735321911346108E+05,      /* I = 10 */
(PID.TID 0000.0001)                 2.810065951609633E+05,      /* I = 11 */
(PID.TID 0000.0001)                 2.872689479506989E+05,      /* I = 12 */
(PID.TID 0000.0001)                 2.923599955312932E+05,      /* I = 13 */
(PID.TID 0000.0001)                 2.963038832565530E+05,      /* I = 14 */
(PID.TID 0000.0001)                 2.991142470004740E+05,      /* I = 15 */
(PID.TID 0000.0001)                 3.007982711627968E+05,      /* I = 16 */
(PID.TID 0000.0001)                 3.013593857228136E+05,      /* I = 17 */
(PID.TID 0000.0001)                 3.007982711627968E+05,      /* I = 18 */
(PID.TID 0000.0001)                 2.991142470004740E+05,      /* I = 19 */
(PID.TID 0000.0001)                 2.963038832565530E+05,      /* I = 20 */
(PID.TID 0000.0001)                 2.923599955312932E+05,      /* I = 21 */
(PID.TID 0000.0001)                 2.872689479506989E+05,      /* I = 22 */
(PID.TID 0000.0001)                 2.810065951609633E+05,      /* I = 23 */
(PID.TID 0000.0001)                 2.735321911346108E+05,      /* I = 24 */
(PID.TID 0000.0001)                 2.647791839299727E+05,      /* I = 25 */
(PID.TID 0000.0001)                 2.546408290696998E+05,      /* I = 26 */
(PID.TID 0000.0001)                 2.429464709770498E+05,      /* I = 27 */
(PID.TID 0000.0001)                 2.294195678257306E+05,      /* I = 28 */
(PID.TID 0000.0001)                 2.135964483342134E+05,      /* I = 29 */
(PID.TID 0000.0001)                 1.946503699269892E+05,      /* I = 30 */
(PID.TID 0000.0001)                 1.709574999026266E+05,      /* I = 31 */
(PID.TID 0000.0001)                 1.391343389937105E+05,      /* I = 32 */
(PID.TID 0000.0001)                 1.114203141013064E+05,      /* I = 33 */
(PID.TID 0000.0001)                 1.391343389937105E+05,      /* I = 34 */
(PID.TID 0000.0001)                 1.709574999026266E+05,      /* I = 35 */
(PID.TID 0000.0001)                 1.946503699269892E+05,      /* I = 36 */
(PID.TID 0000.0001)                 2.135964483342134E+05,      /* I = 37 */
(PID.TID 0000.0001)                 2.294195678257306E+05,      /* I = 38 */
(PID.TID 0000.0001)                 2.429464709770498E+05,      /* I = 39 */
(PID.TID 0000.0001)                 2.546408290696998E+05,      /* I = 40 */
(PID.TID 0000.0001)                 2.647791839299727E+05,      /* I = 41 */
(PID.TID 0000.0001)                 2.735321911346108E+05,      /* I = 42 */
(PID.TID 0000.0001)                 2.810065951609633E+05,      /* I = 43 */
(PID.TID 0000.0001)                 2.872689479506989E+05,      /* I = 44 */
(PID.TID 0000.0001)                 2.923599955312932E+05,      /* I = 45 */
(PID.TID 0000.0001)                 2.963038832565530E+05,      /* I = 46 */
(PID.TID 0000.0001)                 2.991142470004740E+05,      /* I = 47 */
(PID.TID 0000.0001)                 3.007982711627968E+05,      /* I = 48 */
(PID.TID 0000.0001)                 3.013593857228136E+05,      /* I = 49 */
(PID.TID 0000.0001)                 3.007982711627968E+05,      /* I = 50 */
(PID.TID 0000.0001)                 2.991142470004740E+05,      /* I = 51 */
(PID.TID 0000.0001)                 2.963038832565530E+05,      /* I = 52 */
(PID.TID 0000.0001)                 2.923599955312932E+05,      /* I = 53 */
(PID.TID 0000.0001)                 2.872689479506989E+05,      /* I = 54 */
(PID.TID 0000.0001)                 2.810065951609633E+05,      /* I = 55 */
(PID.TID 0000.0001)                 2.735321911346108E+05,      /* I = 56 */
(PID.TID 0000.0001)                 2.647791839299727E+05,      /* I = 57 */
(PID.TID 0000.0001)                 2.546408290696998E+05,      /* I = 58 */
(PID.TID 0000.0001)                 2.429464709770498E+05,      /* I = 59 */
(PID.TID 0000.0001)                 2.294195678257306E+05,      /* I = 60 */
(PID.TID 0000.0001)                 2.135964483342134E+05,      /* I = 61 */
(PID.TID 0000.0001)                 1.946503699269892E+05,      /* I = 62 */
(PID.TID 0000.0001)                 1.709574999026266E+05,      /* I = 63 */
(PID.TID 0000.0001)                 1.391343389937105E+05,      /* I = 64 */
(PID.TID 0000.0001)                 1.114203141013064E+05,      /* I = 65 */
(PID.TID 0000.0001)                 1.391343389937105E+05,      /* I = 66 */
(PID.TID 0000.0001)                 1.709574999026266E+05,      /* I = 67 */
(PID.TID 0000.0001)                 1.946503699269892E+05,      /* I = 68 */
(PID.TID 0000.0001)                 2.135964483342134E+05,      /* I = 69 */
(PID.TID 0000.0001)                 2.294195678257306E+05,      /* I = 70 */
(PID.TID 0000.0001)                 2.429464709770498E+05,      /* I = 71 */
(PID.TID 0000.0001)                 2.546408290696998E+05,      /* I = 72 */
(PID.TID 0000.0001)                 2.647791839299727E+05,      /* I = 73 */
(PID.TID 0000.0001)                 2.735321911346108E+05,      /* I = 74 */
(PID.TID 0000.0001)                 2.810065951609633E+05,      /* I = 75 */
(PID.TID 0000.0001)                 2.872689479506989E+05,      /* I = 76 */
(PID.TID 0000.0001)                 2.923599955312932E+05,      /* I = 77 */
(PID.TID 0000.0001)                 2.963038832565530E+05,      /* I = 78 */
(PID.TID 0000.0001)                 2.991142470004740E+05,      /* I = 79 */
(PID.TID 0000.0001)                 3.007982711627968E+05,      /* I = 80 */
(PID.TID 0000.0001)                 3.013593857228136E+05,      /* I = 81 */
(PID.TID 0000.0001)                 3.007982711627968E+05,      /* I = 82 */
(PID.TID 0000.0001)                 2.991142470004740E+05,      /* I = 83 */
(PID.TID 0000.0001)                 2.963038832565530E+05,      /* I = 84 */
(PID.TID 0000.0001)                 2.923599955312932E+05,      /* I = 85 */
(PID.TID 0000.0001)                 2.872689479506989E+05,      /* I = 86 */
(PID.TID 0000.0001)                 2.810065951609633E+05,      /* I = 87 */
(PID.TID 0000.0001)                 2.735321911346108E+05,      /* I = 88 */
(PID.TID 0000.0001)                 2.647791839299727E+05,      /* I = 89 */
(PID.TID 0000.0001)                 2.546408290696998E+05,      /* I = 90 */
(PID.TID 0000.0001)                 2.429464709770498E+05,      /* I = 91 */
(PID.TID 0000.0001)                 2.294195678257306E+05,      /* I = 92 */
(PID.TID 0000.0001)                 2.135964483342134E+05,      /* I = 93 */
(PID.TID 0000.0001)                 1.946503699269892E+05,      /* I = 94 */
(PID.TID 0000.0001)                 1.709574999026266E+05,      /* I = 95 */
(PID.TID 0000.0001)                 1.391343389937105E+05,      /* I = 96 */
(PID.TID 0000.0001)                 1.114203141013064E+05,      /* I = 97 */
(PID.TID 0000.0001)                 1.391343389937105E+05,      /* I = 98 */
(PID.TID 0000.0001)                 1.709574999026266E+05,      /* I = 99 */
(PID.TID 0000.0001)                 1.946503699269892E+05,      /* I =100 */
(PID.TID 0000.0001)                 2.135964483342134E+05,      /* I =101 */
(PID.TID 0000.0001)                 2.294195678257306E+05,      /* I =102 */
(PID.TID 0000.0001)                 2.429464709770498E+05,      /* I =103 */
(PID.TID 0000.0001)                 2.546408290696998E+05,      /* I =104 */
(PID.TID 0000.0001)                 2.647791839299727E+05,      /* I =105 */
(PID.TID 0000.0001)                 2.735321911346108E+05,      /* I =106 */
(PID.TID 0000.0001)                 2.810065951609633E+05,      /* I =107 */
(PID.TID 0000.0001)                 2.872689479506989E+05,      /* I =108 */
(PID.TID 0000.0001)                 2.923599955312932E+05,      /* I =109 */
(PID.TID 0000.0001)                 2.963038832565530E+05,      /* I =110 */
(PID.TID 0000.0001)                 2.991142470004740E+05,      /* I =111 */
(PID.TID 0000.0001)                 3.007982711627968E+05,      /* I =112 */
(PID.TID 0000.0001)                 3.013593857228136E+05,      /* I =113 */
(PID.TID 0000.0001)                 3.007982711627968E+05,      /* I =114 */
(PID.TID 0000.0001)                 2.991142470004740E+05,      /* I =115 */
(PID.TID 0000.0001)                 2.963038832565530E+05,      /* I =116 */
(PID.TID 0000.0001)                 2.923599955312932E+05,      /* I =117 */
(PID.TID 0000.0001)                 2.872689479506989E+05,      /* I =118 */
(PID.TID 0000.0001)                 2.810065951609633E+05,      /* I =119 */
(PID.TID 0000.0001)                 2.735321911346108E+05,      /* I =120 */
(PID.TID 0000.0001)                 2.647791839299727E+05,      /* I =121 */
(PID.TID 0000.0001)                 2.546408290696998E+05,      /* I =122 */
(PID.TID 0000.0001)                 2.429464709770498E+05,      /* I =123 */
(PID.TID 0000.0001)                 2.294195678257306E+05,      /* I =124 */
(PID.TID 0000.0001)                 2.135964483342134E+05,      /* I =125 */
(PID.TID 0000.0001)                 1.946503699269892E+05,      /* I =126 */
(PID.TID 0000.0001)                 1.709574999026266E+05,      /* I =127 */
(PID.TID 0000.0001)                 1.391343389937105E+05,      /* I =128 */
(PID.TID 0000.0001)                 1.114203141013064E+05,      /* I =129 */
(PID.TID 0000.0001)                 1.391343389937105E+05,      /* I =130 */
(PID.TID 0000.0001)                 1.709574999026266E+05,      /* I =131 */
(PID.TID 0000.0001)                 1.946503699269892E+05,      /* I =132 */
(PID.TID 0000.0001)                 2.135964483342134E+05,      /* I =133 */
(PID.TID 0000.0001)                 2.294195678257306E+05,      /* I =134 */
(PID.TID 0000.0001)                 2.429464709770498E+05,      /* I =135 */
(PID.TID 0000.0001)                 2.546408290696998E+05,      /* I =136 */
(PID.TID 0000.0001)                 2.647791839299727E+05,      /* I =137 */
(PID.TID 0000.0001)                 2.735321911346108E+05,      /* I =138 */
(PID.TID 0000.0001)                 2.810065951609633E+05,      /* I =139 */
(PID.TID 0000.0001)                 2.872689479506989E+05,      /* I =140 */
(PID.TID 0000.0001)                 2.923599955312932E+05,      /* I =141 */
(PID.TID 0000.0001)                 2.963038832565530E+05,      /* I =142 */
(PID.TID 0000.0001)                 2.991142470004740E+05,      /* I =143 */
(PID.TID 0000.0001)                 3.007982711627968E+05,      /* I =144 */
(PID.TID 0000.0001)                 3.013593857228136E+05,      /* I =145 */
(PID.TID 0000.0001)                 3.007982711627968E+05,      /* I =146 */
(PID.TID 0000.0001)                 2.991142470004740E+05,      /* I =147 */
(PID.TID 0000.0001)                 2.963038832565530E+05,      /* I =148 */
(PID.TID 0000.0001)                 2.923599955312932E+05,      /* I =149 */
(PID.TID 0000.0001)                 2.872689479506989E+05,      /* I =150 */
(PID.TID 0000.0001)                 2.810065951609633E+05,      /* I =151 */
(PID.TID 0000.0001)                 2.735321911346108E+05,      /* I =152 */
(PID.TID 0000.0001)                 2.647791839299727E+05,      /* I =153 */
(PID.TID 0000.0001)                 2.546408290696998E+05,      /* I =154 */
(PID.TID 0000.0001)                 2.429464709770498E+05,      /* I =155 */
(PID.TID 0000.0001)                 2.294195678257306E+05,      /* I =156 */
(PID.TID 0000.0001)                 2.135964483342134E+05,      /* I =157 */
(PID.TID 0000.0001)                 1.946503699269892E+05,      /* I =158 */
(PID.TID 0000.0001)                 1.709574999026266E+05,      /* I =159 */
(PID.TID 0000.0001)                 1.391343389937105E+05,      /* I =160 */
(PID.TID 0000.0001)                 1.114203141013064E+05,      /* I =161 */
(PID.TID 0000.0001)                 1.391343389937105E+05,      /* I =162 */
(PID.TID 0000.0001)                 1.709574999026266E+05,      /* I =163 */
(PID.TID 0000.0001)                 1.946503699269892E+05,      /* I =164 */
(PID.TID 0000.0001)                 2.135964483342134E+05,      /* I =165 */
(PID.TID 0000.0001)                 2.294195678257306E+05,      /* I =166 */
(PID.TID 0000.0001)                 2.429464709770498E+05,      /* I =167 */
(PID.TID 0000.0001)                 2.546408290696998E+05,      /* I =168 */
(PID.TID 0000.0001)                 2.647791839299727E+05,      /* I =169 */
(PID.TID 0000.0001)                 2.735321911346108E+05,      /* I =170 */
(PID.TID 0000.0001)                 2.810065951609633E+05,      /* I =171 */
(PID.TID 0000.0001)                 2.872689479506989E+05,      /* I =172 */
(PID.TID 0000.0001)                 2.923599955312932E+05,      /* I =173 */
(PID.TID 0000.0001)                 2.963038832565530E+05,      /* I =174 */
(PID.TID 0000.0001)                 2.991142470004740E+05,      /* I =175 */
(PID.TID 0000.0001)                 3.007982711627968E+05,      /* I =176 */
(PID.TID 0000.0001)                 3.013593857228136E+05,      /* I =177 */
(PID.TID 0000.0001)                 3.007982711627968E+05,      /* I =178 */
(PID.TID 0000.0001)                 2.991142470004740E+05,      /* I =179 */
(PID.TID 0000.0001)                 2.963038832565530E+05,      /* I =180 */
(PID.TID 0000.0001)                 2.923599955312932E+05,      /* I =181 */
(PID.TID 0000.0001)                 2.872689479506989E+05,      /* I =182 */
(PID.TID 0000.0001)                 2.810065951609633E+05,      /* I =183 */
(PID.TID 0000.0001)                 2.735321911346108E+05,      /* I =184 */
(PID.TID 0000.0001)                 2.647791839299727E+05,      /* I =185 */
(PID.TID 0000.0001)                 2.546408290696998E+05,      /* I =186 */
(PID.TID 0000.0001)                 2.429464709770498E+05,      /* I =187 */
(PID.TID 0000.0001)                 2.294195678257306E+05,      /* I =188 */
(PID.TID 0000.0001)                 2.135964483342134E+05,      /* I =189 */
(PID.TID 0000.0001)                 1.946503699269892E+05,      /* I =190 */
(PID.TID 0000.0001)                 1.709574999026266E+05,      /* I =191 */
(PID.TID 0000.0001)                 1.391343389937105E+05       /* I =192 */
(PID.TID 0000.0001)     ;
(PID.TID 0000.0001) dxC =  /* dxC(1,:,1,:) ( m - cartesian, degrees - spherical ) */
(PID.TID 0000.0001)                 1.114203141013064E+05,      /* J =  1 */
(PID.TID 0000.0001)                 1.549545757850771E+05,      /* J =  2 */
(PID.TID 0000.0001)                 1.829777599966776E+05,      /* J =  3 */
(PID.TID 0000.0001)                 2.042717761866505E+05,      /* J =  4 */
(PID.TID 0000.0001)                 2.216367828252819E+05,      /* J =  5 */
(PID.TID 0000.0001)                 2.363029564123586E+05,      /* J =  6 */
(PID.TID 0000.0001)                 2.489113743322025E+05,      /* J =  7 */
(PID.TID 0000.0001)                 2.598293319150326E+05,      /* J =  8 */
(PID.TID 0000.0001)                 2.692787333338535E+05,      /* J =  9 */
(PID.TID 0000.0001)                 2.773972106720365E+05,      /* J = 10 */
(PID.TID 0000.0001)                 2.842706922224557E+05,      /* J = 11 */
(PID.TID 0000.0001)                 2.899523122489403E+05,      /* J = 12 */
(PID.TID 0000.0001)                 2.944741346384699E+05,      /* J = 13 */
(PID.TID 0000.0001)                 2.978547649292580E+05,      /* J = 14 */
(PID.TID 0000.0001)                 3.001044073506459E+05,      /* J = 15 */
(PID.TID 0000.0001)     2 @  3.012281885409289E+05,             /* J = 16: 17 */
(PID.TID 0000.0001)                 3.001044073506459E+05,      /* J = 18 */
(PID.TID 0000.0001)                 2.978547649292580E+05,      /* J = 19 */
(PID.TID 0000.0001)                 2.944741346384699E+05,      /* J = 20 */
(PID.TID 0000.0001)                 2.899523122489403E+05,      /* J = 21 */
(PID.TID 0000.0001)                 2.842706922224557E+05,      /* J = 22 */
(PID.TID 0000.0001)                 2.773972106720365E+05,      /* J = 23 */
(PID.TID 0000.0001)                 2.692787333338535E+05,      /* J = 24 */
(PID.TID 0000.0001)                 2.598293319150326E+05,      /* J = 25 */
(PID.TID 0000.0001)                 2.489113743322025E+05,      /* J = 26 */
(PID.TID 0000.0001)                 2.363029564123586E+05,      /* J = 27 */
(PID.TID 0000.0001)                 2.216367828252819E+05,      /* J = 28 */
(PID.TID 0000.0001)                 2.042717761866505E+05,      /* J = 29 */
(PID.TID 0000.0001)                 1.829777599966776E+05,      /* J = 30 */
(PID.TID 0000.0001)                 1.549545757850771E+05,      /* J = 31 */
(PID.TID 0000.0001)                 1.114203141013064E+05       /* J = 32 */
(PID.TID 0000.0001)     ;
(PID.TID 0000.0001) dyC =  /* dyC(:,1,:,1) ( m - cartesian, degrees - spherical ) */
(PID.TID 0000.0001)                 1.114203141013064E+05,      /* I =  1 */
(PID.TID 0000.0001)                 1.549545757850771E+05,      /* I =  2 */
(PID.TID 0000.0001)                 1.829777599966776E+05,      /* I =  3 */
(PID.TID 0000.0001)                 2.042717761866505E+05,      /* I =  4 */
(PID.TID 0000.0001)                 2.216367828252819E+05,      /* I =  5 */
(PID.TID 0000.0001)                 2.363029564123586E+05,      /* I =  6 */
(PID.TID 0000.0001)                 2.489113743322025E+05,      /* I =  7 */
(PID.TID 0000.0001)                 2.598293319150326E+05,      /* I =  8 */
(PID.TID 0000.0001)                 2.692787333338535E+05,      /* I =  9 */
(PID.TID 0000.0001)                 2.773972106720365E+05,      /* I = 10 */
(PID.TID 0000.0001)                 2.842706922224557E+05,      /* I = 11 */
(PID.TID 0000.0001)                 2.899523122489403E+05,      /* I = 12 */
(PID.TID 0000.0001)                 2.944741346384699E+05,      /* I = 13 */
(PID.TID 0000.0001)                 2.978547649292580E+05,      /* I = 14 */
(PID.TID 0000.0001)                 3.001044073506459E+05,      /* I = 15 */
(PID.TID 0000.0001)     2 @  3.012281885409289E+05,             /* I = 16: 17 */
(PID.TID 0000.0001)                 3.001044073506459E+05,      /* I = 18 */
(PID.TID 0000.0001)                 2.978547649292580E+05,      /* I = 19 */
(PID.TID 0000.0001)                 2.944741346384699E+05,      /* I = 20 */
(PID.TID 0000.0001)                 2.899523122489403E+05,      /* I = 21 */
(PID.TID 0000.0001)                 2.842706922224557E+05,      /* I = 22 */
(PID.TID 0000.0001)                 2.773972106720365E+05,      /* I = 23 */
(PID.TID 0000.0001)                 2.692787333338535E+05,      /* I = 24 */
(PID.TID 0000.0001)                 2.598293319150326E+05,      /* I = 25 */
(PID.TID 0000.0001)                 2.489113743322025E+05,      /* I = 26 */
(PID.TID 0000.0001)                 2.363029564123586E+05,      /* I = 27 */
(PID.TID 0000.0001)                 2.216367828252819E+05,      /* I = 28 */
(PID.TID 0000.0001)                 2.042717761866505E+05,      /* I = 29 */
(PID.TID 0000.0001)                 1.829777599966776E+05,      /* I = 30 */
(PID.TID 0000.0001)                 1.549545757850771E+05,      /* I = 31 */
(PID.TID 0000.0001)     2 @  1.114203141013064E+05,             /* I = 32: 33 */
(PID.TID 0000.0001)                 1.549545757850771E+05,      /* I = 34 */
(PID.TID 0000.0001)                 1.829777599966776E+05,      /* I = 35 */
(PID.TID 0000.0001)                 2.042717761866505E+05,      /* I = 36 */
(PID.TID 0000.0001)                 2.216367828252819E+05,      /* I = 37 */
(PID.TID 0000.0001)                 2.363029564123586E+05,      /* I = 38 */
(PID.TID 0000.0001)                 2.489113743322025E+05,      /* I = 39 */
(PID.TID 0000.0001)                 2.598293319150326E+05,      /* I = 40 */
(PID.TID 0000.0001)                 2.692787333338535E+05,      /* I = 41 */
(PID.TID 0000.0001)                 2.773972106720365E+05,      /* I = 42 */
(PID.TID 0000.0001)                 2.842706922224557E+05,      /* I = 43 */
(PID.TID 0000.0001)                 2.899523122489403E+05,      /* I = 44 */
(PID.TID 0000.0001)                 2.944741346384699E+05,      /* I = 45 */
(PID.TID 0000.0001)                 2.978547649292580E+05,      /* I = 46 */
(PID.TID 0000.0001)                 3.001044073506459E+05,      /* I = 47 */
(PID.TID 0000.0001)     2 @  3.012281885409289E+05,             /* I = 48: 49 */
(PID.TID 0000.0001)                 3.001044073506459E+05,      /* I = 50 */
(PID.TID 0000.0001)                 2.978547649292580E+05,      /* I = 51 */
(PID.TID 0000.0001)                 2.944741346384699E+05,      /* I = 52 */
(PID.TID 0000.0001)                 2.899523122489403E+05,      /* I = 53 */
(PID.TID 0000.0001)                 2.842706922224557E+05,      /* I = 54 */
(PID.TID 0000.0001)                 2.773972106720365E+05,      /* I = 55 */
(PID.TID 0000.0001)                 2.692787333338535E+05,      /* I = 56 */
(PID.TID 0000.0001)                 2.598293319150326E+05,      /* I = 57 */
(PID.TID 0000.0001)                 2.489113743322025E+05,      /* I = 58 */
(PID.TID 0000.0001)                 2.363029564123586E+05,      /* I = 59 */
(PID.TID 0000.0001)                 2.216367828252819E+05,      /* I = 60 */
(PID.TID 0000.0001)                 2.042717761866505E+05,      /* I = 61 */
(PID.TID 0000.0001)                 1.829777599966776E+05,      /* I = 62 */
(PID.TID 0000.0001)                 1.549545757850771E+05,      /* I = 63 */
(PID.TID 0000.0001)     2 @  1.114203141013064E+05,             /* I = 64: 65 */
(PID.TID 0000.0001)                 1.549545757850771E+05,      /* I = 66 */
(PID.TID 0000.0001)                 1.829777599966776E+05,      /* I = 67 */
(PID.TID 0000.0001)                 2.042717761866505E+05,      /* I = 68 */
(PID.TID 0000.0001)                 2.216367828252819E+05,      /* I = 69 */
(PID.TID 0000.0001)                 2.363029564123586E+05,      /* I = 70 */
(PID.TID 0000.0001)                 2.489113743322025E+05,      /* I = 71 */
(PID.TID 0000.0001)                 2.598293319150326E+05,      /* I = 72 */
(PID.TID 0000.0001)                 2.692787333338535E+05,      /* I = 73 */
(PID.TID 0000.0001)                 2.773972106720365E+05,      /* I = 74 */
(PID.TID 0000.0001)                 2.842706922224557E+05,      /* I = 75 */
(PID.TID 0000.0001)                 2.899523122489403E+05,      /* I = 76 */
(PID.TID 0000.0001)                 2.944741346384699E+05,      /* I = 77 */
(PID.TID 0000.0001)                 2.978547649292580E+05,      /* I = 78 */
(PID.TID 0000.0001)                 3.001044073506459E+05,      /* I = 79 */
(PID.TID 0000.0001)     2 @  3.012281885409289E+05,             /* I = 80: 81 */
(PID.TID 0000.0001)                 3.001044073506459E+05,      /* I = 82 */
(PID.TID 0000.0001)                 2.978547649292580E+05,      /* I = 83 */
(PID.TID 0000.0001)                 2.944741346384699E+05,      /* I = 84 */
(PID.TID 0000.0001)                 2.899523122489403E+05,      /* I = 85 */
(PID.TID 0000.0001)                 2.842706922224557E+05,      /* I = 86 */
(PID.TID 0000.0001)                 2.773972106720365E+05,      /* I = 87 */
(PID.TID 0000.0001)                 2.692787333338535E+05,      /* I = 88 */
(PID.TID 0000.0001)                 2.598293319150326E+05,      /* I = 89 */
(PID.TID 0000.0001)                 2.489113743322025E+05,      /* I = 90 */
(PID.TID 0000.0001)                 2.363029564123586E+05,      /* I = 91 */
(PID.TID 0000.0001)                 2.216367828252819E+05,      /* I = 92 */
(PID.TID 0000.0001)                 2.042717761866505E+05,      /* I = 93 */
(PID.TID 0000.0001)                 1.829777599966776E+05,      /* I = 94 */
(PID.TID 0000.0001)                 1.549545757850771E+05,      /* I = 95 */
(PID.TID 0000.0001)     2 @  1.114203141013064E+05,             /* I = 96: 97 */
(PID.TID 0000.0001)                 1.549545757850771E+05,      /* I = 98 */
(PID.TID 0000.0001)                 1.829777599966776E+05,      /* I = 99 */
(PID.TID 0000.0001)                 2.042717761866505E+05,      /* I =100 */
(PID.TID 0000.0001)                 2.216367828252819E+05,      /* I =101 */
(PID.TID 0000.0001)                 2.363029564123586E+05,      /* I =102 */
(PID.TID 0000.0001)                 2.489113743322025E+05,      /* I =103 */
(PID.TID 0000.0001)                 2.598293319150326E+05,      /* I =104 */
(PID.TID 0000.0001)                 2.692787333338535E+05,      /* I =105 */
(PID.TID 0000.0001)                 2.773972106720365E+05,      /* I =106 */
(PID.TID 0000.0001)                 2.842706922224557E+05,      /* I =107 */
(PID.TID 0000.0001)                 2.899523122489403E+05,      /* I =108 */
(PID.TID 0000.0001)                 2.944741346384699E+05,      /* I =109 */
(PID.TID 0000.0001)                 2.978547649292580E+05,      /* I =110 */
(PID.TID 0000.0001)                 3.001044073506459E+05,      /* I =111 */
(PID.TID 0000.0001)     2 @  3.012281885409289E+05,             /* I =112:113 */
(PID.TID 0000.0001)                 3.001044073506459E+05,      /* I =114 */
(PID.TID 0000.0001)                 2.978547649292580E+05,      /* I =115 */
(PID.TID 0000.0001)                 2.944741346384699E+05,      /* I =116 */
(PID.TID 0000.0001)                 2.899523122489403E+05,      /* I =117 */
(PID.TID 0000.0001)                 2.842706922224557E+05,      /* I =118 */
(PID.TID 0000.0001)                 2.773972106720365E+05,      /* I =119 */
(PID.TID 0000.0001)                 2.692787333338535E+05,      /* I =120 */
(PID.TID 0000.0001)                 2.598293319150326E+05,      /* I =121 */
(PID.TID 0000.0001)                 2.489113743322025E+05,      /* I =122 */
(PID.TID 0000.0001)                 2.363029564123586E+05,      /* I =123 */
(PID.TID 0000.0001)                 2.216367828252819E+05,      /* I =124 */
(PID.TID 0000.0001)                 2.042717761866505E+05,      /* I =125 */
(PID.TID 0000.0001)                 1.829777599966776E+05,      /* I =126 */
(PID.TID 0000.0001)                 1.549545757850771E+05,      /* I =127 */
(PID.TID 0000.0001)     2 @  1.114203141013064E+05,             /* I =128:129 */
(PID.TID 0000.0001)                 1.549545757850771E+05,      /* I =130 */
(PID.TID 0000.0001)                 1.829777599966776E+05,      /* I =131 */
(PID.TID 0000.0001)                 2.042717761866505E+05,      /* I =132 */
(PID.TID 0000.0001)                 2.216367828252819E+05,      /* I =133 */
(PID.TID 0000.0001)                 2.363029564123586E+05,      /* I =134 */
(PID.TID 0000.0001)                 2.489113743322025E+05,      /* I =135 */
(PID.TID 0000.0001)                 2.598293319150326E+05,      /* I =136 */
(PID.TID 0000.0001)                 2.692787333338535E+05,      /* I =137 */
(PID.TID 0000.0001)                 2.773972106720365E+05,      /* I =138 */
(PID.TID 0000.0001)                 2.842706922224557E+05,      /* I =139 */
(PID.TID 0000.0001)                 2.899523122489403E+05,      /* I =140 */
(PID.TID 0000.0001)                 2.944741346384699E+05,      /* I =141 */
(PID.TID 0000.0001)                 2.978547649292580E+05,      /* I =142 */
(PID.TID 0000.0001)                 3.001044073506459E+05,      /* I =143 */
(PID.TID 0000.0001)     2 @  3.012281885409289E+05,             /* I =144:145 */
(PID.TID 0000.0001)                 3.001044073506459E+05,      /* I =146 */
(PID.TID 0000.0001)                 2.978547649292580E+05,      /* I =147 */
(PID.TID 0000.0001)                 2.944741346384699E+05,      /* I =148 */
(PID.TID 0000.0001)                 2.899523122489403E+05,      /* I =149 */
(PID.TID 0000.0001)                 2.842706922224557E+05,      /* I =150 */
(PID.TID 0000.0001)                 2.773972106720365E+05,      /* I =151 */
(PID.TID 0000.0001)                 2.692787333338535E+05,      /* I =152 */
(PID.TID 0000.0001)                 2.598293319150326E+05,      /* I =153 */
(PID.TID 0000.0001)                 2.489113743322025E+05,      /* I =154 */
(PID.TID 0000.0001)                 2.363029564123586E+05,      /* I =155 */
(PID.TID 0000.0001)                 2.216367828252819E+05,      /* I =156 */
(PID.TID 0000.0001)                 2.042717761866505E+05,      /* I =157 */
(PID.TID 0000.0001)                 1.829777599966776E+05,      /* I =158 */
(PID.TID 0000.0001)                 1.549545757850771E+05,      /* I =159 */
(PID.TID 0000.0001)     2 @  1.114203141013064E+05,             /* I =160:161 */
(PID.TID 0000.0001)                 1.549545757850771E+05,      /* I =162 */
(PID.TID 0000.0001)                 1.829777599966776E+05,      /* I =163 */
(PID.TID 0000.0001)                 2.042717761866505E+05,      /* I =164 */
(PID.TID 0000.0001)                 2.216367828252819E+05,      /* I =165 */
(PID.TID 0000.0001)                 2.363029564123586E+05,      /* I =166 */
(PID.TID 0000.0001)                 2.489113743322025E+05,      /* I =167 */
(PID.TID 0000.0001)                 2.598293319150326E+05,      /* I =168 */
(PID.TID 0000.0001)                 2.692787333338535E+05,      /* I =169 */
(PID.TID 0000.0001)                 2.773972106720365E+05,      /* I =170 */
(PID.TID 0000.0001)                 2.842706922224557E+05,      /* I =171 */
(PID.TID 0000.0001)                 2.899523122489403E+05,      /* I =172 */
(PID.TID 0000.0001)                 2.944741346384699E+05,      /* I =173 */
(PID.TID 0000.0001)                 2.978547649292580E+05,      /* I =174 */
(PID.TID 0000.0001)                 3.001044073506459E+05,      /* I =175 */
(PID.TID 0000.0001)     2 @  3.012281885409289E+05,             /* I =176:177 */
(PID.TID 0000.0001)                 3.001044073506459E+05,      /* I =178 */
(PID.TID 0000.0001)                 2.978547649292580E+05,      /* I =179 */
(PID.TID 0000.0001)                 2.944741346384699E+05,      /* I =180 */
(PID.TID 0000.0001)                 2.899523122489403E+05,      /* I =181 */
(PID.TID 0000.0001)                 2.842706922224557E+05,      /* I =182 */
(PID.TID 0000.0001)                 2.773972106720365E+05,      /* I =183 */
(PID.TID 0000.0001)                 2.692787333338535E+05,      /* I =184 */
(PID.TID 0000.0001)                 2.598293319150326E+05,      /* I =185 */
(PID.TID 0000.0001)                 2.489113743322025E+05,      /* I =186 */
(PID.TID 0000.0001)                 2.363029564123586E+05,      /* I =187 */
(PID.TID 0000.0001)                 2.216367828252819E+05,      /* I =188 */
(PID.TID 0000.0001)                 2.042717761866505E+05,      /* I =189 */
(PID.TID 0000.0001)                 1.829777599966776E+05,      /* I =190 */
(PID.TID 0000.0001)                 1.549545757850771E+05,      /* I =191 */
(PID.TID 0000.0001)                 1.114203141013064E+05       /* I =192 */
(PID.TID 0000.0001)     ;
(PID.TID 0000.0001) dyC =  /* dyC(1,:,1,:) ( m - cartesian, degrees - spherical ) */
(PID.TID 0000.0001)                 1.114203141013064E+05,      /* J =  1 */
(PID.TID 0000.0001)                 1.391343389937105E+05,      /* J =  2 */
(PID.TID 0000.0001)                 1.709574999026266E+05,      /* J =  3 */
(PID.TID 0000.0001)                 1.946503699269892E+05,      /* J =  4 */
(PID.TID 0000.0001)                 2.135964483342134E+05,      /* J =  5 */
(PID.TID 0000.0001)                 2.294195678257306E+05,      /* J =  6 */
(PID.TID 0000.0001)                 2.429464709770498E+05,      /* J =  7 */
(PID.TID 0000.0001)                 2.546408290696998E+05,      /* J =  8 */
(PID.TID 0000.0001)                 2.647791839299727E+05,      /* J =  9 */
(PID.TID 0000.0001)                 2.735321911346108E+05,      /* J = 10 */
(PID.TID 0000.0001)                 2.810065951609633E+05,      /* J = 11 */
(PID.TID 0000.0001)                 2.872689479506989E+05,      /* J = 12 */
(PID.TID 0000.0001)                 2.923599955312932E+05,      /* J = 13 */
(PID.TID 0000.0001)                 2.963038832565530E+05,      /* J = 14 */
(PID.TID 0000.0001)                 2.991142470004740E+05,      /* J = 15 */
(PID.TID 0000.0001)                 3.007982711627968E+05,      /* J = 16 */
(PID.TID 0000.0001)                 3.013593857228136E+05,      /* J = 17 */
(PID.TID 0000.0001)                 3.007982711627968E+05,      /* J = 18 */
(PID.TID 0000.0001)                 2.991142470004740E+05,      /* J = 19 */
(PID.TID 0000.0001)                 2.963038832565530E+05,      /* J = 20 */
(PID.TID 0000.0001)                 2.923599955312932E+05,      /* J = 21 */
(PID.TID 0000.0001)                 2.872689479506989E+05,      /* J = 22 */
(PID.TID 0000.0001)                 2.810065951609633E+05,      /* J = 23 */
(PID.TID 0000.0001)                 2.735321911346108E+05,      /* J = 24 */
(PID.TID 0000.0001)                 2.647791839299727E+05,      /* J = 25 */
(PID.TID 0000.0001)                 2.546408290696998E+05,      /* J = 26 */
(PID.TID 0000.0001)                 2.429464709770498E+05,      /* J = 27 */
(PID.TID 0000.0001)                 2.294195678257306E+05,      /* J = 28 */
(PID.TID 0000.0001)                 2.135964483342134E+05,      /* J = 29 */
(PID.TID 0000.0001)                 1.946503699269892E+05,      /* J = 30 */
(PID.TID 0000.0001)                 1.709574999026266E+05,      /* J = 31 */
(PID.TID 0000.0001)                 1.391343389937105E+05       /* J = 32 */
(PID.TID 0000.0001)     ;
(PID.TID 0000.0001) dxV =  /* dxV(:,1,:,1) ( m - cartesian, degrees - spherical ) */
(PID.TID 0000.0001)                 8.015229982413632E+04,      /* I =  1 */
(PID.TID 0000.0001)                 1.333130744933864E+05,      /* I =  2 */
(PID.TID 0000.0001)                 1.691744868129062E+05,      /* I =  3 */
(PID.TID 0000.0001)                 1.937548202849059E+05,      /* I =  4 */
(PID.TID 0000.0001)                 2.130490056267208E+05,      /* I =  5 */
(PID.TID 0000.0001)                 2.290479919481738E+05,      /* I =  6 */
(PID.TID 0000.0001)                 2.426774358027004E+05,      /* I =  7 */
(PID.TID 0000.0001)                 2.544372984215561E+05,      /* I =  8 */
(PID.TID 0000.0001)                 2.646201463834826E+05,      /* I =  9 */
(PID.TID 0000.0001)                 2.734046499619030E+05,      /* I = 10 */
(PID.TID 0000.0001)                 2.809019351693761E+05,      /* I = 11 */
(PID.TID 0000.0001)                 2.871811105274442E+05,      /* I = 12 */
(PID.TID 0000.0001)                 2.922844849381675E+05,      /* I = 13 */
(PID.TID 0000.0001)                 2.962371870847826E+05,      /* I = 14 */
(PID.TID 0000.0001)                 2.990534755671296E+05,      /* I = 15 */
(PID.TID 0000.0001)                 3.007409169495504E+05,      /* I = 16 */
(PID.TID 0000.0001)                 3.013031486919771E+05,      /* I = 17 */
(PID.TID 0000.0001)                 3.007409169495504E+05,      /* I = 18 */
(PID.TID 0000.0001)                 2.990534755671296E+05,      /* I = 19 */
(PID.TID 0000.0001)                 2.962371870847826E+05,      /* I = 20 */
(PID.TID 0000.0001)                 2.922844849381675E+05,      /* I = 21 */
(PID.TID 0000.0001)                 2.871811105274442E+05,      /* I = 22 */
(PID.TID 0000.0001)                 2.809019351693761E+05,      /* I = 23 */
(PID.TID 0000.0001)                 2.734046499619030E+05,      /* I = 24 */
(PID.TID 0000.0001)                 2.646201463834826E+05,      /* I = 25 */
(PID.TID 0000.0001)                 2.544372984215561E+05,      /* I = 26 */
(PID.TID 0000.0001)                 2.426774358027004E+05,      /* I = 27 */
(PID.TID 0000.0001)                 2.290479919481738E+05,      /* I = 28 */
(PID.TID 0000.0001)                 2.130490056267208E+05,      /* I = 29 */
(PID.TID 0000.0001)                 1.937548202849059E+05,      /* I = 30 */
(PID.TID 0000.0001)                 1.691744868129062E+05,      /* I = 31 */
(PID.TID 0000.0001)                 1.333130744933864E+05,      /* I = 32 */
(PID.TID 0000.0001)                 8.015229982413632E+04,      /* I = 33 */
(PID.TID 0000.0001)                 1.333130744933864E+05,      /* I = 34 */
(PID.TID 0000.0001)                 1.691744868129062E+05,      /* I = 35 */
(PID.TID 0000.0001)                 1.937548202849059E+05,      /* I = 36 */
(PID.TID 0000.0001)                 2.130490056267208E+05,      /* I = 37 */
(PID.TID 0000.0001)                 2.290479919481738E+05,      /* I = 38 */
(PID.TID 0000.0001)                 2.426774358027004E+05,      /* I = 39 */
(PID.TID 0000.0001)                 2.544372984215561E+05,      /* I = 40 */
(PID.TID 0000.0001)                 2.646201463834826E+05,      /* I = 41 */
(PID.TID 0000.0001)                 2.734046499619030E+05,      /* I = 42 */
(PID.TID 0000.0001)                 2.809019351693761E+05,      /* I = 43 */
(PID.TID 0000.0001)                 2.871811105274442E+05,      /* I = 44 */
(PID.TID 0000.0001)                 2.922844849381675E+05,      /* I = 45 */
(PID.TID 0000.0001)                 2.962371870847826E+05,      /* I = 46 */
(PID.TID 0000.0001)                 2.990534755671296E+05,      /* I = 47 */
(PID.TID 0000.0001)                 3.007409169495504E+05,      /* I = 48 */
(PID.TID 0000.0001)                 3.013031486919771E+05,      /* I = 49 */
(PID.TID 0000.0001)                 3.007409169495504E+05,      /* I = 50 */
(PID.TID 0000.0001)                 2.990534755671296E+05,      /* I = 51 */
(PID.TID 0000.0001)                 2.962371870847826E+05,      /* I = 52 */
(PID.TID 0000.0001)                 2.922844849381675E+05,      /* I = 53 */
(PID.TID 0000.0001)                 2.871811105274442E+05,      /* I = 54 */
(PID.TID 0000.0001)                 2.809019351693761E+05,      /* I = 55 */
(PID.TID 0000.0001)                 2.734046499619030E+05,      /* I = 56 */
(PID.TID 0000.0001)                 2.646201463834826E+05,      /* I = 57 */
(PID.TID 0000.0001)                 2.544372984215561E+05,      /* I = 58 */
(PID.TID 0000.0001)                 2.426774358027004E+05,      /* I = 59 */
(PID.TID 0000.0001)                 2.290479919481738E+05,      /* I = 60 */
(PID.TID 0000.0001)                 2.130490056267208E+05,      /* I = 61 */
(PID.TID 0000.0001)                 1.937548202849059E+05,      /* I = 62 */
(PID.TID 0000.0001)                 1.691744868129062E+05,      /* I = 63 */
(PID.TID 0000.0001)                 1.333130744933864E+05,      /* I = 64 */
(PID.TID 0000.0001)                 8.015229982413632E+04,      /* I = 65 */
(PID.TID 0000.0001)                 1.333130744933864E+05,      /* I = 66 */
(PID.TID 0000.0001)                 1.691744868129062E+05,      /* I = 67 */
(PID.TID 0000.0001)                 1.937548202849059E+05,      /* I = 68 */
(PID.TID 0000.0001)                 2.130490056267208E+05,      /* I = 69 */
(PID.TID 0000.0001)                 2.290479919481738E+05,      /* I = 70 */
(PID.TID 0000.0001)                 2.426774358027004E+05,      /* I = 71 */
(PID.TID 0000.0001)                 2.544372984215561E+05,      /* I = 72 */
(PID.TID 0000.0001)                 2.646201463834826E+05,      /* I = 73 */
(PID.TID 0000.0001)                 2.734046499619030E+05,      /* I = 74 */
(PID.TID 0000.0001)                 2.809019351693761E+05,      /* I = 75 */
(PID.TID 0000.0001)                 2.871811105274442E+05,      /* I = 76 */
(PID.TID 0000.0001)                 2.922844849381675E+05,      /* I = 77 */
(PID.TID 0000.0001)                 2.962371870847826E+05,      /* I = 78 */
(PID.TID 0000.0001)                 2.990534755671296E+05,      /* I = 79 */
(PID.TID 0000.0001)                 3.007409169495504E+05,      /* I = 80 */
(PID.TID 0000.0001)                 3.013031486919771E+05,      /* I = 81 */
(PID.TID 0000.0001)                 3.007409169495504E+05,      /* I = 82 */
(PID.TID 0000.0001)                 2.990534755671296E+05,      /* I = 83 */
(PID.TID 0000.0001)                 2.962371870847826E+05,      /* I = 84 */
(PID.TID 0000.0001)                 2.922844849381675E+05,      /* I = 85 */
(PID.TID 0000.0001)                 2.871811105274442E+05,      /* I = 86 */
(PID.TID 0000.0001)                 2.809019351693761E+05,      /* I = 87 */
(PID.TID 0000.0001)                 2.734046499619030E+05,      /* I = 88 */
(PID.TID 0000.0001)                 2.646201463834826E+05,      /* I = 89 */
(PID.TID 0000.0001)                 2.544372984215561E+05,      /* I = 90 */
(PID.TID 0000.0001)                 2.426774358027004E+05,      /* I = 91 */
(PID.TID 0000.0001)                 2.290479919481738E+05,      /* I = 92 */
(PID.TID 0000.0001)                 2.130490056267208E+05,      /* I = 93 */
(PID.TID 0000.0001)                 1.937548202849059E+05,      /* I = 94 */
(PID.TID 0000.0001)                 1.691744868129062E+05,      /* I = 95 */
(PID.TID 0000.0001)                 1.333130744933864E+05,      /* I = 96 */
(PID.TID 0000.0001)                 8.015229982413632E+04,      /* I = 97 */
(PID.TID 0000.0001)                 1.333130744933864E+05,      /* I = 98 */
(PID.TID 0000.0001)                 1.691744868129062E+05,      /* I = 99 */
(PID.TID 0000.0001)                 1.937548202849059E+05,      /* I =100 */
(PID.TID 0000.0001)                 2.130490056267208E+05,      /* I =101 */
(PID.TID 0000.0001)                 2.290479919481738E+05,      /* I =102 */
(PID.TID 0000.0001)                 2.426774358027004E+05,      /* I =103 */
(PID.TID 0000.0001)                 2.544372984215561E+05,      /* I =104 */
(PID.TID 0000.0001)                 2.646201463834826E+05,      /* I =105 */
(PID.TID 0000.0001)                 2.734046499619030E+05,      /* I =106 */
(PID.TID 0000.0001)                 2.809019351693761E+05,      /* I =107 */
(PID.TID 0000.0001)                 2.871811105274442E+05,      /* I =108 */
(PID.TID 0000.0001)                 2.922844849381675E+05,      /* I =109 */
(PID.TID 0000.0001)                 2.962371870847826E+05,      /* I =110 */
(PID.TID 0000.0001)                 2.990534755671296E+05,      /* I =111 */
(PID.TID 0000.0001)                 3.007409169495504E+05,      /* I =112 */
(PID.TID 0000.0001)                 3.013031486919771E+05,      /* I =113 */
(PID.TID 0000.0001)                 3.007409169495504E+05,      /* I =114 */
(PID.TID 0000.0001)                 2.990534755671296E+05,      /* I =115 */
(PID.TID 0000.0001)                 2.962371870847826E+05,      /* I =116 */
(PID.TID 0000.0001)                 2.922844849381675E+05,      /* I =117 */
(PID.TID 0000.0001)                 2.871811105274442E+05,      /* I =118 */
(PID.TID 0000.0001)                 2.809019351693761E+05,      /* I =119 */
(PID.TID 0000.0001)                 2.734046499619030E+05,      /* I =120 */
(PID.TID 0000.0001)                 2.646201463834826E+05,      /* I =121 */
(PID.TID 0000.0001)                 2.544372984215561E+05,      /* I =122 */
(PID.TID 0000.0001)                 2.426774358027004E+05,      /* I =123 */
(PID.TID 0000.0001)                 2.290479919481738E+05,      /* I =124 */
(PID.TID 0000.0001)                 2.130490056267208E+05,      /* I =125 */
(PID.TID 0000.0001)                 1.937548202849059E+05,      /* I =126 */
(PID.TID 0000.0001)                 1.691744868129062E+05,      /* I =127 */
(PID.TID 0000.0001)                 1.333130744933864E+05,      /* I =128 */
(PID.TID 0000.0001)                 8.015229982413632E+04,      /* I =129 */
(PID.TID 0000.0001)                 1.333130744933864E+05,      /* I =130 */
(PID.TID 0000.0001)                 1.691744868129062E+05,      /* I =131 */
(PID.TID 0000.0001)                 1.937548202849059E+05,      /* I =132 */
(PID.TID 0000.0001)                 2.130490056267208E+05,      /* I =133 */
(PID.TID 0000.0001)                 2.290479919481738E+05,      /* I =134 */
(PID.TID 0000.0001)                 2.426774358027004E+05,      /* I =135 */
(PID.TID 0000.0001)                 2.544372984215561E+05,      /* I =136 */
(PID.TID 0000.0001)                 2.646201463834826E+05,      /* I =137 */
(PID.TID 0000.0001)                 2.734046499619030E+05,      /* I =138 */
(PID.TID 0000.0001)                 2.809019351693761E+05,      /* I =139 */
(PID.TID 0000.0001)                 2.871811105274442E+05,      /* I =140 */
(PID.TID 0000.0001)                 2.922844849381675E+05,      /* I =141 */
(PID.TID 0000.0001)                 2.962371870847826E+05,      /* I =142 */
(PID.TID 0000.0001)                 2.990534755671296E+05,      /* I =143 */
(PID.TID 0000.0001)                 3.007409169495504E+05,      /* I =144 */
(PID.TID 0000.0001)                 3.013031486919771E+05,      /* I =145 */
(PID.TID 0000.0001)                 3.007409169495504E+05,      /* I =146 */
(PID.TID 0000.0001)                 2.990534755671296E+05,      /* I =147 */
(PID.TID 0000.0001)                 2.962371870847826E+05,      /* I =148 */
(PID.TID 0000.0001)                 2.922844849381675E+05,      /* I =149 */
(PID.TID 0000.0001)                 2.871811105274442E+05,      /* I =150 */
(PID.TID 0000.0001)                 2.809019351693761E+05,      /* I =151 */
(PID.TID 0000.0001)                 2.734046499619030E+05,      /* I =152 */
(PID.TID 0000.0001)                 2.646201463834826E+05,      /* I =153 */
(PID.TID 0000.0001)                 2.544372984215561E+05,      /* I =154 */
(PID.TID 0000.0001)                 2.426774358027004E+05,      /* I =155 */
(PID.TID 0000.0001)                 2.290479919481738E+05,      /* I =156 */
(PID.TID 0000.0001)                 2.130490056267208E+05,      /* I =157 */
(PID.TID 0000.0001)                 1.937548202849059E+05,      /* I =158 */
(PID.TID 0000.0001)                 1.691744868129062E+05,      /* I =159 */
(PID.TID 0000.0001)                 1.333130744933864E+05,      /* I =160 */
(PID.TID 0000.0001)                 8.015229982413632E+04,      /* I =161 */
(PID.TID 0000.0001)                 1.333130744933864E+05,      /* I =162 */
(PID.TID 0000.0001)                 1.691744868129062E+05,      /* I =163 */
(PID.TID 0000.0001)                 1.937548202849059E+05,      /* I =164 */
(PID.TID 0000.0001)                 2.130490056267208E+05,      /* I =165 */
(PID.TID 0000.0001)                 2.290479919481738E+05,      /* I =166 */
(PID.TID 0000.0001)                 2.426774358027004E+05,      /* I =167 */
(PID.TID 0000.0001)                 2.544372984215561E+05,      /* I =168 */
(PID.TID 0000.0001)                 2.646201463834826E+05,      /* I =169 */
(PID.TID 0000.0001)                 2.734046499619030E+05,      /* I =170 */
(PID.TID 0000.0001)                 2.809019351693761E+05,      /* I =171 */
(PID.TID 0000.0001)                 2.871811105274442E+05,      /* I =172 */
(PID.TID 0000.0001)                 2.922844849381675E+05,      /* I =173 */
(PID.TID 0000.0001)                 2.962371870847826E+05,      /* I =174 */
(PID.TID 0000.0001)                 2.990534755671296E+05,      /* I =175 */
(PID.TID 0000.0001)                 3.007409169495504E+05,      /* I =176 */
(PID.TID 0000.0001)                 3.013031486919771E+05,      /* I =177 */
(PID.TID 0000.0001)                 3.007409169495504E+05,      /* I =178 */
(PID.TID 0000.0001)                 2.990534755671296E+05,      /* I =179 */
(PID.TID 0000.0001)                 2.962371870847826E+05,      /* I =180 */
(PID.TID 0000.0001)                 2.922844849381675E+05,      /* I =181 */
(PID.TID 0000.0001)                 2.871811105274442E+05,      /* I =182 */
(PID.TID 0000.0001)                 2.809019351693761E+05,      /* I =183 */
(PID.TID 0000.0001)                 2.734046499619030E+05,      /* I =184 */
(PID.TID 0000.0001)                 2.646201463834826E+05,      /* I =185 */
(PID.TID 0000.0001)                 2.544372984215561E+05,      /* I =186 */
(PID.TID 0000.0001)                 2.426774358027004E+05,      /* I =187 */
(PID.TID 0000.0001)                 2.290479919481738E+05,      /* I =188 */
(PID.TID 0000.0001)                 2.130490056267208E+05,      /* I =189 */
(PID.TID 0000.0001)                 1.937548202849059E+05,      /* I =190 */
(PID.TID 0000.0001)                 1.691744868129062E+05,      /* I =191 */
(PID.TID 0000.0001)                 1.333130744933864E+05       /* I =192 */
(PID.TID 0000.0001)     ;
(PID.TID 0000.0001) dxV =  /* dxV(1,:,1,:) ( m - cartesian, degrees - spherical ) */
(PID.TID 0000.0001)                 8.015229982413632E+04,      /* J =  1 */
(PID.TID 0000.0001)                 1.362652340208229E+05,      /* J =  2 */
(PID.TID 0000.0001)                 1.701080315742101E+05,      /* J =  3 */
(PID.TID 0000.0001)                 1.942331448101592E+05,      /* J =  4 */
(PID.TID 0000.0001)                 2.133486626971531E+05,      /* J =  5 */
(PID.TID 0000.0001)                 2.292584591272880E+05,      /* J =  6 */
(PID.TID 0000.0001)                 2.428369969078989E+05,      /* J =  7 */
(PID.TID 0000.0001)                 2.545652950875683E+05,      /* J =  8 */
(PID.TID 0000.0001)                 2.647274964828302E+05,      /* J =  9 */
(PID.TID 0000.0001)                 2.734980225206389E+05,      /* J = 10 */
(PID.TID 0000.0001)                 2.809856491525217E+05,      /* J = 11 */
(PID.TID 0000.0001)                 2.872580915202295E+05,      /* J = 12 */
(PID.TID 0000.0001)                 2.923567890694162E+05,      /* J = 13 */
(PID.TID 0000.0001)                 2.963063101754721E+05,      /* J = 14 */
(PID.TID 0000.0001)                 2.991205495886625E+05,      /* J = 15 */
(PID.TID 0000.0001)                 3.008068453676764E+05,      /* J = 16 */
(PID.TID 0000.0001)                 3.013686170436881E+05,      /* J = 17 */
(PID.TID 0000.0001)                 3.008068453676764E+05,      /* J = 18 */
(PID.TID 0000.0001)                 2.991205495886625E+05,      /* J = 19 */
(PID.TID 0000.0001)                 2.963063101754721E+05,      /* J = 20 */
(PID.TID 0000.0001)                 2.923567890694162E+05,      /* J = 21 */
(PID.TID 0000.0001)                 2.872580915202295E+05,      /* J = 22 */
(PID.TID 0000.0001)                 2.809856491525217E+05,      /* J = 23 */
(PID.TID 0000.0001)                 2.734980225206389E+05,      /* J = 24 */
(PID.TID 0000.0001)                 2.647274964828302E+05,      /* J = 25 */
(PID.TID 0000.0001)                 2.545652950875683E+05,      /* J = 26 */
(PID.TID 0000.0001)                 2.428369969078989E+05,      /* J = 27 */
(PID.TID 0000.0001)                 2.292584591272880E+05,      /* J = 28 */
(PID.TID 0000.0001)                 2.133486626971531E+05,      /* J = 29 */
(PID.TID 0000.0001)                 1.942331448101592E+05,      /* J = 30 */
(PID.TID 0000.0001)                 1.701080315742101E+05,      /* J = 31 */
(PID.TID 0000.0001)                 1.362652340208229E+05       /* J = 32 */
(PID.TID 0000.0001)     ;
(PID.TID 0000.0001) dyU =  /* dyU(:,1,:,1) ( m - cartesian, degrees - spherical ) */
(PID.TID 0000.0001)                 8.015229982413632E+04,      /* I =  1 */
(PID.TID 0000.0001)                 1.362652340208229E+05,      /* I =  2 */
(PID.TID 0000.0001)                 1.701080315742101E+05,      /* I =  3 */
(PID.TID 0000.0001)                 1.942331448101592E+05,      /* I =  4 */
(PID.TID 0000.0001)                 2.133486626971531E+05,      /* I =  5 */
(PID.TID 0000.0001)                 2.292584591272880E+05,      /* I =  6 */
(PID.TID 0000.0001)                 2.428369969078989E+05,      /* I =  7 */
(PID.TID 0000.0001)                 2.545652950875683E+05,      /* I =  8 */
(PID.TID 0000.0001)                 2.647274964828302E+05,      /* I =  9 */
(PID.TID 0000.0001)                 2.734980225206389E+05,      /* I = 10 */
(PID.TID 0000.0001)                 2.809856491525217E+05,      /* I = 11 */
(PID.TID 0000.0001)                 2.872580915202295E+05,      /* I = 12 */
(PID.TID 0000.0001)                 2.923567890694162E+05,      /* I = 13 */
(PID.TID 0000.0001)                 2.963063101754721E+05,      /* I = 14 */
(PID.TID 0000.0001)                 2.991205495886625E+05,      /* I = 15 */
(PID.TID 0000.0001)                 3.008068453676764E+05,      /* I = 16 */
(PID.TID 0000.0001)                 3.013686170436881E+05,      /* I = 17 */
(PID.TID 0000.0001)                 3.008068453676764E+05,      /* I = 18 */
(PID.TID 0000.0001)                 2.991205495886625E+05,      /* I = 19 */
(PID.TID 0000.0001)                 2.963063101754721E+05,      /* I = 20 */
(PID.TID 0000.0001)                 2.923567890694162E+05,      /* I = 21 */
(PID.TID 0000.0001)                 2.872580915202295E+05,      /* I = 22 */
(PID.TID 0000.0001)                 2.809856491525217E+05,      /* I = 23 */
(PID.TID 0000.0001)                 2.734980225206389E+05,      /* I = 24 */
(PID.TID 0000.0001)                 2.647274964828302E+05,      /* I = 25 */
(PID.TID 0000.0001)                 2.545652950875683E+05,      /* I = 26 */
(PID.TID 0000.0001)                 2.428369969078989E+05,      /* I = 27 */
(PID.TID 0000.0001)                 2.292584591272880E+05,      /* I = 28 */
(PID.TID 0000.0001)                 2.133486626971531E+05,      /* I = 29 */
(PID.TID 0000.0001)                 1.942331448101592E+05,      /* I = 30 */
(PID.TID 0000.0001)                 1.701080315742101E+05,      /* I = 31 */
(PID.TID 0000.0001)                 1.362652340208229E+05,      /* I = 32 */
(PID.TID 0000.0001)                 8.015229982413632E+04,      /* I = 33 */
(PID.TID 0000.0001)                 1.362652340208229E+05,      /* I = 34 */
(PID.TID 0000.0001)                 1.701080315742101E+05,      /* I = 35 */
(PID.TID 0000.0001)                 1.942331448101592E+05,      /* I = 36 */
(PID.TID 0000.0001)                 2.133486626971531E+05,      /* I = 37 */
(PID.TID 0000.0001)                 2.292584591272880E+05,      /* I = 38 */
(PID.TID 0000.0001)                 2.428369969078989E+05,      /* I = 39 */
(PID.TID 0000.0001)                 2.545652950875683E+05,      /* I = 40 */
(PID.TID 0000.0001)                 2.647274964828302E+05,      /* I = 41 */
(PID.TID 0000.0001)                 2.734980225206389E+05,      /* I = 42 */
(PID.TID 0000.0001)                 2.809856491525217E+05,      /* I = 43 */
(PID.TID 0000.0001)                 2.872580915202295E+05,      /* I = 44 */
(PID.TID 0000.0001)                 2.923567890694162E+05,      /* I = 45 */
(PID.TID 0000.0001)                 2.963063101754721E+05,      /* I = 46 */
(PID.TID 0000.0001)                 2.991205495886625E+05,      /* I = 47 */
(PID.TID 0000.0001)                 3.008068453676764E+05,      /* I = 48 */
(PID.TID 0000.0001)                 3.013686170436881E+05,      /* I = 49 */
(PID.TID 0000.0001)                 3.008068453676764E+05,      /* I = 50 */
(PID.TID 0000.0001)                 2.991205495886625E+05,      /* I = 51 */
(PID.TID 0000.0001)                 2.963063101754721E+05,      /* I = 52 */
(PID.TID 0000.0001)                 2.923567890694162E+05,      /* I = 53 */
(PID.TID 0000.0001)                 2.872580915202295E+05,      /* I = 54 */
(PID.TID 0000.0001)                 2.809856491525217E+05,      /* I = 55 */
(PID.TID 0000.0001)                 2.734980225206389E+05,      /* I = 56 */
(PID.TID 0000.0001)                 2.647274964828302E+05,      /* I = 57 */
(PID.TID 0000.0001)                 2.545652950875683E+05,      /* I = 58 */
(PID.TID 0000.0001)                 2.428369969078989E+05,      /* I = 59 */
(PID.TID 0000.0001)                 2.292584591272880E+05,      /* I = 60 */
(PID.TID 0000.0001)                 2.133486626971531E+05,      /* I = 61 */
(PID.TID 0000.0001)                 1.942331448101592E+05,      /* I = 62 */
(PID.TID 0000.0001)                 1.701080315742101E+05,      /* I = 63 */
(PID.TID 0000.0001)                 1.362652340208229E+05,      /* I = 64 */
(PID.TID 0000.0001)                 8.015229982413632E+04,      /* I = 65 */
(PID.TID 0000.0001)                 1.362652340208229E+05,      /* I = 66 */
(PID.TID 0000.0001)                 1.701080315742101E+05,      /* I = 67 */
(PID.TID 0000.0001)                 1.942331448101592E+05,      /* I = 68 */
(PID.TID 0000.0001)                 2.133486626971531E+05,      /* I = 69 */
(PID.TID 0000.0001)                 2.292584591272880E+05,      /* I = 70 */
(PID.TID 0000.0001)                 2.428369969078989E+05,      /* I = 71 */
(PID.TID 0000.0001)                 2.545652950875683E+05,      /* I = 72 */
(PID.TID 0000.0001)                 2.647274964828302E+05,      /* I = 73 */
(PID.TID 0000.0001)                 2.734980225206389E+05,      /* I = 74 */
(PID.TID 0000.0001)                 2.809856491525217E+05,      /* I = 75 */
(PID.TID 0000.0001)                 2.872580915202295E+05,      /* I = 76 */
(PID.TID 0000.0001)                 2.923567890694162E+05,      /* I = 77 */
(PID.TID 0000.0001)                 2.963063101754721E+05,      /* I = 78 */
(PID.TID 0000.0001)                 2.991205495886625E+05,      /* I = 79 */
(PID.TID 0000.0001)                 3.008068453676764E+05,      /* I = 80 */
(PID.TID 0000.0001)                 3.013686170436881E+05,      /* I = 81 */
(PID.TID 0000.0001)                 3.008068453676764E+05,      /* I = 82 */
(PID.TID 0000.0001)                 2.991205495886625E+05,      /* I = 83 */
(PID.TID 0000.0001)                 2.963063101754721E+05,      /* I = 84 */
(PID.TID 0000.0001)                 2.923567890694162E+05,      /* I = 85 */
(PID.TID 0000.0001)                 2.872580915202295E+05,      /* I = 86 */
(PID.TID 0000.0001)                 2.809856491525217E+05,      /* I = 87 */
(PID.TID 0000.0001)                 2.734980225206389E+05,      /* I = 88 */
(PID.TID 0000.0001)                 2.647274964828302E+05,      /* I = 89 */
(PID.TID 0000.0001)                 2.545652950875683E+05,      /* I = 90 */
(PID.TID 0000.0001)                 2.428369969078989E+05,      /* I = 91 */
(PID.TID 0000.0001)                 2.292584591272880E+05,      /* I = 92 */
(PID.TID 0000.0001)                 2.133486626971531E+05,      /* I = 93 */
(PID.TID 0000.0001)                 1.942331448101592E+05,      /* I = 94 */
(PID.TID 0000.0001)                 1.701080315742101E+05,      /* I = 95 */
(PID.TID 0000.0001)                 1.362652340208229E+05,      /* I = 96 */
(PID.TID 0000.0001)                 8.015229982413632E+04,      /* I = 97 */
(PID.TID 0000.0001)                 1.362652340208229E+05,      /* I = 98 */
(PID.TID 0000.0001)                 1.701080315742101E+05,      /* I = 99 */
(PID.TID 0000.0001)                 1.942331448101592E+05,      /* I =100 */
(PID.TID 0000.0001)                 2.133486626971531E+05,      /* I =101 */
(PID.TID 0000.0001)                 2.292584591272880E+05,      /* I =102 */
(PID.TID 0000.0001)                 2.428369969078989E+05,      /* I =103 */
(PID.TID 0000.0001)                 2.545652950875683E+05,      /* I =104 */
(PID.TID 0000.0001)                 2.647274964828302E+05,      /* I =105 */
(PID.TID 0000.0001)                 2.734980225206389E+05,      /* I =106 */
(PID.TID 0000.0001)                 2.809856491525217E+05,      /* I =107 */
(PID.TID 0000.0001)                 2.872580915202295E+05,      /* I =108 */
(PID.TID 0000.0001)                 2.923567890694162E+05,      /* I =109 */
(PID.TID 0000.0001)                 2.963063101754721E+05,      /* I =110 */
(PID.TID 0000.0001)                 2.991205495886625E+05,      /* I =111 */
(PID.TID 0000.0001)                 3.008068453676764E+05,      /* I =112 */
(PID.TID 0000.0001)                 3.013686170436881E+05,      /* I =113 */
(PID.TID 0000.0001)                 3.008068453676764E+05,      /* I =114 */
(PID.TID 0000.0001)                 2.991205495886625E+05,      /* I =115 */
(PID.TID 0000.0001)                 2.963063101754721E+05,      /* I =116 */
(PID.TID 0000.0001)                 2.923567890694162E+05,      /* I =117 */
(PID.TID 0000.0001)                 2.872580915202295E+05,      /* I =118 */
(PID.TID 0000.0001)                 2.809856491525217E+05,      /* I =119 */
(PID.TID 0000.0001)                 2.734980225206389E+05,      /* I =120 */
(PID.TID 0000.0001)                 2.647274964828302E+05,      /* I =121 */
(PID.TID 0000.0001)                 2.545652950875683E+05,      /* I =122 */
(PID.TID 0000.0001)                 2.428369969078989E+05,      /* I =123 */
(PID.TID 0000.0001)                 2.292584591272880E+05,      /* I =124 */
(PID.TID 0000.0001)                 2.133486626971531E+05,      /* I =125 */
(PID.TID 0000.0001)                 1.942331448101592E+05,      /* I =126 */
(PID.TID 0000.0001)                 1.701080315742101E+05,      /* I =127 */
(PID.TID 0000.0001)                 1.362652340208229E+05,      /* I =128 */
(PID.TID 0000.0001)                 8.015229982413632E+04,      /* I =129 */
(PID.TID 0000.0001)                 1.362652340208229E+05,      /* I =130 */
(PID.TID 0000.0001)                 1.701080315742101E+05,      /* I =131 */
(PID.TID 0000.0001)                 1.942331448101592E+05,      /* I =132 */
(PID.TID 0000.0001)                 2.133486626971531E+05,      /* I =133 */
(PID.TID 0000.0001)                 2.292584591272880E+05,      /* I =134 */
(PID.TID 0000.0001)                 2.428369969078989E+05,      /* I =135 */
(PID.TID 0000.0001)                 2.545652950875683E+05,      /* I =136 */
(PID.TID 0000.0001)                 2.647274964828302E+05,      /* I =137 */
(PID.TID 0000.0001)                 2.734980225206389E+05,      /* I =138 */
(PID.TID 0000.0001)                 2.809856491525217E+05,      /* I =139 */
(PID.TID 0000.0001)                 2.872580915202295E+05,      /* I =140 */
(PID.TID 0000.0001)                 2.923567890694162E+05,      /* I =141 */
(PID.TID 0000.0001)                 2.963063101754721E+05,      /* I =142 */
(PID.TID 0000.0001)                 2.991205495886625E+05,      /* I =143 */
(PID.TID 0000.0001)                 3.008068453676764E+05,      /* I =144 */
(PID.TID 0000.0001)                 3.013686170436881E+05,      /* I =145 */
(PID.TID 0000.0001)                 3.008068453676764E+05,      /* I =146 */
(PID.TID 0000.0001)                 2.991205495886625E+05,      /* I =147 */
(PID.TID 0000.0001)                 2.963063101754721E+05,      /* I =148 */
(PID.TID 0000.0001)                 2.923567890694162E+05,      /* I =149 */
(PID.TID 0000.0001)                 2.872580915202295E+05,      /* I =150 */
(PID.TID 0000.0001)                 2.809856491525217E+05,      /* I =151 */
(PID.TID 0000.0001)                 2.734980225206389E+05,      /* I =152 */
(PID.TID 0000.0001)                 2.647274964828302E+05,      /* I =153 */
(PID.TID 0000.0001)                 2.545652950875683E+05,      /* I =154 */
(PID.TID 0000.0001)                 2.428369969078989E+05,      /* I =155 */
(PID.TID 0000.0001)                 2.292584591272880E+05,      /* I =156 */
(PID.TID 0000.0001)                 2.133486626971531E+05,      /* I =157 */
(PID.TID 0000.0001)                 1.942331448101592E+05,      /* I =158 */
(PID.TID 0000.0001)                 1.701080315742101E+05,      /* I =159 */
(PID.TID 0000.0001)                 1.362652340208229E+05,      /* I =160 */
(PID.TID 0000.0001)                 8.015229982413632E+04,      /* I =161 */
(PID.TID 0000.0001)                 1.362652340208229E+05,      /* I =162 */
(PID.TID 0000.0001)                 1.701080315742101E+05,      /* I =163 */
(PID.TID 0000.0001)                 1.942331448101592E+05,      /* I =164 */
(PID.TID 0000.0001)                 2.133486626971531E+05,      /* I =165 */
(PID.TID 0000.0001)                 2.292584591272880E+05,      /* I =166 */
(PID.TID 0000.0001)                 2.428369969078989E+05,      /* I =167 */
(PID.TID 0000.0001)                 2.545652950875683E+05,      /* I =168 */
(PID.TID 0000.0001)                 2.647274964828302E+05,      /* I =169 */
(PID.TID 0000.0001)                 2.734980225206389E+05,      /* I =170 */
(PID.TID 0000.0001)                 2.809856491525217E+05,      /* I =171 */
(PID.TID 0000.0001)                 2.872580915202295E+05,      /* I =172 */
(PID.TID 0000.0001)                 2.923567890694162E+05,      /* I =173 */
(PID.TID 0000.0001)                 2.963063101754721E+05,      /* I =174 */
(PID.TID 0000.0001)                 2.991205495886625E+05,      /* I =175 */
(PID.TID 0000.0001)                 3.008068453676764E+05,      /* I =176 */
(PID.TID 0000.0001)                 3.013686170436881E+05,      /* I =177 */
(PID.TID 0000.0001)                 3.008068453676764E+05,      /* I =178 */
(PID.TID 0000.0001)                 2.991205495886625E+05,      /* I =179 */
(PID.TID 0000.0001)                 2.963063101754721E+05,      /* I =180 */
(PID.TID 0000.0001)                 2.923567890694162E+05,      /* I =181 */
(PID.TID 0000.0001)                 2.872580915202295E+05,      /* I =182 */
(PID.TID 0000.0001)                 2.809856491525217E+05,      /* I =183 */
(PID.TID 0000.0001)                 2.734980225206389E+05,      /* I =184 */
(PID.TID 0000.0001)                 2.647274964828302E+05,      /* I =185 */
(PID.TID 0000.0001)                 2.545652950875683E+05,      /* I =186 */
(PID.TID 0000.0001)                 2.428369969078989E+05,      /* I =187 */
(PID.TID 0000.0001)                 2.292584591272880E+05,      /* I =188 */
(PID.TID 0000.0001)                 2.133486626971531E+05,      /* I =189 */
(PID.TID 0000.0001)                 1.942331448101592E+05,      /* I =190 */
(PID.TID 0000.0001)                 1.701080315742101E+05,      /* I =191 */
(PID.TID 0000.0001)                 1.362652340208229E+05       /* I =192 */
(PID.TID 0000.0001)     ;
(PID.TID 0000.0001) dyU =  /* dyU(1,:,1,:) ( m - cartesian, degrees - spherical ) */
(PID.TID 0000.0001)                 8.015229982413632E+04,      /* J =  1 */
(PID.TID 0000.0001)                 1.333130744933864E+05,      /* J =  2 */
(PID.TID 0000.0001)                 1.691744868129062E+05,      /* J =  3 */
(PID.TID 0000.0001)                 1.937548202849059E+05,      /* J =  4 */
(PID.TID 0000.0001)                 2.130490056267208E+05,      /* J =  5 */
(PID.TID 0000.0001)                 2.290479919481738E+05,      /* J =  6 */
(PID.TID 0000.0001)                 2.426774358027004E+05,      /* J =  7 */
(PID.TID 0000.0001)                 2.544372984215561E+05,      /* J =  8 */
(PID.TID 0000.0001)                 2.646201463834826E+05,      /* J =  9 */
(PID.TID 0000.0001)                 2.734046499619030E+05,      /* J = 10 */
(PID.TID 0000.0001)                 2.809019351693761E+05,      /* J = 11 */
(PID.TID 0000.0001)                 2.871811105274442E+05,      /* J = 12 */
(PID.TID 0000.0001)                 2.922844849381675E+05,      /* J = 13 */
(PID.TID 0000.0001)                 2.962371870847826E+05,      /* J = 14 */
(PID.TID 0000.0001)                 2.990534755671296E+05,      /* J = 15 */
(PID.TID 0000.0001)                 3.007409169495504E+05,      /* J = 16 */
(PID.TID 0000.0001)                 3.013031486919771E+05,      /* J = 17 */
(PID.TID 0000.0001)                 3.007409169495504E+05,      /* J = 18 */
(PID.TID 0000.0001)                 2.990534755671296E+05,      /* J = 19 */
(PID.TID 0000.0001)                 2.962371870847826E+05,      /* J = 20 */
(PID.TID 0000.0001)                 2.922844849381675E+05,      /* J = 21 */
(PID.TID 0000.0001)                 2.871811105274442E+05,      /* J = 22 */
(PID.TID 0000.0001)                 2.809019351693761E+05,      /* J = 23 */
(PID.TID 0000.0001)                 2.734046499619030E+05,      /* J = 24 */
(PID.TID 0000.0001)                 2.646201463834826E+05,      /* J = 25 */
(PID.TID 0000.0001)                 2.544372984215561E+05,      /* J = 26 */
(PID.TID 0000.0001)                 2.426774358027004E+05,      /* J = 27 */
(PID.TID 0000.0001)                 2.290479919481738E+05,      /* J = 28 */
(PID.TID 0000.0001)                 2.130490056267208E+05,      /* J = 29 */
(PID.TID 0000.0001)                 1.937548202849059E+05,      /* J = 30 */
(PID.TID 0000.0001)                 1.691744868129062E+05,      /* J = 31 */
(PID.TID 0000.0001)                 1.333130744933864E+05       /* J = 32 */
(PID.TID 0000.0001)     ;
(PID.TID 0000.0001) rA =  /* rA(:,1,:,1) ( m - cartesian, degrees - spherical ) */
(PID.TID 0000.0001)                 1.401900702255611E+10,      /* I =  1 */
(PID.TID 0000.0001)                 2.459906945574446E+10,      /* I =  2 */
(PID.TID 0000.0001)                 3.378518544307869E+10,      /* I =  3 */
(PID.TID 0000.0001)                 4.192037169898667E+10,      /* I =  4 */
(PID.TID 0000.0001)                 4.925938996118163E+10,      /* I =  5 */
(PID.TID 0000.0001)                 5.594154126607554E+10,      /* I =  6 */
(PID.TID 0000.0001)                 6.203683527772524E+10,      /* I =  7 */
(PID.TID 0000.0001)                 6.757541173817516E+10,      /* I =  8 */
(PID.TID 0000.0001)                 7.256353271748119E+10,      /* I =  9 */
(PID.TID 0000.0001)                 7.699293007098555E+10,      /* I = 10 */
(PID.TID 0000.0001)                 8.084683449728901E+10,      /* I = 11 */
(PID.TID 0000.0001)                 8.410423102796222E+10,      /* I = 12 */
(PID.TID 0000.0001)                 8.674306976737517E+10,      /* I = 13 */
(PID.TID 0000.0001)                 8.874277443041927E+10,      /* I = 14 */
(PID.TID 0000.0001)                 9.008620045350864E+10,      /* I = 15 */
(PID.TID 0000.0001)                 9.076111290418456E+10,      /* I = 16 */
(PID.TID 0000.0001)                 9.076111290422058E+10,      /* I = 17 */
(PID.TID 0000.0001)                 9.008620045354469E+10,      /* I = 18 */
(PID.TID 0000.0001)                 8.874277443041927E+10,      /* I = 19 */
(PID.TID 0000.0001)                 8.674306976741121E+10,      /* I = 20 */
(PID.TID 0000.0001)                 8.410423102799827E+10,      /* I = 21 */
(PID.TID 0000.0001)                 8.084683449728901E+10,      /* I = 22 */
(PID.TID 0000.0001)                 7.699293007098555E+10,      /* I = 23 */
(PID.TID 0000.0001)                 7.256353271748119E+10,      /* I = 24 */
(PID.TID 0000.0001)                 6.757541173817516E+10,      /* I = 25 */
(PID.TID 0000.0001)                 6.203683527772524E+10,      /* I = 26 */
(PID.TID 0000.0001)                 5.594154126611157E+10,      /* I = 27 */
(PID.TID 0000.0001)                 4.925938996118163E+10,      /* I = 28 */
(PID.TID 0000.0001)                 4.192037169898667E+10,      /* I = 29 */
(PID.TID 0000.0001)                 3.378518544304265E+10,      /* I = 30 */
(PID.TID 0000.0001)                 2.459906945574446E+10,      /* I = 31 */
(PID.TID 0000.0001)                 1.401900702259215E+10,      /* I = 32 */
(PID.TID 0000.0001)                 1.401900702255611E+10,      /* I = 33 */
(PID.TID 0000.0001)                 2.459906945574446E+10,      /* I = 34 */
(PID.TID 0000.0001)                 3.378518544307869E+10,      /* I = 35 */
(PID.TID 0000.0001)                 4.192037169898667E+10,      /* I = 36 */
(PID.TID 0000.0001)                 4.925938996118163E+10,      /* I = 37 */
(PID.TID 0000.0001)                 5.594154126607554E+10,      /* I = 38 */
(PID.TID 0000.0001)                 6.203683527772524E+10,      /* I = 39 */
(PID.TID 0000.0001)                 6.757541173817516E+10,      /* I = 40 */
(PID.TID 0000.0001)                 7.256353271748119E+10,      /* I = 41 */
(PID.TID 0000.0001)                 7.699293007098555E+10,      /* I = 42 */
(PID.TID 0000.0001)                 8.084683449728901E+10,      /* I = 43 */
(PID.TID 0000.0001)                 8.410423102796222E+10,      /* I = 44 */
(PID.TID 0000.0001)                 8.674306976737517E+10,      /* I = 45 */
(PID.TID 0000.0001)                 8.874277443041927E+10,      /* I = 46 */
(PID.TID 0000.0001)                 9.008620045350864E+10,      /* I = 47 */
(PID.TID 0000.0001)                 9.076111290418456E+10,      /* I = 48 */
(PID.TID 0000.0001)                 9.076111290422058E+10,      /* I = 49 */
(PID.TID 0000.0001)                 9.008620045354469E+10,      /* I = 50 */
(PID.TID 0000.0001)                 8.874277443041927E+10,      /* I = 51 */
(PID.TID 0000.0001)                 8.674306976741121E+10,      /* I = 52 */
(PID.TID 0000.0001)                 8.410423102799827E+10,      /* I = 53 */
(PID.TID 0000.0001)                 8.084683449728901E+10,      /* I = 54 */
(PID.TID 0000.0001)                 7.699293007098555E+10,      /* I = 55 */
(PID.TID 0000.0001)                 7.256353271748119E+10,      /* I = 56 */
(PID.TID 0000.0001)                 6.757541173817516E+10,      /* I = 57 */
(PID.TID 0000.0001)                 6.203683527772524E+10,      /* I = 58 */
(PID.TID 0000.0001)                 5.594154126611157E+10,      /* I = 59 */
(PID.TID 0000.0001)                 4.925938996118163E+10,      /* I = 60 */
(PID.TID 0000.0001)                 4.192037169898667E+10,      /* I = 61 */
(PID.TID 0000.0001)                 3.378518544304265E+10,      /* I = 62 */
(PID.TID 0000.0001)                 2.459906945574446E+10,      /* I = 63 */
(PID.TID 0000.0001)                 1.401900702259215E+10,      /* I = 64 */
(PID.TID 0000.0001)                 1.401900702255611E+10,      /* I = 65 */
(PID.TID 0000.0001)                 2.459906945574446E+10,      /* I = 66 */
(PID.TID 0000.0001)                 3.378518544307869E+10,      /* I = 67 */
(PID.TID 0000.0001)                 4.192037169898667E+10,      /* I = 68 */
(PID.TID 0000.0001)                 4.925938996118163E+10,      /* I = 69 */
(PID.TID 0000.0001)                 5.594154126607554E+10,      /* I = 70 */
(PID.TID 0000.0001)                 6.203683527772524E+10,      /* I = 71 */
(PID.TID 0000.0001)                 6.757541173817516E+10,      /* I = 72 */
(PID.TID 0000.0001)                 7.256353271748119E+10,      /* I = 73 */
(PID.TID 0000.0001)                 7.699293007098555E+10,      /* I = 74 */
(PID.TID 0000.0001)                 8.084683449728901E+10,      /* I = 75 */
(PID.TID 0000.0001)                 8.410423102796222E+10,      /* I = 76 */
(PID.TID 0000.0001)                 8.674306976737517E+10,      /* I = 77 */
(PID.TID 0000.0001)                 8.874277443041927E+10,      /* I = 78 */
(PID.TID 0000.0001)                 9.008620045350864E+10,      /* I = 79 */
(PID.TID 0000.0001)                 9.076111290418456E+10,      /* I = 80 */
(PID.TID 0000.0001)                 9.076111290422058E+10,      /* I = 81 */
(PID.TID 0000.0001)                 9.008620045354469E+10,      /* I = 82 */
(PID.TID 0000.0001)                 8.874277443041927E+10,      /* I = 83 */
(PID.TID 0000.0001)                 8.674306976741121E+10,      /* I = 84 */
(PID.TID 0000.0001)                 8.410423102799827E+10,      /* I = 85 */
(PID.TID 0000.0001)                 8.084683449728901E+10,      /* I = 86 */
(PID.TID 0000.0001)                 7.699293007098555E+10,      /* I = 87 */
(PID.TID 0000.0001)                 7.256353271748119E+10,      /* I = 88 */
(PID.TID 0000.0001)                 6.757541173817516E+10,      /* I = 89 */
(PID.TID 0000.0001)                 6.203683527772524E+10,      /* I = 90 */
(PID.TID 0000.0001)                 5.594154126611157E+10,      /* I = 91 */
(PID.TID 0000.0001)                 4.925938996118163E+10,      /* I = 92 */
(PID.TID 0000.0001)                 4.192037169898667E+10,      /* I = 93 */
(PID.TID 0000.0001)                 3.378518544304265E+10,      /* I = 94 */
(PID.TID 0000.0001)                 2.459906945574446E+10,      /* I = 95 */
(PID.TID 0000.0001)                 1.401900702259215E+10,      /* I = 96 */
(PID.TID 0000.0001)                 1.401900702255611E+10,      /* I = 97 */
(PID.TID 0000.0001)                 2.459906945574446E+10,      /* I = 98 */
(PID.TID 0000.0001)                 3.378518544307869E+10,      /* I = 99 */
(PID.TID 0000.0001)                 4.192037169898667E+10,      /* I =100 */
(PID.TID 0000.0001)                 4.925938996118163E+10,      /* I =101 */
(PID.TID 0000.0001)                 5.594154126607554E+10,      /* I =102 */
(PID.TID 0000.0001)                 6.203683527772524E+10,      /* I =103 */
(PID.TID 0000.0001)                 6.757541173817516E+10,      /* I =104 */
(PID.TID 0000.0001)                 7.256353271748119E+10,      /* I =105 */
(PID.TID 0000.0001)                 7.699293007098555E+10,      /* I =106 */
(PID.TID 0000.0001)                 8.084683449728901E+10,      /* I =107 */
(PID.TID 0000.0001)                 8.410423102796222E+10,      /* I =108 */
(PID.TID 0000.0001)                 8.674306976737517E+10,      /* I =109 */
(PID.TID 0000.0001)                 8.874277443041927E+10,      /* I =110 */
(PID.TID 0000.0001)                 9.008620045350864E+10,      /* I =111 */
(PID.TID 0000.0001)                 9.076111290418456E+10,      /* I =112 */
(PID.TID 0000.0001)                 9.076111290422058E+10,      /* I =113 */
(PID.TID 0000.0001)                 9.008620045354469E+10,      /* I =114 */
(PID.TID 0000.0001)                 8.874277443041927E+10,      /* I =115 */
(PID.TID 0000.0001)                 8.674306976741121E+10,      /* I =116 */
(PID.TID 0000.0001)                 8.410423102799827E+10,      /* I =117 */
(PID.TID 0000.0001)                 8.084683449728901E+10,      /* I =118 */
(PID.TID 0000.0001)                 7.699293007098555E+10,      /* I =119 */
(PID.TID 0000.0001)                 7.256353271748119E+10,      /* I =120 */
(PID.TID 0000.0001)                 6.757541173817516E+10,      /* I =121 */
(PID.TID 0000.0001)                 6.203683527772524E+10,      /* I =122 */
(PID.TID 0000.0001)                 5.594154126611157E+10,      /* I =123 */
(PID.TID 0000.0001)                 4.925938996118163E+10,      /* I =124 */
(PID.TID 0000.0001)                 4.192037169898667E+10,      /* I =125 */
(PID.TID 0000.0001)                 3.378518544304265E+10,      /* I =126 */
(PID.TID 0000.0001)                 2.459906945574446E+10,      /* I =127 */
(PID.TID 0000.0001)                 1.401900702259215E+10,      /* I =128 */
(PID.TID 0000.0001)                 1.401900702255611E+10,      /* I =129 */
(PID.TID 0000.0001)                 2.459906945574446E+10,      /* I =130 */
(PID.TID 0000.0001)                 3.378518544307869E+10,      /* I =131 */
(PID.TID 0000.0001)                 4.192037169898667E+10,      /* I =132 */
(PID.TID 0000.0001)                 4.925938996118163E+10,      /* I =133 */
(PID.TID 0000.0001)                 5.594154126607554E+10,      /* I =134 */
(PID.TID 0000.0001)                 6.203683527772524E+10,      /* I =135 */
(PID.TID 0000.0001)                 6.757541173817516E+10,      /* I =136 */
(PID.TID 0000.0001)                 7.256353271748119E+10,      /* I =137 */
(PID.TID 0000.0001)                 7.699293007098555E+10,      /* I =138 */
(PID.TID 0000.0001)                 8.084683449728901E+10,      /* I =139 */
(PID.TID 0000.0001)                 8.410423102796222E+10,      /* I =140 */
(PID.TID 0000.0001)                 8.674306976737517E+10,      /* I =141 */
(PID.TID 0000.0001)                 8.874277443041927E+10,      /* I =142 */
(PID.TID 0000.0001)                 9.008620045350864E+10,      /* I =143 */
(PID.TID 0000.0001)                 9.076111290418456E+10,      /* I =144 */
(PID.TID 0000.0001)                 9.076111290422058E+10,      /* I =145 */
(PID.TID 0000.0001)                 9.008620045354469E+10,      /* I =146 */
(PID.TID 0000.0001)                 8.874277443041927E+10,      /* I =147 */
(PID.TID 0000.0001)                 8.674306976741121E+10,      /* I =148 */
(PID.TID 0000.0001)                 8.410423102799827E+10,      /* I =149 */
(PID.TID 0000.0001)                 8.084683449728901E+10,      /* I =150 */
(PID.TID 0000.0001)                 7.699293007098555E+10,      /* I =151 */
(PID.TID 0000.0001)                 7.256353271748119E+10,      /* I =152 */
(PID.TID 0000.0001)                 6.757541173817516E+10,      /* I =153 */
(PID.TID 0000.0001)                 6.203683527772524E+10,      /* I =154 */
(PID.TID 0000.0001)                 5.594154126611157E+10,      /* I =155 */
(PID.TID 0000.0001)                 4.925938996118163E+10,      /* I =156 */
(PID.TID 0000.0001)                 4.192037169898667E+10,      /* I =157 */
(PID.TID 0000.0001)                 3.378518544304265E+10,      /* I =158 */
(PID.TID 0000.0001)                 2.459906945574446E+10,      /* I =159 */
(PID.TID 0000.0001)                 1.401900702259215E+10,      /* I =160 */
(PID.TID 0000.0001)                 1.401900702255611E+10,      /* I =161 */
(PID.TID 0000.0001)                 2.459906945574446E+10,      /* I =162 */
(PID.TID 0000.0001)                 3.378518544307869E+10,      /* I =163 */
(PID.TID 0000.0001)                 4.192037169898667E+10,      /* I =164 */
(PID.TID 0000.0001)                 4.925938996118163E+10,      /* I =165 */
(PID.TID 0000.0001)                 5.594154126607554E+10,      /* I =166 */
(PID.TID 0000.0001)                 6.203683527772524E+10,      /* I =167 */
(PID.TID 0000.0001)                 6.757541173817516E+10,      /* I =168 */
(PID.TID 0000.0001)                 7.256353271748119E+10,      /* I =169 */
(PID.TID 0000.0001)                 7.699293007098555E+10,      /* I =170 */
(PID.TID 0000.0001)                 8.084683449728901E+10,      /* I =171 */
(PID.TID 0000.0001)                 8.410423102796222E+10,      /* I =172 */
(PID.TID 0000.0001)                 8.674306976737517E+10,      /* I =173 */
(PID.TID 0000.0001)                 8.874277443041927E+10,      /* I =174 */
(PID.TID 0000.0001)                 9.008620045350864E+10,      /* I =175 */
(PID.TID 0000.0001)                 9.076111290418456E+10,      /* I =176 */
(PID.TID 0000.0001)                 9.076111290422058E+10,      /* I =177 */
(PID.TID 0000.0001)                 9.008620045354469E+10,      /* I =178 */
(PID.TID 0000.0001)                 8.874277443041927E+10,      /* I =179 */
(PID.TID 0000.0001)                 8.674306976741121E+10,      /* I =180 */
(PID.TID 0000.0001)                 8.410423102799827E+10,      /* I =181 */
(PID.TID 0000.0001)                 8.084683449728901E+10,      /* I =182 */
(PID.TID 0000.0001)                 7.699293007098555E+10,      /* I =183 */
(PID.TID 0000.0001)                 7.256353271748119E+10,      /* I =184 */
(PID.TID 0000.0001)                 6.757541173817516E+10,      /* I =185 */
(PID.TID 0000.0001)                 6.203683527772524E+10,      /* I =186 */
(PID.TID 0000.0001)                 5.594154126611157E+10,      /* I =187 */
(PID.TID 0000.0001)                 4.925938996118163E+10,      /* I =188 */
(PID.TID 0000.0001)                 4.192037169898667E+10,      /* I =189 */
(PID.TID 0000.0001)                 3.378518544304265E+10,      /* I =190 */
(PID.TID 0000.0001)                 2.459906945574446E+10,      /* I =191 */
(PID.TID 0000.0001)                 1.401900702259215E+10       /* I =192 */
(PID.TID 0000.0001)     ;
(PID.TID 0000.0001) rA =  /* rA(1,:,1,:) ( m - cartesian, degrees - spherical ) */
(PID.TID 0000.0001)                 1.401900702255611E+10,      /* J =  1 */
(PID.TID 0000.0001)                 2.459906945574446E+10,      /* J =  2 */
(PID.TID 0000.0001)                 3.378518544307869E+10,      /* J =  3 */
(PID.TID 0000.0001)                 4.192037169898667E+10,      /* J =  4 */
(PID.TID 0000.0001)                 4.925938996118163E+10,      /* J =  5 */
(PID.TID 0000.0001)                 5.594154126607554E+10,      /* J =  6 */
(PID.TID 0000.0001)                 6.203683527776127E+10,      /* J =  7 */
(PID.TID 0000.0001)                 6.757541173817516E+10,      /* J =  8 */
(PID.TID 0000.0001)                 7.256353271748119E+10,      /* J =  9 */
(PID.TID 0000.0001)                 7.699293007098555E+10,      /* J = 10 */
(PID.TID 0000.0001)                 8.084683449728901E+10,      /* J = 11 */
(PID.TID 0000.0001)                 8.410423102799827E+10,      /* J = 12 */
(PID.TID 0000.0001)                 8.674306976737517E+10,      /* J = 13 */
(PID.TID 0000.0001)                 8.874277443041927E+10,      /* J = 14 */
(PID.TID 0000.0001)                 9.008620045350864E+10,      /* J = 15 */
(PID.TID 0000.0001)                 9.076111290418456E+10,      /* J = 16 */
(PID.TID 0000.0001)                 9.076111290422058E+10,      /* J = 17 */
(PID.TID 0000.0001)                 9.008620045354469E+10,      /* J = 18 */
(PID.TID 0000.0001)                 8.874277443041927E+10,      /* J = 19 */
(PID.TID 0000.0001)                 8.674306976737517E+10,      /* J = 20 */
(PID.TID 0000.0001)                 8.410423102799827E+10,      /* J = 21 */
(PID.TID 0000.0001)                 8.084683449728901E+10,      /* J = 22 */
(PID.TID 0000.0001)                 7.699293007098555E+10,      /* J = 23 */
(PID.TID 0000.0001)                 7.256353271748119E+10,      /* J = 24 */
(PID.TID 0000.0001)                 6.757541173817516E+10,      /* J = 25 */
(PID.TID 0000.0001)                 6.203683527772524E+10,      /* J = 26 */
(PID.TID 0000.0001)                 5.594154126607554E+10,      /* J = 27 */
(PID.TID 0000.0001)                 4.925938996118163E+10,      /* J = 28 */
(PID.TID 0000.0001)                 4.192037169898667E+10,      /* J = 29 */
(PID.TID 0000.0001)                 3.378518544307869E+10,      /* J = 30 */
(PID.TID 0000.0001)                 2.459906945574446E+10,      /* J = 31 */
(PID.TID 0000.0001)                 1.401900702259215E+10       /* J = 32 */
(PID.TID 0000.0001)     ;
(PID.TID 0000.0001) rAw =  /* rAw(:,1,:,1) ( m - cartesian, degrees - spherical ) */
(PID.TID 0000.0001)                 1.216690346714270E+10,      /* I =  1 */
(PID.TID 0000.0001)                 1.974052138506315E+10,      /* I =  2 */
(PID.TID 0000.0001)                 2.943712825252015E+10,      /* I =  3 */
(PID.TID 0000.0001)                 3.801790263324359E+10,      /* I =  4 */
(PID.TID 0000.0001)                 4.571243814189866E+10,      /* I =  5 */
(PID.TID 0000.0001)                 5.269930713599979E+10,      /* I =  6 */
(PID.TID 0000.0001)                 5.907428494299064E+10,      /* I =  7 */
(PID.TID 0000.0001)                 6.488320895111515E+10,      /* I =  8 */
(PID.TID 0000.0001)                 7.014205907741883E+10,      /* I =  9 */
(PID.TID 0000.0001)                 7.484854821847499E+10,      /* I = 10 */
(PID.TID 0000.0001)                 7.898934631431560E+10,      /* I = 11 */
(PID.TID 0000.0001)                 8.254500894894537E+10,      /* I = 12 */
(PID.TID 0000.0001)                 8.549360686473493E+10,      /* I = 13 */
(PID.TID 0000.0001)                 8.781353403175085E+10,      /* I = 14 */
(PID.TID 0000.0001)                 8.948571540392020E+10,      /* I = 15 */
(PID.TID 0000.0001)                 9.049530583086168E+10,      /* I = 16 */
(PID.TID 0000.0001)                 9.083293515008307E+10,      /* I = 17 */
(PID.TID 0000.0001)                 9.049530583087069E+10,      /* I = 18 */
(PID.TID 0000.0001)                 8.948571540391121E+10,      /* I = 19 */
(PID.TID 0000.0001)                 8.781353403174184E+10,      /* I = 20 */
(PID.TID 0000.0001)                 8.549360686467183E+10,      /* I = 21 */
(PID.TID 0000.0001)                 8.254500894890933E+10,      /* I = 22 */
(PID.TID 0000.0001)                 7.898934631434262E+10,      /* I = 23 */
(PID.TID 0000.0001)                 7.484854821844796E+10,      /* I = 24 */
(PID.TID 0000.0001)                 7.014205907742783E+10,      /* I = 25 */
(PID.TID 0000.0001)                 6.488320895111515E+10,      /* I = 26 */
(PID.TID 0000.0001)                 5.907428494299064E+10,      /* I = 27 */
(PID.TID 0000.0001)                 5.269930713599078E+10,      /* I = 28 */
(PID.TID 0000.0001)                 4.571243814190768E+10,      /* I = 29 */
(PID.TID 0000.0001)                 3.801790263325260E+10,      /* I = 30 */
(PID.TID 0000.0001)                 2.943712825251114E+10,      /* I = 31 */
(PID.TID 0000.0001)                 1.974052138509018E+10,      /* I = 32 */
(PID.TID 0000.0001)                 1.216690346714270E+10,      /* I = 33 */
(PID.TID 0000.0001)                 1.974052138506315E+10,      /* I = 34 */
(PID.TID 0000.0001)                 2.943712825252015E+10,      /* I = 35 */
(PID.TID 0000.0001)                 3.801790263324359E+10,      /* I = 36 */
(PID.TID 0000.0001)                 4.571243814189866E+10,      /* I = 37 */
(PID.TID 0000.0001)                 5.269930713599979E+10,      /* I = 38 */
(PID.TID 0000.0001)                 5.907428494299064E+10,      /* I = 39 */
(PID.TID 0000.0001)                 6.488320895111515E+10,      /* I = 40 */
(PID.TID 0000.0001)                 7.014205907741883E+10,      /* I = 41 */
(PID.TID 0000.0001)                 7.484854821847499E+10,      /* I = 42 */
(PID.TID 0000.0001)                 7.898934631431560E+10,      /* I = 43 */
(PID.TID 0000.0001)                 8.254500894894537E+10,      /* I = 44 */
(PID.TID 0000.0001)                 8.549360686473493E+10,      /* I = 45 */
(PID.TID 0000.0001)                 8.781353403175085E+10,      /* I = 46 */
(PID.TID 0000.0001)                 8.948571540392020E+10,      /* I = 47 */
(PID.TID 0000.0001)                 9.049530583086168E+10,      /* I = 48 */
(PID.TID 0000.0001)                 9.083293515008307E+10,      /* I = 49 */
(PID.TID 0000.0001)                 9.049530583087069E+10,      /* I = 50 */
(PID.TID 0000.0001)                 8.948571540391121E+10,      /* I = 51 */
(PID.TID 0000.0001)                 8.781353403174184E+10,      /* I = 52 */
(PID.TID 0000.0001)                 8.549360686467183E+10,      /* I = 53 */
(PID.TID 0000.0001)                 8.254500894890933E+10,      /* I = 54 */
(PID.TID 0000.0001)                 7.898934631434262E+10,      /* I = 55 */
(PID.TID 0000.0001)                 7.484854821844796E+10,      /* I = 56 */
(PID.TID 0000.0001)                 7.014205907742783E+10,      /* I = 57 */
(PID.TID 0000.0001)                 6.488320895111515E+10,      /* I = 58 */
(PID.TID 0000.0001)                 5.907428494299064E+10,      /* I = 59 */
(PID.TID 0000.0001)                 5.269930713599078E+10,      /* I = 60 */
(PID.TID 0000.0001)                 4.571243814190768E+10,      /* I = 61 */
(PID.TID 0000.0001)                 3.801790263325260E+10,      /* I = 62 */
(PID.TID 0000.0001)                 2.943712825251114E+10,      /* I = 63 */
(PID.TID 0000.0001)                 1.974052138509018E+10,      /* I = 64 */
(PID.TID 0000.0001)                 1.216690346714270E+10,      /* I = 65 */
(PID.TID 0000.0001)                 1.974052138506315E+10,      /* I = 66 */
(PID.TID 0000.0001)                 2.943712825252015E+10,      /* I = 67 */
(PID.TID 0000.0001)                 3.801790263324359E+10,      /* I = 68 */
(PID.TID 0000.0001)                 4.571243814189866E+10,      /* I = 69 */
(PID.TID 0000.0001)                 5.269930713599979E+10,      /* I = 70 */
(PID.TID 0000.0001)                 5.907428494299064E+10,      /* I = 71 */
(PID.TID 0000.0001)                 6.488320895111515E+10,      /* I = 72 */
(PID.TID 0000.0001)                 7.014205907741883E+10,      /* I = 73 */
(PID.TID 0000.0001)                 7.484854821847499E+10,      /* I = 74 */
(PID.TID 0000.0001)                 7.898934631431560E+10,      /* I = 75 */
(PID.TID 0000.0001)                 8.254500894894537E+10,      /* I = 76 */
(PID.TID 0000.0001)                 8.549360686473493E+10,      /* I = 77 */
(PID.TID 0000.0001)                 8.781353403175085E+10,      /* I = 78 */
(PID.TID 0000.0001)                 8.948571540392020E+10,      /* I = 79 */
(PID.TID 0000.0001)                 9.049530583086168E+10,      /* I = 80 */
(PID.TID 0000.0001)                 9.083293515008307E+10,      /* I = 81 */
(PID.TID 0000.0001)                 9.049530583087069E+10,      /* I = 82 */
(PID.TID 0000.0001)                 8.948571540391121E+10,      /* I = 83 */
(PID.TID 0000.0001)                 8.781353403174184E+10,      /* I = 84 */
(PID.TID 0000.0001)                 8.549360686467183E+10,      /* I = 85 */
(PID.TID 0000.0001)                 8.254500894890933E+10,      /* I = 86 */
(PID.TID 0000.0001)                 7.898934631434262E+10,      /* I = 87 */
(PID.TID 0000.0001)                 7.484854821844796E+10,      /* I = 88 */
(PID.TID 0000.0001)                 7.014205907742783E+10,      /* I = 89 */
(PID.TID 0000.0001)                 6.488320895111515E+10,      /* I = 90 */
(PID.TID 0000.0001)                 5.907428494299064E+10,      /* I = 91 */
(PID.TID 0000.0001)                 5.269930713599078E+10,      /* I = 92 */
(PID.TID 0000.0001)                 4.571243814190768E+10,      /* I = 93 */
(PID.TID 0000.0001)                 3.801790263325260E+10,      /* I = 94 */
(PID.TID 0000.0001)                 2.943712825251114E+10,      /* I = 95 */
(PID.TID 0000.0001)                 1.974052138509018E+10,      /* I = 96 */
(PID.TID 0000.0001)                 1.216690346714270E+10,      /* I = 97 */
(PID.TID 0000.0001)                 1.974052138506315E+10,      /* I = 98 */
(PID.TID 0000.0001)                 2.943712825252015E+10,      /* I = 99 */
(PID.TID 0000.0001)                 3.801790263324359E+10,      /* I =100 */
(PID.TID 0000.0001)                 4.571243814189866E+10,      /* I =101 */
(PID.TID 0000.0001)                 5.269930713599979E+10,      /* I =102 */
(PID.TID 0000.0001)                 5.907428494299064E+10,      /* I =103 */
(PID.TID 0000.0001)                 6.488320895111515E+10,      /* I =104 */
(PID.TID 0000.0001)                 7.014205907741883E+10,      /* I =105 */
(PID.TID 0000.0001)                 7.484854821847499E+10,      /* I =106 */
(PID.TID 0000.0001)                 7.898934631431560E+10,      /* I =107 */
(PID.TID 0000.0001)                 8.254500894894537E+10,      /* I =108 */
(PID.TID 0000.0001)                 8.549360686473493E+10,      /* I =109 */
(PID.TID 0000.0001)                 8.781353403175085E+10,      /* I =110 */
(PID.TID 0000.0001)                 8.948571540392020E+10,      /* I =111 */
(PID.TID 0000.0001)                 9.049530583086168E+10,      /* I =112 */
(PID.TID 0000.0001)                 9.083293515008307E+10,      /* I =113 */
(PID.TID 0000.0001)                 9.049530583087069E+10,      /* I =114 */
(PID.TID 0000.0001)                 8.948571540391121E+10,      /* I =115 */
(PID.TID 0000.0001)                 8.781353403174184E+10,      /* I =116 */
(PID.TID 0000.0001)                 8.549360686467183E+10,      /* I =117 */
(PID.TID 0000.0001)                 8.254500894890933E+10,      /* I =118 */
(PID.TID 0000.0001)                 7.898934631434262E+10,      /* I =119 */
(PID.TID 0000.0001)                 7.484854821844796E+10,      /* I =120 */
(PID.TID 0000.0001)                 7.014205907742783E+10,      /* I =121 */
(PID.TID 0000.0001)                 6.488320895111515E+10,      /* I =122 */
(PID.TID 0000.0001)                 5.907428494299064E+10,      /* I =123 */
(PID.TID 0000.0001)                 5.269930713599078E+10,      /* I =124 */
(PID.TID 0000.0001)                 4.571243814190768E+10,      /* I =125 */
(PID.TID 0000.0001)                 3.801790263325260E+10,      /* I =126 */
(PID.TID 0000.0001)                 2.943712825251114E+10,      /* I =127 */
(PID.TID 0000.0001)                 1.974052138509018E+10,      /* I =128 */
(PID.TID 0000.0001)                 1.216690346714270E+10,      /* I =129 */
(PID.TID 0000.0001)                 1.974052138506315E+10,      /* I =130 */
(PID.TID 0000.0001)                 2.943712825252015E+10,      /* I =131 */
(PID.TID 0000.0001)                 3.801790263324359E+10,      /* I =132 */
(PID.TID 0000.0001)                 4.571243814189866E+10,      /* I =133 */
(PID.TID 0000.0001)                 5.269930713599979E+10,      /* I =134 */
(PID.TID 0000.0001)                 5.907428494299064E+10,      /* I =135 */
(PID.TID 0000.0001)                 6.488320895111515E+10,      /* I =136 */
(PID.TID 0000.0001)                 7.014205907741883E+10,      /* I =137 */
(PID.TID 0000.0001)                 7.484854821847499E+10,      /* I =138 */
(PID.TID 0000.0001)                 7.898934631431560E+10,      /* I =139 */
(PID.TID 0000.0001)                 8.254500894894537E+10,      /* I =140 */
(PID.TID 0000.0001)                 8.549360686473493E+10,      /* I =141 */
(PID.TID 0000.0001)                 8.781353403175085E+10,      /* I =142 */
(PID.TID 0000.0001)                 8.948571540392020E+10,      /* I =143 */
(PID.TID 0000.0001)                 9.049530583086168E+10,      /* I =144 */
(PID.TID 0000.0001)                 9.083293515008307E+10,      /* I =145 */
(PID.TID 0000.0001)                 9.049530583087069E+10,      /* I =146 */
(PID.TID 0000.0001)                 8.948571540391121E+10,      /* I =147 */
(PID.TID 0000.0001)                 8.781353403174184E+10,      /* I =148 */
(PID.TID 0000.0001)                 8.549360686467183E+10,      /* I =149 */
(PID.TID 0000.0001)                 8.254500894890933E+10,      /* I =150 */
(PID.TID 0000.0001)                 7.898934631434262E+10,      /* I =151 */
(PID.TID 0000.0001)                 7.484854821844796E+10,      /* I =152 */
(PID.TID 0000.0001)                 7.014205907742783E+10,      /* I =153 */
(PID.TID 0000.0001)                 6.488320895111515E+10,      /* I =154 */
(PID.TID 0000.0001)                 5.907428494299064E+10,      /* I =155 */
(PID.TID 0000.0001)                 5.269930713599078E+10,      /* I =156 */
(PID.TID 0000.0001)                 4.571243814190768E+10,      /* I =157 */
(PID.TID 0000.0001)                 3.801790263325260E+10,      /* I =158 */
(PID.TID 0000.0001)                 2.943712825251114E+10,      /* I =159 */
(PID.TID 0000.0001)                 1.974052138509018E+10,      /* I =160 */
(PID.TID 0000.0001)                 1.216690346714270E+10,      /* I =161 */
(PID.TID 0000.0001)                 1.974052138506315E+10,      /* I =162 */
(PID.TID 0000.0001)                 2.943712825252015E+10,      /* I =163 */
(PID.TID 0000.0001)                 3.801790263324359E+10,      /* I =164 */
(PID.TID 0000.0001)                 4.571243814189866E+10,      /* I =165 */
(PID.TID 0000.0001)                 5.269930713599979E+10,      /* I =166 */
(PID.TID 0000.0001)                 5.907428494299064E+10,      /* I =167 */
(PID.TID 0000.0001)                 6.488320895111515E+10,      /* I =168 */
(PID.TID 0000.0001)                 7.014205907741883E+10,      /* I =169 */
(PID.TID 0000.0001)                 7.484854821847499E+10,      /* I =170 */
(PID.TID 0000.0001)                 7.898934631431560E+10,      /* I =171 */
(PID.TID 0000.0001)                 8.254500894894537E+10,      /* I =172 */
(PID.TID 0000.0001)                 8.549360686473493E+10,      /* I =173 */
(PID.TID 0000.0001)                 8.781353403175085E+10,      /* I =174 */
(PID.TID 0000.0001)                 8.948571540392020E+10,      /* I =175 */
(PID.TID 0000.0001)                 9.049530583086168E+10,      /* I =176 */
(PID.TID 0000.0001)                 9.083293515008307E+10,      /* I =177 */
(PID.TID 0000.0001)                 9.049530583087069E+10,      /* I =178 */
(PID.TID 0000.0001)                 8.948571540391121E+10,      /* I =179 */
(PID.TID 0000.0001)                 8.781353403174184E+10,      /* I =180 */
(PID.TID 0000.0001)                 8.549360686467183E+10,      /* I =181 */
(PID.TID 0000.0001)                 8.254500894890933E+10,      /* I =182 */
(PID.TID 0000.0001)                 7.898934631434262E+10,      /* I =183 */
(PID.TID 0000.0001)                 7.484854821844796E+10,      /* I =184 */
(PID.TID 0000.0001)                 7.014205907742783E+10,      /* I =185 */
(PID.TID 0000.0001)                 6.488320895111515E+10,      /* I =186 */
(PID.TID 0000.0001)                 5.907428494299064E+10,      /* I =187 */
(PID.TID 0000.0001)                 5.269930713599078E+10,      /* I =188 */
(PID.TID 0000.0001)                 4.571243814190768E+10,      /* I =189 */
(PID.TID 0000.0001)                 3.801790263325260E+10,      /* I =190 */
(PID.TID 0000.0001)                 2.943712825251114E+10,      /* I =191 */
(PID.TID 0000.0001)                 1.974052138509018E+10       /* I =192 */
(PID.TID 0000.0001)     ;
(PID.TID 0000.0001) rAw =  /* rAw(1,:,1,:) ( m - cartesian, degrees - spherical ) */
(PID.TID 0000.0001)                 1.216690346714270E+10,      /* J =  1 */
(PID.TID 0000.0001)                 2.390126200743558E+10,      /* J =  2 */
(PID.TID 0000.0001)                 3.341968103208270E+10,      /* J =  3 */
(PID.TID 0000.0001)                 4.168532893152940E+10,      /* J =  4 */
(PID.TID 0000.0001)                 4.909074590409594E+10,      /* J =  5 */
(PID.TID 0000.0001)                 5.581203765722642E+10,      /* J =  6 */
(PID.TID 0000.0001)                 6.193257577506789E+10,      /* J =  7 */
(PID.TID 0000.0001)                 6.748840226738273E+10,      /* J =  8 */
(PID.TID 0000.0001)                 7.248875782324816E+10,      /* J =  9 */
(PID.TID 0000.0001)                 7.692702995909871E+10,      /* J = 10 */
(PID.TID 0000.0001)                 8.078743937057303E+10,      /* J = 11 */
(PID.TID 0000.0001)                 8.404959656062837E+10,      /* J = 12 */
(PID.TID 0000.0001)                 8.669186205742539E+10,      /* J = 13 */
(PID.TID 0000.0001)                 8.869393350723612E+10,      /* J = 14 */
(PID.TID 0000.0001)                 9.003884657168852E+10,      /* J = 15 */
(PID.TID 0000.0001)     2 @  9.071447638299398E+10,             /* J = 16: 17 */
(PID.TID 0000.0001)                 9.003884657168852E+10,      /* J = 18 */
(PID.TID 0000.0001)                 8.869393350723612E+10,      /* J = 19 */
(PID.TID 0000.0001)                 8.669186205742539E+10,      /* J = 20 */
(PID.TID 0000.0001)                 8.404959656062837E+10,      /* J = 21 */
(PID.TID 0000.0001)                 8.078743937057303E+10,      /* J = 22 */
(PID.TID 0000.0001)                 7.692702995909871E+10,      /* J = 23 */
(PID.TID 0000.0001)                 7.248875782324816E+10,      /* J = 24 */
(PID.TID 0000.0001)                 6.748840226738273E+10,      /* J = 25 */
(PID.TID 0000.0001)                 6.193257577506789E+10,      /* J = 26 */
(PID.TID 0000.0001)                 5.581203765722642E+10,      /* J = 27 */
(PID.TID 0000.0001)                 4.909074590409594E+10,      /* J = 28 */
(PID.TID 0000.0001)                 4.168532893152940E+10,      /* J = 29 */
(PID.TID 0000.0001)                 3.341968103208270E+10,      /* J = 30 */
(PID.TID 0000.0001)                 2.390126200743558E+10,      /* J = 31 */
(PID.TID 0000.0001)                 1.216690346714270E+10       /* J = 32 */
(PID.TID 0000.0001)     ;
(PID.TID 0000.0001) rAs =  /* rAs(:,1,:,1) ( m - cartesian, degrees - spherical ) */
(PID.TID 0000.0001)                 1.216690346714270E+10,      /* I =  1 */
(PID.TID 0000.0001)                 2.390126200743558E+10,      /* I =  2 */
(PID.TID 0000.0001)                 3.341968103208270E+10,      /* I =  3 */
(PID.TID 0000.0001)                 4.168532893152940E+10,      /* I =  4 */
(PID.TID 0000.0001)                 4.909074590409594E+10,      /* I =  5 */
(PID.TID 0000.0001)                 5.581203765722642E+10,      /* I =  6 */
(PID.TID 0000.0001)                 6.193257577506789E+10,      /* I =  7 */
(PID.TID 0000.0001)                 6.748840226738273E+10,      /* I =  8 */
(PID.TID 0000.0001)                 7.248875782324816E+10,      /* I =  9 */
(PID.TID 0000.0001)                 7.692702995909871E+10,      /* I = 10 */
(PID.TID 0000.0001)                 8.078743937057303E+10,      /* I = 11 */
(PID.TID 0000.0001)                 8.404959656062837E+10,      /* I = 12 */
(PID.TID 0000.0001)                 8.669186205742539E+10,      /* I = 13 */
(PID.TID 0000.0001)                 8.869393350723612E+10,      /* I = 14 */
(PID.TID 0000.0001)                 9.003884657168852E+10,      /* I = 15 */
(PID.TID 0000.0001)     2 @  9.071447638299398E+10,             /* I = 16: 17 */
(PID.TID 0000.0001)                 9.003884657168852E+10,      /* I = 18 */
(PID.TID 0000.0001)                 8.869393350723612E+10,      /* I = 19 */
(PID.TID 0000.0001)                 8.669186205742539E+10,      /* I = 20 */
(PID.TID 0000.0001)                 8.404959656062837E+10,      /* I = 21 */
(PID.TID 0000.0001)                 8.078743937057303E+10,      /* I = 22 */
(PID.TID 0000.0001)                 7.692702995909871E+10,      /* I = 23 */
(PID.TID 0000.0001)                 7.248875782324816E+10,      /* I = 24 */
(PID.TID 0000.0001)                 6.748840226738273E+10,      /* I = 25 */
(PID.TID 0000.0001)                 6.193257577506789E+10,      /* I = 26 */
(PID.TID 0000.0001)                 5.581203765722642E+10,      /* I = 27 */
(PID.TID 0000.0001)                 4.909074590409594E+10,      /* I = 28 */
(PID.TID 0000.0001)                 4.168532893152940E+10,      /* I = 29 */
(PID.TID 0000.0001)                 3.341968103208270E+10,      /* I = 30 */
(PID.TID 0000.0001)                 2.390126200743558E+10,      /* I = 31 */
(PID.TID 0000.0001)     2 @  1.216690346714270E+10,             /* I = 32: 33 */
(PID.TID 0000.0001)                 2.390126200743558E+10,      /* I = 34 */
(PID.TID 0000.0001)                 3.341968103208270E+10,      /* I = 35 */
(PID.TID 0000.0001)                 4.168532893152940E+10,      /* I = 36 */
(PID.TID 0000.0001)                 4.909074590409594E+10,      /* I = 37 */
(PID.TID 0000.0001)                 5.581203765722642E+10,      /* I = 38 */
(PID.TID 0000.0001)                 6.193257577506789E+10,      /* I = 39 */
(PID.TID 0000.0001)                 6.748840226738273E+10,      /* I = 40 */
(PID.TID 0000.0001)                 7.248875782324816E+10,      /* I = 41 */
(PID.TID 0000.0001)                 7.692702995909871E+10,      /* I = 42 */
(PID.TID 0000.0001)                 8.078743937057303E+10,      /* I = 43 */
(PID.TID 0000.0001)                 8.404959656062837E+10,      /* I = 44 */
(PID.TID 0000.0001)                 8.669186205742539E+10,      /* I = 45 */
(PID.TID 0000.0001)                 8.869393350723612E+10,      /* I = 46 */
(PID.TID 0000.0001)                 9.003884657168852E+10,      /* I = 47 */
(PID.TID 0000.0001)     2 @  9.071447638299398E+10,             /* I = 48: 49 */
(PID.TID 0000.0001)                 9.003884657168852E+10,      /* I = 50 */
(PID.TID 0000.0001)                 8.869393350723612E+10,      /* I = 51 */
(PID.TID 0000.0001)                 8.669186205742539E+10,      /* I = 52 */
(PID.TID 0000.0001)                 8.404959656062837E+10,      /* I = 53 */
(PID.TID 0000.0001)                 8.078743937057303E+10,      /* I = 54 */
(PID.TID 0000.0001)                 7.692702995909871E+10,      /* I = 55 */
(PID.TID 0000.0001)                 7.248875782324816E+10,      /* I = 56 */
(PID.TID 0000.0001)                 6.748840226738273E+10,      /* I = 57 */
(PID.TID 0000.0001)                 6.193257577506789E+10,      /* I = 58 */
(PID.TID 0000.0001)                 5.581203765722642E+10,      /* I = 59 */
(PID.TID 0000.0001)                 4.909074590409594E+10,      /* I = 60 */
(PID.TID 0000.0001)                 4.168532893152940E+10,      /* I = 61 */
(PID.TID 0000.0001)                 3.341968103208270E+10,      /* I = 62 */
(PID.TID 0000.0001)                 2.390126200743558E+10,      /* I = 63 */
(PID.TID 0000.0001)     2 @  1.216690346714270E+10,             /* I = 64: 65 */
(PID.TID 0000.0001)                 2.390126200743558E+10,      /* I = 66 */
(PID.TID 0000.0001)                 3.341968103208270E+10,      /* I = 67 */
(PID.TID 0000.0001)                 4.168532893152940E+10,      /* I = 68 */
(PID.TID 0000.0001)                 4.909074590409594E+10,      /* I = 69 */
(PID.TID 0000.0001)                 5.581203765722642E+10,      /* I = 70 */
(PID.TID 0000.0001)                 6.193257577506789E+10,      /* I = 71 */
(PID.TID 0000.0001)                 6.748840226738273E+10,      /* I = 72 */
(PID.TID 0000.0001)                 7.248875782324816E+10,      /* I = 73 */
(PID.TID 0000.0001)                 7.692702995909871E+10,      /* I = 74 */
(PID.TID 0000.0001)                 8.078743937057303E+10,      /* I = 75 */
(PID.TID 0000.0001)                 8.404959656062837E+10,      /* I = 76 */
(PID.TID 0000.0001)                 8.669186205742539E+10,      /* I = 77 */
(PID.TID 0000.0001)                 8.869393350723612E+10,      /* I = 78 */
(PID.TID 0000.0001)                 9.003884657168852E+10,      /* I = 79 */
(PID.TID 0000.0001)     2 @  9.071447638299398E+10,             /* I = 80: 81 */
(PID.TID 0000.0001)                 9.003884657168852E+10,      /* I = 82 */
(PID.TID 0000.0001)                 8.869393350723612E+10,      /* I = 83 */
(PID.TID 0000.0001)                 8.669186205742539E+10,      /* I = 84 */
(PID.TID 0000.0001)                 8.404959656062837E+10,      /* I = 85 */
(PID.TID 0000.0001)                 8.078743937057303E+10,      /* I = 86 */
(PID.TID 0000.0001)                 7.692702995909871E+10,      /* I = 87 */
(PID.TID 0000.0001)                 7.248875782324816E+10,      /* I = 88 */
(PID.TID 0000.0001)                 6.748840226738273E+10,      /* I = 89 */
(PID.TID 0000.0001)                 6.193257577506789E+10,      /* I = 90 */
(PID.TID 0000.0001)                 5.581203765722642E+10,      /* I = 91 */
(PID.TID 0000.0001)                 4.909074590409594E+10,      /* I = 92 */
(PID.TID 0000.0001)                 4.168532893152940E+10,      /* I = 93 */
(PID.TID 0000.0001)                 3.341968103208270E+10,      /* I = 94 */
(PID.TID 0000.0001)                 2.390126200743558E+10,      /* I = 95 */
(PID.TID 0000.0001)     2 @  1.216690346714270E+10,             /* I = 96: 97 */
(PID.TID 0000.0001)                 2.390126200743558E+10,      /* I = 98 */
(PID.TID 0000.0001)                 3.341968103208270E+10,      /* I = 99 */
(PID.TID 0000.0001)                 4.168532893152940E+10,      /* I =100 */
(PID.TID 0000.0001)                 4.909074590409594E+10,      /* I =101 */
(PID.TID 0000.0001)                 5.581203765722642E+10,      /* I =102 */
(PID.TID 0000.0001)                 6.193257577506789E+10,      /* I =103 */
(PID.TID 0000.0001)                 6.748840226738273E+10,      /* I =104 */
(PID.TID 0000.0001)                 7.248875782324816E+10,      /* I =105 */
(PID.TID 0000.0001)                 7.692702995909871E+10,      /* I =106 */
(PID.TID 0000.0001)                 8.078743937057303E+10,      /* I =107 */
(PID.TID 0000.0001)                 8.404959656062837E+10,      /* I =108 */
(PID.TID 0000.0001)                 8.669186205742539E+10,      /* I =109 */
(PID.TID 0000.0001)                 8.869393350723612E+10,      /* I =110 */
(PID.TID 0000.0001)                 9.003884657168852E+10,      /* I =111 */
(PID.TID 0000.0001)     2 @  9.071447638299398E+10,             /* I =112:113 */
(PID.TID 0000.0001)                 9.003884657168852E+10,      /* I =114 */
(PID.TID 0000.0001)                 8.869393350723612E+10,      /* I =115 */
(PID.TID 0000.0001)                 8.669186205742539E+10,      /* I =116 */
(PID.TID 0000.0001)                 8.404959656062837E+10,      /* I =117 */
(PID.TID 0000.0001)                 8.078743937057303E+10,      /* I =118 */
(PID.TID 0000.0001)                 7.692702995909871E+10,      /* I =119 */
(PID.TID 0000.0001)                 7.248875782324816E+10,      /* I =120 */
(PID.TID 0000.0001)                 6.748840226738273E+10,      /* I =121 */
(PID.TID 0000.0001)                 6.193257577506789E+10,      /* I =122 */
(PID.TID 0000.0001)                 5.581203765722642E+10,      /* I =123 */
(PID.TID 0000.0001)                 4.909074590409594E+10,      /* I =124 */
(PID.TID 0000.0001)                 4.168532893152940E+10,      /* I =125 */
(PID.TID 0000.0001)                 3.341968103208270E+10,      /* I =126 */
(PID.TID 0000.0001)                 2.390126200743558E+10,      /* I =127 */
(PID.TID 0000.0001)     2 @  1.216690346714270E+10,             /* I =128:129 */
(PID.TID 0000.0001)                 2.390126200743558E+10,      /* I =130 */
(PID.TID 0000.0001)                 3.341968103208270E+10,      /* I =131 */
(PID.TID 0000.0001)                 4.168532893152940E+10,      /* I =132 */
(PID.TID 0000.0001)                 4.909074590409594E+10,      /* I =133 */
(PID.TID 0000.0001)                 5.581203765722642E+10,      /* I =134 */
(PID.TID 0000.0001)                 6.193257577506789E+10,      /* I =135 */
(PID.TID 0000.0001)                 6.748840226738273E+10,      /* I =136 */
(PID.TID 0000.0001)                 7.248875782324816E+10,      /* I =137 */
(PID.TID 0000.0001)                 7.692702995909871E+10,      /* I =138 */
(PID.TID 0000.0001)                 8.078743937057303E+10,      /* I =139 */
(PID.TID 0000.0001)                 8.404959656062837E+10,      /* I =140 */
(PID.TID 0000.0001)                 8.669186205742539E+10,      /* I =141 */
(PID.TID 0000.0001)                 8.869393350723612E+10,      /* I =142 */
(PID.TID 0000.0001)                 9.003884657168852E+10,      /* I =143 */
(PID.TID 0000.0001)     2 @  9.071447638299398E+10,             /* I =144:145 */
(PID.TID 0000.0001)                 9.003884657168852E+10,      /* I =146 */
(PID.TID 0000.0001)                 8.869393350723612E+10,      /* I =147 */
(PID.TID 0000.0001)                 8.669186205742539E+10,      /* I =148 */
(PID.TID 0000.0001)                 8.404959656062837E+10,      /* I =149 */
(PID.TID 0000.0001)                 8.078743937057303E+10,      /* I =150 */
(PID.TID 0000.0001)                 7.692702995909871E+10,      /* I =151 */
(PID.TID 0000.0001)                 7.248875782324816E+10,      /* I =152 */
(PID.TID 0000.0001)                 6.748840226738273E+10,      /* I =153 */
(PID.TID 0000.0001)                 6.193257577506789E+10,      /* I =154 */
(PID.TID 0000.0001)                 5.581203765722642E+10,      /* I =155 */
(PID.TID 0000.0001)                 4.909074590409594E+10,      /* I =156 */
(PID.TID 0000.0001)                 4.168532893152940E+10,      /* I =157 */
(PID.TID 0000.0001)                 3.341968103208270E+10,      /* I =158 */
(PID.TID 0000.0001)                 2.390126200743558E+10,      /* I =159 */
(PID.TID 0000.0001)     2 @  1.216690346714270E+10,             /* I =160:161 */
(PID.TID 0000.0001)                 2.390126200743558E+10,      /* I =162 */
(PID.TID 0000.0001)                 3.341968103208270E+10,      /* I =163 */
(PID.TID 0000.0001)                 4.168532893152940E+10,      /* I =164 */
(PID.TID 0000.0001)                 4.909074590409594E+10,      /* I =165 */
(PID.TID 0000.0001)                 5.581203765722642E+10,      /* I =166 */
(PID.TID 0000.0001)                 6.193257577506789E+10,      /* I =167 */
(PID.TID 0000.0001)                 6.748840226738273E+10,      /* I =168 */
(PID.TID 0000.0001)                 7.248875782324816E+10,      /* I =169 */
(PID.TID 0000.0001)                 7.692702995909871E+10,      /* I =170 */
(PID.TID 0000.0001)                 8.078743937057303E+10,      /* I =171 */
(PID.TID 0000.0001)                 8.404959656062837E+10,      /* I =172 */
(PID.TID 0000.0001)                 8.669186205742539E+10,      /* I =173 */
(PID.TID 0000.0001)                 8.869393350723612E+10,      /* I =174 */
(PID.TID 0000.0001)                 9.003884657168852E+10,      /* I =175 */
(PID.TID 0000.0001)     2 @  9.071447638299398E+10,             /* I =176:177 */
(PID.TID 0000.0001)                 9.003884657168852E+10,      /* I =178 */
(PID.TID 0000.0001)                 8.869393350723612E+10,      /* I =179 */
(PID.TID 0000.0001)                 8.669186205742539E+10,      /* I =180 */
(PID.TID 0000.0001)                 8.404959656062837E+10,      /* I =181 */
(PID.TID 0000.0001)                 8.078743937057303E+10,      /* I =182 */
(PID.TID 0000.0001)                 7.692702995909871E+10,      /* I =183 */
(PID.TID 0000.0001)                 7.248875782324816E+10,      /* I =184 */
(PID.TID 0000.0001)                 6.748840226738273E+10,      /* I =185 */
(PID.TID 0000.0001)                 6.193257577506789E+10,      /* I =186 */
(PID.TID 0000.0001)                 5.581203765722642E+10,      /* I =187 */
(PID.TID 0000.0001)                 4.909074590409594E+10,      /* I =188 */
(PID.TID 0000.0001)                 4.168532893152940E+10,      /* I =189 */
(PID.TID 0000.0001)                 3.341968103208270E+10,      /* I =190 */
(PID.TID 0000.0001)                 2.390126200743558E+10,      /* I =191 */
(PID.TID 0000.0001)                 1.216690346714270E+10       /* I =192 */
(PID.TID 0000.0001)     ;
(PID.TID 0000.0001) rAs =  /* rAs(1,:,1,:) ( m - cartesian, degrees - spherical ) */
(PID.TID 0000.0001)                 1.216690346714270E+10,      /* J =  1 */
(PID.TID 0000.0001)                 1.974052138506315E+10,      /* J =  2 */
(PID.TID 0000.0001)                 2.943712825252015E+10,      /* J =  3 */
(PID.TID 0000.0001)                 3.801790263324359E+10,      /* J =  4 */
(PID.TID 0000.0001)                 4.571243814189866E+10,      /* J =  5 */
(PID.TID 0000.0001)                 5.269930713599979E+10,      /* J =  6 */
(PID.TID 0000.0001)                 5.907428494299064E+10,      /* J =  7 */
(PID.TID 0000.0001)                 6.488320895111515E+10,      /* J =  8 */
(PID.TID 0000.0001)                 7.014205907741883E+10,      /* J =  9 */
(PID.TID 0000.0001)                 7.484854821847499E+10,      /* J = 10 */
(PID.TID 0000.0001)                 7.898934631431560E+10,      /* J = 11 */
(PID.TID 0000.0001)                 8.254500894894537E+10,      /* J = 12 */
(PID.TID 0000.0001)                 8.549360686473493E+10,      /* J = 13 */
(PID.TID 0000.0001)                 8.781353403175085E+10,      /* J = 14 */
(PID.TID 0000.0001)                 8.948571540392020E+10,      /* J = 15 */
(PID.TID 0000.0001)                 9.049530583086168E+10,      /* J = 16 */
(PID.TID 0000.0001)                 9.083293515008307E+10,      /* J = 17 */
(PID.TID 0000.0001)                 9.049530583087069E+10,      /* J = 18 */
(PID.TID 0000.0001)                 8.948571540391121E+10,      /* J = 19 */
(PID.TID 0000.0001)                 8.781353403174184E+10,      /* J = 20 */
(PID.TID 0000.0001)                 8.549360686467183E+10,      /* J = 21 */
(PID.TID 0000.0001)                 8.254500894890933E+10,      /* J = 22 */
(PID.TID 0000.0001)                 7.898934631434262E+10,      /* J = 23 */
(PID.TID 0000.0001)                 7.484854821844796E+10,      /* J = 24 */
(PID.TID 0000.0001)                 7.014205907742783E+10,      /* J = 25 */
(PID.TID 0000.0001)                 6.488320895111515E+10,      /* J = 26 */
(PID.TID 0000.0001)                 5.907428494299064E+10,      /* J = 27 */
(PID.TID 0000.0001)                 5.269930713599078E+10,      /* J = 28 */
(PID.TID 0000.0001)                 4.571243814190768E+10,      /* J = 29 */
(PID.TID 0000.0001)                 3.801790263325260E+10,      /* J = 30 */
(PID.TID 0000.0001)                 2.943712825251114E+10,      /* J = 31 */
(PID.TID 0000.0001)                 1.974052138509018E+10       /* J = 32 */
(PID.TID 0000.0001)     ;
(PID.TID 0000.0001) 
(PID.TID 0000.0001) // =======================================================
(PID.TID 0000.0001) // Field Ocean mixed-layer depth on atmos grid at iteration          1
(PID.TID 0000.0001) // CMIN =          5.000000000000000E+01
(PID.TID 0000.0001) // CMAX =          5.000000000000000E+01
(PID.TID 0000.0001) // CINT =          0.000000000000000E+00
(PID.TID 0000.0001) // SYMBOLS (CMIN->CMAX): -abcdefghijklmnopqrstuvwxyz+
(PID.TID 0000.0001) //                  0.0: .
(PID.TID 0000.0001) // RANGE I (Lo:Hi:Step):(  -1: 194:   1)
(PID.TID 0000.0001) // RANGE J (Lo:Hi:Step):(  34:  -1:  -1)
(PID.TID 0000.0001) // RANGE K (Lo:Hi:Step):(   1:   1:   1)
(PID.TID 0000.0001) // =======================================================
(PID.TID 0000.0001) // =======================================================
(PID.TID 0000.0001) // END OF FIELD                                          =
(PID.TID 0000.0001) // =======================================================
(PID.TID 0000.0001) 
(PID.TID 0000.0001) // =======================================================
(PID.TID 0000.0001) // Field Initial Temperature at iteration          1
(PID.TID 0000.0001) // CMIN =          2.896000000000000E+02
(PID.TID 0000.0001) // CMAX =          2.896000000000000E+02
(PID.TID 0000.0001) // CINT =          0.000000000000000E+00
(PID.TID 0000.0001) // SYMBOLS (CMIN->CMAX): -abcdefghijklmnopqrstuvwxyz+
(PID.TID 0000.0001) //                  0.0: .
(PID.TID 0000.0001) // RANGE I (Lo:Hi:Step):(   1: 192:   1)
(PID.TID 0000.0001) // RANGE J (Lo:Hi:Step):(  32:   1:  -1)
(PID.TID 0000.0001) // RANGE K (Lo:Hi:Step):(   1:   1:   1)
(PID.TID 0000.0001) // =======================================================
(PID.TID 0000.0001) // =======================================================
(PID.TID 0000.0001) // END OF FIELD                                          =
(PID.TID 0000.0001) // =======================================================
(PID.TID 0000.0001) 
(PID.TID 0000.0001) // =======================================================
(PID.TID 0000.0001) // Field Initial Salinity at iteration          1
(PID.TID 0000.0001) // CMIN =          1.000000000000000E+32
(PID.TID 0000.0001) // CMAX =         -1.000000000000000E+32
(PID.TID 0000.0001) // CINT =          0.000000000000000E+00
(PID.TID 0000.0001) // SYMBOLS (CMIN->CMAX): -abcdefghijklmnopqrstuvwxyz+
(PID.TID 0000.0001) //                  0.0: .
(PID.TID 0000.0001) // RANGE I (Lo:Hi:Step):(   1: 192:   1)
(PID.TID 0000.0001) // RANGE J (Lo:Hi:Step):(  32:   1:  -1)
(PID.TID 0000.0001) // RANGE K (Lo:Hi:Step):(   1:   1:   1)
(PID.TID 0000.0001) // =======================================================
(PID.TID 0000.0001) // =======================================================
(PID.TID 0000.0001) // END OF FIELD                                          =
(PID.TID 0000.0001) // =======================================================
(PID.TID 0000.0001) 
(PID.TID 0000.0001) Start initial hydrostatic pressure computation
(PID.TID 0000.0001) Pressure is predetermined for buoyancyRelation ATMOSPHERIC
(PID.TID 0000.0001) 
(PID.TID 0000.0001)  MDSREADFIELD: opening global file: land_grT_ini.cpl.bin
(PID.TID 0000.0001)  MDSREADFIELD: opening global file: land_grW_ini.mn.bin
(PID.TID 0000.0001)  MDSREADFIELD: opening global file: land_snw_ini.cpl.bin
(PID.TID 0000.0001) // =======================================================
(PID.TID 0000.0001) // Model current state
(PID.TID 0000.0001) // =======================================================
(PID.TID 0000.0001) 
(PID.TID 0000.0001) // =======================================================
(PID.TID 0000.0001) // Begin MONITOR dynamic field statistics
(PID.TID 0000.0001) // =======================================================
(PID.TID 0000.0001) %MON time_tsnumber                =                     0
(PID.TID 0000.0001) %MON time_secondsf                =   0.0000000000000E+00
(PID.TID 0000.0001) %MON dynstat_eta_max              =   0.0000000000000E+00
(PID.TID 0000.0001) %MON dynstat_eta_min              =   0.0000000000000E+00
(PID.TID 0000.0001) %MON dynstat_eta_mean             =   0.0000000000000E+00
(PID.TID 0000.0001) %MON dynstat_eta_sd               =   0.0000000000000E+00
(PID.TID 0000.0001) %MON dynstat_eta_del2             =   0.0000000000000E+00
(PID.TID 0000.0001) %MON dynstat_uvel_max             =   0.0000000000000E+00
(PID.TID 0000.0001) %MON dynstat_uvel_min             =   0.0000000000000E+00
(PID.TID 0000.0001) %MON dynstat_uvel_mean            =   0.0000000000000E+00
(PID.TID 0000.0001) %MON dynstat_uvel_sd              =   0.0000000000000E+00
(PID.TID 0000.0001) %MON dynstat_uvel_del2            =   0.0000000000000E+00
(PID.TID 0000.0001) %MON dynstat_vvel_max             =   0.0000000000000E+00
(PID.TID 0000.0001) %MON dynstat_vvel_min             =   0.0000000000000E+00
(PID.TID 0000.0001) %MON dynstat_vvel_mean            =   0.0000000000000E+00
(PID.TID 0000.0001) %MON dynstat_vvel_sd              =   0.0000000000000E+00
(PID.TID 0000.0001) %MON dynstat_vvel_del2            =   0.0000000000000E+00
(PID.TID 0000.0001) %MON dynstat_wvel_max             =   0.0000000000000E+00
(PID.TID 0000.0001) %MON dynstat_wvel_min             =   0.0000000000000E+00
(PID.TID 0000.0001) %MON dynstat_wvel_mean            =   0.0000000000000E+00
(PID.TID 0000.0001) %MON dynstat_wvel_sd              =   0.0000000000000E+00
(PID.TID 0000.0001) %MON dynstat_wvel_del2            =   0.0000000000000E+00
(PID.TID 0000.0001) %MON dynstat_theta_max            =   4.3740000000000E+02
(PID.TID 0000.0001) %MON dynstat_theta_min            =   2.8960000000000E+02
(PID.TID 0000.0001) %MON dynstat_theta_mean           =   3.3171566851928E+02
(PID.TID 0000.0001) %MON dynstat_theta_sd             =   4.7418367738381E+01
(PID.TID 0000.0001) %MON dynstat_theta_del2           =   0.0000000000000E+00
(PID.TID 0000.0001) %MON dynstat_salt_max             =   0.0000000000000E+00
(PID.TID 0000.0001) %MON dynstat_salt_min             =   0.0000000000000E+00
(PID.TID 0000.0001) %MON dynstat_salt_mean            =   0.0000000000000E+00
(PID.TID 0000.0001) %MON dynstat_salt_sd              =   0.0000000000000E+00
(PID.TID 0000.0001) %MON dynstat_salt_del2            =   0.0000000000000E+00
(PID.TID 0000.0001) %MON advcfl_uvel_max              =   0.0000000000000E+00
(PID.TID 0000.0001) %MON advcfl_vvel_max              =   0.0000000000000E+00
(PID.TID 0000.0001) %MON advcfl_wvel_max              =   0.0000000000000E+00
(PID.TID 0000.0001) %MON advcfl_W_hf_max              =   0.0000000000000E+00
(PID.TID 0000.0001) %MON pe_b_mean                    =   0.0000000000000E+00
(PID.TID 0000.0001) %MON ke_max                       =   0.0000000000000E+00
(PID.TID 0000.0001) %MON ke_mean                      =   0.0000000000000E+00
(PID.TID 0000.0001) %MON ke_vol                       =   4.9523908919848E+19
(PID.TID 0000.0001) %MON vort_r_min                   =   0.0000000000000E+00
(PID.TID 0000.0001) %MON vort_r_max                   =   0.0000000000000E+00
(PID.TID 0000.0001) %MON vort_a_mean                  =   6.7059142262025E-08
(PID.TID 0000.0001) %MON vort_a_sd                    =   8.3707550193537E-05
(PID.TID 0000.0001) %MON vort_p_mean                  =   6.8751141692628E-08
(PID.TID 0000.0001) %MON vort_p_sd                    =   9.1376237406445E-05
(PID.TID 0000.0001) %MON surfExpan_theta_mean         =   0.0000000000000E+00
(PID.TID 0000.0001) %MON surfExpan_salt_mean          =   0.0000000000000E+00
(PID.TID 0000.0001) %MON surfExpan_Heat_mean          =   0.0000000000000E+00
(PID.TID 0000.0001) %MON En_Budget_T2PE_mean          =   0.0000000000000E+00
(PID.TID 0000.0001) // =======================================================
(PID.TID 0000.0001) // End MONITOR dynamic field statistics
(PID.TID 0000.0001) // =======================================================
(PID.TID 0000.0001) // =======================================================
(PID.TID 0000.0001) // Begin MONITOR Land statistics
(PID.TID 0000.0001) // =======================================================
(PID.TID 0000.0001) %MON land_time_sec                =   0.0000000000000E+00
(PID.TID 0000.0001) %MON land_SnwH_ave_G              =   1.5327595968918E-01
(PID.TID 0000.0001) %MON land_SnwH_ave_S              =   5.5906277570341E-01
(PID.TID 0000.0001) %MON land_SnwH_ave_T              =   2.7405468051285E-07
(PID.TID 0000.0001) %MON land_SnwH_ave_N              =   1.2399418417812E-01
(PID.TID 0000.0001) %MON land_SnwH_max_S              =   1.0000000000000E+00
(PID.TID 0000.0001) %MON land_SnwH_max_T              =   7.7654719504950E-05
(PID.TID 0000.0001) %MON land_SnwH_max_N              =   1.0000000000000E+00
(PID.TID 0000.0001) %MON land_TotEnerg_G              =  -6.2318014275423E+21
(PID.TID 0000.0001) %MON land_TotEnerg_S              =  -4.9893442833974E+21
(PID.TID 0000.0001) %MON land_TotEnerg_T              =   7.3640891470528E+21
(PID.TID 0000.0001) %MON land_TotEnerg_N              =  -8.6065462911976E+21
(PID.TID 0000.0001) %MON land_Tsrf_ave_G              =  -2.5815959216687E+00
(PID.TID 0000.0001) %MON land_Tsrf_ave_S              =  -3.3132697963695E+00
(PID.TID 0000.0001) %MON land_Tsrf_ave_T              =   2.0149199094728E+01
(PID.TID 0000.0001) %MON land_Tsrf_ave_N              =  -1.7523201785581E+01
(PID.TID 0000.0001) %MON land_Tsrf_min_S              =  -3.8985871813098E+01
(PID.TID 0000.0001) %MON land_Tsrf_min_T              =  -8.0316451094858E+00
(PID.TID 0000.0001) %MON land_Tsrf_min_N              =  -5.5018877502675E+01
(PID.TID 0000.0001) %MON land_Tsrf_max_S              =   3.3608904510445E+01
(PID.TID 0000.0001) %MON land_Tsrf_max_T              =   3.7568273139015E+01
(PID.TID 0000.0001) %MON land_Tsrf_max_N              =   1.5686208531239E+01
(PID.TID 0000.0001) %MON land_Tgr1_ave_G              =  -2.5815959216687E+00
(PID.TID 0000.0001) %MON land_Tgr1_ave_S              =  -3.3132697963695E+00
(PID.TID 0000.0001) %MON land_Tgr1_ave_T              =   2.0149199094728E+01
(PID.TID 0000.0001) %MON land_Tgr1_ave_N              =  -1.7523201785581E+01
(PID.TID 0000.0001) %MON land_Tgr1_min_S              =  -3.8985871813098E+01
(PID.TID 0000.0001) %MON land_Tgr1_min_T              =  -8.0316451094858E+00
(PID.TID 0000.0001) %MON land_Tgr1_min_N              =  -5.5018877502675E+01
(PID.TID 0000.0001) %MON land_Tgr1_max_S              =   3.3608904510445E+01
(PID.TID 0000.0001) %MON land_Tgr1_max_T              =   3.7568273139015E+01
(PID.TID 0000.0001) %MON land_Tgr1_max_N              =   1.5686208531239E+01
(PID.TID 0000.0001) %MON land_Tgr2_ave_G              =   4.2075844789702E+00
(PID.TID 0000.0001) %MON land_Tgr2_ave_S              =  -1.8731900381715E+01
(PID.TID 0000.0001) %MON land_Tgr2_ave_T              =   2.2013117275370E+01
(PID.TID 0000.0001) %MON land_Tgr2_ave_N              =  -2.4099755438273E-01
(PID.TID 0000.0001) %MON land_Tgr2_min_S              =  -6.4762296561906E+01
(PID.TID 0000.0001) %MON land_Tgr2_min_T              =  -9.7051070040243E+00
(PID.TID 0000.0001) %MON land_Tgr2_min_N              =  -4.0193619391069E+01
(PID.TID 0000.0001) %MON land_Tgr2_max_S              =   2.3360008819708E+01
(PID.TID 0000.0001) %MON land_Tgr2_max_T              =   3.1360925912704E+01
(PID.TID 0000.0001) %MON land_Tgr2_max_N              =   2.9833038898793E+01
(PID.TID 0000.0001) %MON land_grdW_ave_G              =   4.8705004606900E-01
(PID.TID 0000.0001) %MON land_grdW_ave_S              =   3.0877764965169E-01
(PID.TID 0000.0001) %MON land_grdW_ave_T              =   5.6494425086260E-01
(PID.TID 0000.0001) %MON land_grdW_ave_N              =   4.9286506610416E-01
(PID.TID 0000.0001) %MON land_grdW_min_S              =   2.5944074829007E-02
(PID.TID 0000.0001) %MON land_grdW_min_T              =   0.0000000000000E+00
(PID.TID 0000.0001) %MON land_grdW_min_N              =   0.0000000000000E+00
(PID.TID 0000.0001) // =======================================================
(PID.TID 0000.0001) // End MONITOR Land statistics
(PID.TID 0000.0001) // =======================================================
(PID.TID 0000.0001) // =======================================================
(PID.TID 0000.0001) // Begin MONITOR Therm.SeaIce statistics
(PID.TID 0000.0001) // =======================================================
(PID.TID 0000.0001) %MON thSI_time_sec                =   0.0000000000000E+00
(PID.TID 0000.0001) %MON thSI_Ice_Area_G              =   0.0000000000000E+00
(PID.TID 0000.0001) %MON thSI_Ice_Area_S              =   0.0000000000000E+00
(PID.TID 0000.0001) %MON thSI_Ice_Area_N              =   0.0000000000000E+00
(PID.TID 0000.0001) %MON thSI_IceH_ave_G              =   0.0000000000000E+00
(PID.TID 0000.0001) %MON thSI_IceH_ave_S              =   0.0000000000000E+00
(PID.TID 0000.0001) %MON thSI_IceH_ave_N              =   0.0000000000000E+00
(PID.TID 0000.0001) %MON thSI_IceH_max_S              =   0.0000000000000E+00
(PID.TID 0000.0001) %MON thSI_IceH_max_N              =   0.0000000000000E+00
(PID.TID 0000.0001) %MON thSI_SnwH_ave_G              =   0.0000000000000E+00
(PID.TID 0000.0001) %MON thSI_SnwH_ave_S              =   0.0000000000000E+00
(PID.TID 0000.0001) %MON thSI_SnwH_ave_N              =   0.0000000000000E+00
(PID.TID 0000.0001) %MON thSI_SnwH_max_S              =   0.0000000000000E+00
(PID.TID 0000.0001) %MON thSI_SnwH_max_N              =   0.0000000000000E+00
(PID.TID 0000.0001) %MON thSI_TotEnerg_G              =   0.0000000000000E+00
(PID.TID 0000.0001) %MON thSI_Tsrf_ave_G              =   0.0000000000000E+00
(PID.TID 0000.0001) %MON thSI_Tsrf_ave_S              =   0.0000000000000E+00
(PID.TID 0000.0001) %MON thSI_Tsrf_ave_N              =   0.0000000000000E+00
(PID.TID 0000.0001) %MON thSI_Tsrf_min_S              =   0.0000000000000E+00
(PID.TID 0000.0001) %MON thSI_Tsrf_min_N              =   0.0000000000000E+00
(PID.TID 0000.0001) %MON thSI_Tsrf_max_S              =   0.0000000000000E+00
(PID.TID 0000.0001) %MON thSI_Tsrf_max_N              =   0.0000000000000E+00
(PID.TID 0000.0001) %MON thSI_Tic1_ave_G              =   0.0000000000000E+00
(PID.TID 0000.0001) %MON thSI_Tic1_ave_S              =   0.0000000000000E+00
(PID.TID 0000.0001) %MON thSI_Tic1_ave_N              =   0.0000000000000E+00
(PID.TID 0000.0001) %MON thSI_Tic1_min_S              =   0.0000000000000E+00
(PID.TID 0000.0001) %MON thSI_Tic1_min_N              =   0.0000000000000E+00
(PID.TID 0000.0001) %MON thSI_Tic1_max_S              =   0.0000000000000E+00
(PID.TID 0000.0001) %MON thSI_Tic1_max_N              =   0.0000000000000E+00
(PID.TID 0000.0001) %MON thSI_Tic2_ave_G              =   0.0000000000000E+00
(PID.TID 0000.0001) %MON thSI_Tic2_ave_S              =   0.0000000000000E+00
(PID.TID 0000.0001) %MON thSI_Tic2_ave_N              =   0.0000000000000E+00
(PID.TID 0000.0001) %MON thSI_Tic2_min_S              =   0.0000000000000E+00
(PID.TID 0000.0001) %MON thSI_Tic2_min_N              =   0.0000000000000E+00
(PID.TID 0000.0001) %MON thSI_Tic2_max_S              =   0.0000000000000E+00
(PID.TID 0000.0001) %MON thSI_Tic2_max_N              =   0.0000000000000E+00
(PID.TID 0000.0001) // =======================================================
(PID.TID 0000.0001) // End MONITOR Therm.SeaIce statistics
(PID.TID 0000.0001) // =======================================================
(PID.TID 0000.0001)  MDSREADFIELD: opening global file: albedo_cs32.bin
(PID.TID 0000.0001)  MDSREADFIELD: opening global file: vegetFrc.cpl_FM.bin
(PID.TID 0000.0001)  MDSREADFIELD: opening global file: seaSurfT.cpl_FM.bin
(PID.TID 0000.0001)  MDSREADFIELD: opening global file: seaSurfT.cpl_FM.bin
(PID.TID 0000.0001)  MDSREADFIELD: opening global file: lndSurfT.cpl_FM.bin
(PID.TID 0000.0001)  MDSREADFIELD: opening global file: lndSurfT.cpl_FM.bin
(PID.TID 0000.0001)  MDSREADFIELD: opening global file: seaIce.cpl3FM.bin
(PID.TID 0000.0001)  MDSREADFIELD: opening global file: seaIce.cpl3FM.bin
(PID.TID 0000.0001)  MDSREADFIELD: opening global file: snowDepth.cpl_FM.bin
(PID.TID 0000.0001)  MDSREADFIELD: opening global file: snowDepth.cpl_FM.bin
(PID.TID 0000.0001)  MDSREADFIELD: opening global file: soilMoist.cpl_FM.bin
(PID.TID 0000.0001)  MDSREADFIELD: opening global file: soilMoist.cpl_FM.bin
(PID.TID 0000.0001)  MDSREADFIELD: opening global file: soilMoist.cpl_FM.bin
(PID.TID 0000.0001)  MDSREADFIELD: opening global file: soilMoist.cpl_FM.bin
 cg2d: Sum(rhs),rhsMax =  -8.64019966684282E-12  4.56406615217966E+03
(PID.TID 0000.0001)                    cg2d_init_res =    2.69435642942126E+04
(PID.TID 0000.0001)                       cg2d_iters =    16
(PID.TID 0000.0001)                         cg2d_res =    1.06445831620479E-10
(PID.TID 0000.0001) // =======================================================
(PID.TID 0000.0001) // Begin MONITOR dynamic field statistics
(PID.TID 0000.0001) // =======================================================
(PID.TID 0000.0001) %MON time_tsnumber                =                     1
(PID.TID 0000.0001) %MON time_secondsf                =   4.5000000000000E+02
(PID.TID 0000.0001) %MON dynstat_eta_max              =   4.9613836014184E+02
(PID.TID 0000.0001) %MON dynstat_eta_min              =  -4.3215362210608E+02
(PID.TID 0000.0001) %MON dynstat_eta_mean             =  -2.1023550221251E-16
(PID.TID 0000.0001) %MON dynstat_eta_sd               =   4.9165804759269E+01
(PID.TID 0000.0001) %MON dynstat_eta_del2             =   1.4268407331310E+01
(PID.TID 0000.0001) %MON dynstat_uvel_max             =   3.4896271935293E+00
(PID.TID 0000.0001) %MON dynstat_uvel_min             =  -2.8043477370503E+00
(PID.TID 0000.0001) %MON dynstat_uvel_mean            =  -8.6186344161884E-04
(PID.TID 0000.0001) %MON dynstat_uvel_sd              =   2.3938982710456E-01
(PID.TID 0000.0001) %MON dynstat_uvel_del2            =   3.3130023277177E-02
(PID.TID 0000.0001) %MON dynstat_vvel_max             =   3.6044902563287E+00
(PID.TID 0000.0001) %MON dynstat_vvel_min             =  -3.8832729647589E+00
(PID.TID 0000.0001) %MON dynstat_vvel_mean            =   1.0770655299200E-03
(PID.TID 0000.0001) %MON dynstat_vvel_sd              =   2.3140373950851E-01
(PID.TID 0000.0001) %MON dynstat_vvel_del2            =   3.3576370990052E-02
(PID.TID 0000.0001) %MON dynstat_wvel_max             =   4.7528267180665E-02
(PID.TID 0000.0001) %MON dynstat_wvel_min             =  -3.2491026139051E-01
(PID.TID 0000.0001) %MON dynstat_wvel_mean            =  -1.2601788696702E-03
(PID.TID 0000.0001) %MON dynstat_wvel_sd              =   1.0323039191429E-02
(PID.TID 0000.0001) %MON dynstat_wvel_del2            =   1.1364719435226E-03
(PID.TID 0000.0001) %MON dynstat_theta_max            =   4.3742421279788E+02
(PID.TID 0000.0001) %MON dynstat_theta_min            =   2.8934446142959E+02
(PID.TID 0000.0001) %MON dynstat_theta_mean           =   3.3171681702165E+02
(PID.TID 0000.0001) %MON dynstat_theta_sd             =   4.7417090058469E+01
(PID.TID 0000.0001) %MON dynstat_theta_del2           =   1.8085142586785E-03
(PID.TID 0000.0001) %MON dynstat_salt_max             =   4.8330616477211E-01
(PID.TID 0000.0001) %MON dynstat_salt_min             =  -3.6274129363502E-03
(PID.TID 0000.0001) %MON dynstat_salt_mean            =   4.0932545346172E-03
(PID.TID 0000.0001) %MON dynstat_salt_sd              =   1.7925045604470E-02
(PID.TID 0000.0001) %MON dynstat_salt_del2            =   7.2186794348067E-04
(PID.TID 0000.0001) %MON advcfl_uvel_max              =   5.0093339770585E-03
(PID.TID 0000.0001) %MON advcfl_vvel_max              =   5.5233695889847E-03
(PID.TID 0000.0001) %MON advcfl_wvel_max              =   5.3167133682084E-03
(PID.TID 0000.0001) %MON advcfl_W_hf_max              =   1.3330281514811E-02
(PID.TID 0000.0001) %MON pe_b_mean                    =  -1.2347200430462E-01
(PID.TID 0000.0001) %MON ke_max                       =   6.1065189290563E+00
(PID.TID 0000.0001) %MON ke_mean                      =   5.5101768014870E-02
(PID.TID 0000.0001) %MON ke_vol                       =   4.9523908919848E+19
(PID.TID 0000.0001) %MON vort_r_min                   =  -9.4580139346488E-06
(PID.TID 0000.0001) %MON vort_r_max                   =   7.4909088464658E-06
(PID.TID 0000.0001) %MON vort_a_mean                  =   6.7059142261986E-08
(PID.TID 0000.0001) %MON vort_a_sd                    =   8.3707668575654E-05
(PID.TID 0000.0001) %MON vort_p_mean                  =   6.8751141692588E-08
(PID.TID 0000.0001) %MON vort_p_sd                    =   9.1371923286237E-05
(PID.TID 0000.0001) %MON surfExpan_theta_mean         =   1.1973498188420E-01
(PID.TID 0000.0001) %MON surfExpan_salt_mean          =   1.8113429030628E-06
(PID.TID 0000.0001) %MON surfExpan_Heat_mean          =  -9.8251693184260E+00
(PID.TID 0000.0001) %MON En_Budget_T2PE_mean          =   1.8746045010892E+01
(PID.TID 0000.0001) // =======================================================
(PID.TID 0000.0001) // End MONITOR dynamic field statistics
(PID.TID 0000.0001) // =======================================================
(PID.TID 0000.0001) // =======================================================
(PID.TID 0000.0001) // Begin MONITOR Land statistics
(PID.TID 0000.0001) // =======================================================
(PID.TID 0000.0001) %MON land_time_sec                =   4.5000000000000E+02
(PID.TID 0000.0001) %MON land_SnwH_ave_G              =   1.5324899397338E-01
(PID.TID 0000.0001) %MON land_SnwH_ave_S              =   5.5906218965844E-01
(PID.TID 0000.0001) %MON land_SnwH_ave_T              =   0.0000000000000E+00
(PID.TID 0000.0001) %MON land_SnwH_ave_N              =   1.2394083715153E-01
(PID.TID 0000.0001) %MON land_SnwH_max_S              =   9.9999995109566E-01
(PID.TID 0000.0001) %MON land_SnwH_max_T              =   0.0000000000000E+00
(PID.TID 0000.0001) %MON land_SnwH_max_N              =   9.9999994050054E-01
(PID.TID 0000.0001) %MON LAND : Area= 1.460176263E+14 ; Lat sep= -24.00  24.00
(PID.TID 0000.0001) %MON LAND : LatA= 2.377676559E+13 4.894489218E+13 7.329596851E+13
(PID.TID 0000.0001) %MON land_TotEnerg_G              =  -6.2449515374219E+21
(PID.TID 0000.0001) %MON land_TotEnerg_S              =  -4.9909822313117E+21
(PID.TID 0000.0001) %MON land_TotEnerg_T              =   7.3535791679035E+21
(PID.TID 0000.0001) %MON land_TotEnerg_N              =  -8.6075484740138E+21
(PID.TID 0000.0001) %MON land_Tsrf_ave_G              =  -4.5052770691886E+00
(PID.TID 0000.0001) %MON land_Tsrf_ave_S              =  -4.8557437392646E+00
(PID.TID 0000.0001) %MON land_Tsrf_ave_T              =   1.8966286014486E+01
(PID.TID 0000.0001) %MON land_Tsrf_ave_N              =  -2.0065207357261E+01
(PID.TID 0000.0001) %MON land_Tsrf_min_S              =  -3.4789766254951E+01
(PID.TID 0000.0001) %MON land_Tsrf_min_T              =  -7.7792666782447E+00
(PID.TID 0000.0001) %MON land_Tsrf_min_N              =  -5.2214355600519E+01
(PID.TID 0000.0001) %MON land_Tsrf_max_S              =   3.1948450259187E+01
(PID.TID 0000.0001) %MON land_Tsrf_max_T              =   3.5749274328408E+01
(PID.TID 0000.0001) %MON land_Tsrf_max_N              =   1.5372300088674E+01
(PID.TID 0000.0001) %MON land_Tgr1_ave_G              =  -3.1128744327563E+00
(PID.TID 0000.0001) %MON land_Tgr1_ave_S              =  -3.7817603349593E+00
(PID.TID 0000.0001) %MON land_Tgr1_ave_T              =   1.8966286014486E+01
(PID.TID 0000.0001) %MON land_Tgr1_ave_N              =  -1.7639705931337E+01
(PID.TID 0000.0001) %MON land_Tgr1_min_S              =  -3.8998400972344E+01
(PID.TID 0000.0001) %MON land_Tgr1_min_T              =  -7.7792666782447E+00
(PID.TID 0000.0001) %MON land_Tgr1_min_N              =  -5.5006040010541E+01
(PID.TID 0000.0001) %MON land_Tgr1_max_S              =   3.1948450259187E+01
(PID.TID 0000.0001) %MON land_Tgr1_max_T              =   3.5749274328408E+01
(PID.TID 0000.0001) %MON land_Tgr1_max_N              =   1.5372300088674E+01
(PID.TID 0000.0001) %MON land_Tgr2_ave_G              =   4.2074719542915E+00
(PID.TID 0000.0001) %MON land_Tgr2_ave_S              =  -1.8731652801597E+01
(PID.TID 0000.0001) %MON land_Tgr2_ave_T              =   2.2013064780622E+01
(PID.TID 0000.0001) %MON land_Tgr2_ave_N              =  -2.4126698108521E-01
(PID.TID 0000.0001) %MON land_Tgr2_min_S              =  -6.4761861869264E+01
(PID.TID 0000.0001) %MON land_Tgr2_min_T              =  -9.7050826694738E+00
(PID.TID 0000.0001) %MON land_Tgr2_min_N              =  -4.0193860864839E+01
(PID.TID 0000.0001) %MON land_Tgr2_max_S              =   2.3360154761154E+01
(PID.TID 0000.0001) %MON land_Tgr2_max_T              =   3.1360681941136E+01
(PID.TID 0000.0001) %MON land_Tgr2_max_N              =   2.9832408494537E+01
(PID.TID 0000.0001) %MON land_grdW_ave_G              =   4.8703719987843E-01
(PID.TID 0000.0001) %MON land_grdW_ave_S              =   3.0876198463413E-01
(PID.TID 0000.0001) %MON land_grdW_ave_T              =   5.6488810374958E-01
(PID.TID 0000.0001) %MON land_grdW_ave_N              =   4.9288204940644E-01
(PID.TID 0000.0001) %MON land_grdW_min_S              =   2.5934335757901E-02
(PID.TID 0000.0001) %MON land_grdW_min_T              =   0.0000000000000E+00
(PID.TID 0000.0001) %MON land_grdW_min_N              =   0.0000000000000E+00
(PID.TID 0000.0001) // =======================================================
(PID.TID 0000.0001) // End MONITOR Land statistics
(PID.TID 0000.0001) // =======================================================
(PID.TID 0000.0001) // =======================================================
(PID.TID 0000.0001) // Begin MONITOR Therm.SeaIce statistics
(PID.TID 0000.0001) // =======================================================
(PID.TID 0000.0001) %MON thSI_time_sec                =   4.5000000000000E+02
(PID.TID 0000.0001) %MON thSI_Ice_Area_G              =   0.0000000000000E+00
(PID.TID 0000.0001) %MON thSI_Ice_Area_S              =   0.0000000000000E+00
(PID.TID 0000.0001) %MON thSI_Ice_Area_N              =   0.0000000000000E+00
(PID.TID 0000.0001) %MON thSI_IceH_ave_G              =   0.0000000000000E+00
(PID.TID 0000.0001) %MON thSI_IceH_ave_S              =   0.0000000000000E+00
(PID.TID 0000.0001) %MON thSI_IceH_ave_N              =   0.0000000000000E+00
(PID.TID 0000.0001) %MON thSI_IceH_max_S              =   0.0000000000000E+00
(PID.TID 0000.0001) %MON thSI_IceH_max_N              =   0.0000000000000E+00
(PID.TID 0000.0001) %MON thSI_SnwH_ave_G              =   0.0000000000000E+00
(PID.TID 0000.0001) %MON thSI_SnwH_ave_S              =   0.0000000000000E+00
(PID.TID 0000.0001) %MON thSI_SnwH_ave_N              =   0.0000000000000E+00
(PID.TID 0000.0001) %MON thSI_SnwH_max_S              =   0.0000000000000E+00
(PID.TID 0000.0001) %MON thSI_SnwH_max_N              =   0.0000000000000E+00
(PID.TID 0000.0001) %MON thSI_TotEnerg_G              =   0.0000000000000E+00
(PID.TID 0000.0001) %MON thSI_Tsrf_ave_G              =   0.0000000000000E+00
(PID.TID 0000.0001) %MON thSI_Tsrf_ave_S              =   0.0000000000000E+00
(PID.TID 0000.0001) %MON thSI_Tsrf_ave_N              =   0.0000000000000E+00
(PID.TID 0000.0001) %MON thSI_Tsrf_min_S              =   0.0000000000000E+00
(PID.TID 0000.0001) %MON thSI_Tsrf_min_N              =   0.0000000000000E+00
(PID.TID 0000.0001) %MON thSI_Tsrf_max_S              =   0.0000000000000E+00
(PID.TID 0000.0001) %MON thSI_Tsrf_max_N              =   0.0000000000000E+00
(PID.TID 0000.0001) %MON thSI_Tic1_ave_G              =   0.0000000000000E+00
(PID.TID 0000.0001) %MON thSI_Tic1_ave_S              =   0.0000000000000E+00
(PID.TID 0000.0001) %MON thSI_Tic1_ave_N              =   0.0000000000000E+00
(PID.TID 0000.0001) %MON thSI_Tic1_min_S              =   0.0000000000000E+00
(PID.TID 0000.0001) %MON thSI_Tic1_min_N              =   0.0000000000000E+00
(PID.TID 0000.0001) %MON thSI_Tic1_max_S              =   0.0000000000000E+00
(PID.TID 0000.0001) %MON thSI_Tic1_max_N              =   0.0000000000000E+00
(PID.TID 0000.0001) %MON thSI_Tic2_ave_G              =   0.0000000000000E+00
(PID.TID 0000.0001) %MON thSI_Tic2_ave_S              =   0.0000000000000E+00
(PID.TID 0000.0001) %MON thSI_Tic2_ave_N              =   0.0000000000000E+00
(PID.TID 0000.0001) %MON thSI_Tic2_min_S              =   0.0000000000000E+00
(PID.TID 0000.0001) %MON thSI_Tic2_min_N              =   0.0000000000000E+00
(PID.TID 0000.0001) %MON thSI_Tic2_max_S              =   0.0000000000000E+00
(PID.TID 0000.0001) %MON thSI_Tic2_max_N              =   0.0000000000000E+00
(PID.TID 0000.0001) // =======================================================
(PID.TID 0000.0001) // End MONITOR Therm.SeaIce statistics
(PID.TID 0000.0001) // =======================================================
 cg2d: Sum(rhs),rhsMax =   1.64845914696343E-11  9.56478986358545E+03
(PID.TID 0000.0001)                    cg2d_init_res =    3.46476608830093E+04
(PID.TID 0000.0001)                       cg2d_iters =    17
(PID.TID 0000.0001)                         cg2d_res =    1.39449583650234E-11
(PID.TID 0000.0001) // =======================================================
(PID.TID 0000.0001) // Begin MONITOR dynamic field statistics
(PID.TID 0000.0001) // =======================================================
(PID.TID 0000.0001) %MON time_tsnumber                =                     2
(PID.TID 0000.0001) %MON time_secondsf                =   9.0000000000000E+02
(PID.TID 0000.0001) %MON dynstat_eta_max              =   1.0846919278854E+03
(PID.TID 0000.0001) %MON dynstat_eta_min              =  -1.0770483849858E+03
(PID.TID 0000.0001) %MON dynstat_eta_mean             =  -8.1583926231720E-16
(PID.TID 0000.0001) %MON dynstat_eta_sd               =   1.1830318891528E+02
(PID.TID 0000.0001) %MON dynstat_eta_del2             =   2.9873243782230E+01
(PID.TID 0000.0001) %MON dynstat_uvel_max             =   5.5538715870859E+00
(PID.TID 0000.0001) %MON dynstat_uvel_min             =  -4.8950776722160E+00
(PID.TID 0000.0001) %MON dynstat_uvel_mean            =  -1.7326172395685E-03
(PID.TID 0000.0001) %MON dynstat_uvel_sd              =   4.1480143982212E-01
(PID.TID 0000.0001) %MON dynstat_uvel_del2            =   4.0973403458782E-02
(PID.TID 0000.0001) %MON dynstat_vvel_max             =   5.9046301125805E+00
(PID.TID 0000.0001) %MON dynstat_vvel_min             =  -6.6447145338629E+00
(PID.TID 0000.0001) %MON dynstat_vvel_mean            =   2.2435373125058E-03
(PID.TID 0000.0001) %MON dynstat_vvel_sd              =   3.9212827647266E-01
(PID.TID 0000.0001) %MON dynstat_vvel_del2            =   4.1439014608195E-02
(PID.TID 0000.0001) %MON dynstat_wvel_max             =   6.4751195037398E-02
(PID.TID 0000.0001) %MON dynstat_wvel_min             =  -5.1967198564514E-01
(PID.TID 0000.0001) %MON dynstat_wvel_mean            =  -2.0748849985961E-03
(PID.TID 0000.0001) %MON dynstat_wvel_sd              =   1.6605184382900E-02
(PID.TID 0000.0001) %MON dynstat_wvel_del2            =   1.6500067807227E-03
(PID.TID 0000.0001) %MON dynstat_theta_max            =   4.3746522867930E+02
(PID.TID 0000.0001) %MON dynstat_theta_min            =   2.8908988070534E+02
(PID.TID 0000.0001) %MON dynstat_theta_mean           =   3.3171704144419E+02
(PID.TID 0000.0001) %MON dynstat_theta_sd             =   4.7416583066015E+01
(PID.TID 0000.0001) %MON dynstat_theta_del2           =   3.7579202289178E-03
(PID.TID 0000.0001) %MON dynstat_salt_max             =   9.1989087129805E-01
(PID.TID 0000.0001) %MON dynstat_salt_min             =  -2.9761879225393E-03
(PID.TID 0000.0001) %MON dynstat_salt_mean            =   8.0610876935775E-03
(PID.TID 0000.0001) %MON dynstat_salt_sd              =   3.5137494914449E-02
(PID.TID 0000.0001) %MON dynstat_salt_del2            =   1.4146110771021E-03
(PID.TID 0000.0001) %MON advcfl_uvel_max              =   7.9725415072982E-03
(PID.TID 0000.0001) %MON advcfl_vvel_max              =   9.4511033648394E-03
(PID.TID 0000.0001) %MON advcfl_wvel_max              =   8.5037234014659E-03
(PID.TID 0000.0001) %MON advcfl_W_hf_max              =   2.1189007698599E-02
(PID.TID 0000.0001) %MON pe_b_mean                    =  -2.8676981355268E-01
(PID.TID 0000.0001) %MON ke_max                       =   1.6240508119041E+01
(PID.TID 0000.0001) %MON ke_mean                      =   1.6195054981292E-01
(PID.TID 0000.0001) %MON ke_vol                       =   4.9523908919848E+19
(PID.TID 0000.0001) %MON vort_r_min                   =  -1.6351365551650E-05
(PID.TID 0000.0001) %MON vort_r_max                   =   1.1012923328528E-05
(PID.TID 0000.0001) %MON vort_a_mean                  =   6.7059142261815E-08
(PID.TID 0000.0001) %MON vort_a_sd                    =   8.3708269848252E-05
(PID.TID 0000.0001) %MON vort_p_mean                  =   6.8753523618882E-08
(PID.TID 0000.0001) %MON vort_p_sd                    =   9.1397253364437E-05
(PID.TID 0000.0001) %MON surfExpan_theta_mean         =   1.9841937336551E-01
(PID.TID 0000.0001) %MON surfExpan_salt_mean          =   3.2141265786394E-06
(PID.TID 0000.0001) %MON surfExpan_Heat_mean          =  -1.6212099175753E+01
(PID.TID 0000.0001) %MON En_Budget_T2PE_mean          =   3.0968781665991E+01
(PID.TID 0000.0001) // =======================================================
(PID.TID 0000.0001) // End MONITOR dynamic field statistics
(PID.TID 0000.0001) // =======================================================
(PID.TID 0000.0001) // =======================================================
(PID.TID 0000.0001) // Begin MONITOR Land statistics
(PID.TID 0000.0001) // =======================================================
(PID.TID 0000.0001) %MON land_time_sec                =   9.0000000000000E+02
(PID.TID 0000.0001) %MON land_SnwH_ave_G              =   1.5324757180288E-01
(PID.TID 0000.0001) %MON land_SnwH_ave_S              =   5.5906150893174E-01
(PID.TID 0000.0001) %MON land_SnwH_ave_T              =   0.0000000000000E+00
(PID.TID 0000.0001) %MON land_SnwH_ave_N              =   1.2393822477755E-01
(PID.TID 0000.0001) %MON land_SnwH_max_S              =   9.9999903262772E-01
(PID.TID 0000.0001) %MON land_SnwH_max_T              =   0.0000000000000E+00
(PID.TID 0000.0001) %MON land_SnwH_max_N              =   9.9999987508519E-01
(PID.TID 0000.0001) %MON land_TotEnerg_G              =  -6.2564815981555E+21
(PID.TID 0000.0001) %MON land_TotEnerg_S              =  -4.9923928092335E+21
(PID.TID 0000.0001) %MON land_TotEnerg_T              =   7.3445863825786E+21
(PID.TID 0000.0001) %MON land_TotEnerg_N              =  -8.6086751715005E+21
(PID.TID 0000.0001) %MON land_Tsrf_ave_G              =  -5.0729810493905E+00
(PID.TID 0000.0001) %MON land_Tsrf_ave_S              =  -5.5210817235628E+00
(PID.TID 0000.0001) %MON land_Tsrf_ave_T              =   1.7948308757744E+01
(PID.TID 0000.0001) %MON land_Tsrf_ave_N              =  -2.0300560209664E+01
(PID.TID 0000.0001) %MON land_Tsrf_min_S              =  -3.4815105324779E+01
(PID.TID 0000.0001) %MON land_Tsrf_min_T              =  -7.5297669231034E+00
(PID.TID 0000.0001) %MON land_Tsrf_min_N              =  -5.1963151921060E+01
(PID.TID 0000.0001) %MON land_Tsrf_max_S              =   3.0526181518945E+01
(PID.TID 0000.0001) %MON land_Tsrf_max_T              =   3.4123624732855E+01
(PID.TID 0000.0001) %MON land_Tsrf_max_N              =   1.4714640077056E+01
(PID.TID 0000.0001) %MON land_Tgr1_ave_G              =  -3.5654987529590E+00
(PID.TID 0000.0001) %MON land_Tgr1_ave_S              =  -4.1884721128682E+00
(PID.TID 0000.0001) %MON land_Tgr1_ave_T              =   1.7948308757744E+01
(PID.TID 0000.0001) %MON land_Tgr1_ave_N              =  -1.7729697936234E+01
(PID.TID 0000.0001) %MON land_Tgr1_min_S              =  -3.9010948749135E+01
(PID.TID 0000.0001) %MON land_Tgr1_min_T              =  -7.5297669231034E+00
(PID.TID 0000.0001) %MON land_Tgr1_min_N              =  -5.4992979126799E+01
(PID.TID 0000.0001) %MON land_Tgr1_max_S              =   3.0526181518945E+01
(PID.TID 0000.0001) %MON land_Tgr1_max_T              =   3.4123624732855E+01
(PID.TID 0000.0001) %MON land_Tgr1_max_N              =   1.4714640077056E+01
(PID.TID 0000.0001) %MON land_Tgr2_ave_G              =   4.2073557436823E+00
(PID.TID 0000.0001) %MON land_Tgr2_ave_S              =  -1.8731411682876E+01
(PID.TID 0000.0001) %MON land_Tgr2_ave_T              =   2.2012996564059E+01
(PID.TID 0000.0001) %MON land_Tgr2_ave_N              =  -2.4153115616481E-01
(PID.TID 0000.0001) %MON land_Tgr2_min_S              =  -6.4761427410580E+01
(PID.TID 0000.0001) %MON land_Tgr2_min_T              =  -9.7050551832179E+00
(PID.TID 0000.0001) %MON land_Tgr2_min_N              =  -4.0194102086638E+01
(PID.TID 0000.0001) %MON land_Tgr2_max_S              =   2.3360276042964E+01
(PID.TID 0000.0001) %MON land_Tgr2_max_T              =   3.1360419768050E+01
(PID.TID 0000.0001) %MON land_Tgr2_max_N              =   2.9832066072572E+01
(PID.TID 0000.0001) %MON land_grdW_ave_G              =   4.8701735000288E-01
(PID.TID 0000.0001) %MON land_grdW_ave_S              =   3.0874741400574E-01
(PID.TID 0000.0001) %MON land_grdW_ave_T              =   5.6483645251184E-01
(PID.TID 0000.0001) %MON land_grdW_ave_N              =   4.9288172298968E-01
(PID.TID 0000.0001) %MON land_grdW_min_S              =   2.5938631222264E-02
(PID.TID 0000.0001) %MON land_grdW_min_T              =   0.0000000000000E+00
(PID.TID 0000.0001) %MON land_grdW_min_N              =   0.0000000000000E+00
(PID.TID 0000.0001) // =======================================================
(PID.TID 0000.0001) // End MONITOR Land statistics
(PID.TID 0000.0001) // =======================================================
(PID.TID 0000.0001) // =======================================================
(PID.TID 0000.0001) // Begin MONITOR Therm.SeaIce statistics
(PID.TID 0000.0001) // =======================================================
(PID.TID 0000.0001) %MON thSI_time_sec                =   9.0000000000000E+02
(PID.TID 0000.0001) %MON thSI_Ice_Area_G              =   1.4228206176723E+10
(PID.TID 0000.0001) %MON thSI_Ice_Area_S              =   0.0000000000000E+00
(PID.TID 0000.0001) %MON thSI_Ice_Area_N              =   1.4228206176723E+10
(PID.TID 0000.0001) %MON thSI_IceH_ave_G              =   1.0000000000000E-01
(PID.TID 0000.0001) %MON thSI_IceH_ave_S              =   0.0000000000000E+00
(PID.TID 0000.0001) %MON thSI_IceH_ave_N              =   1.0000000000000E-01
(PID.TID 0000.0001) %MON thSI_IceH_max_S              =   0.0000000000000E+00
(PID.TID 0000.0001) %MON thSI_IceH_max_N              =   1.0000000000000E-01
(PID.TID 0000.0001) %MON thSI_SnwH_ave_G              =   0.0000000000000E+00
(PID.TID 0000.0001) %MON thSI_SnwH_ave_S              =   0.0000000000000E+00
(PID.TID 0000.0001) %MON thSI_SnwH_ave_N              =   0.0000000000000E+00
(PID.TID 0000.0001) %MON thSI_SnwH_max_S              =   0.0000000000000E+00
(PID.TID 0000.0001) %MON thSI_SnwH_max_N              =   0.0000000000000E+00
(PID.TID 0000.0001) %MON thSI_TotEnerg_G              =  -4.2531549312148E+17
(PID.TID 0000.0001) %MON thSI_Tsrf_ave_G              =  -1.6648040993130E+00
(PID.TID 0000.0001) %MON thSI_Tsrf_ave_S              =   0.0000000000000E+00
(PID.TID 0000.0001) %MON thSI_Tsrf_ave_N              =  -1.6648040993130E+00
(PID.TID 0000.0001) %MON thSI_Tsrf_min_S              =   0.0000000000000E+00
(PID.TID 0000.0001) %MON thSI_Tsrf_min_N              =  -1.7019828369658E+00
(PID.TID 0000.0001) %MON thSI_Tsrf_max_S              =   0.0000000000000E+00
(PID.TID 0000.0001) %MON thSI_Tsrf_max_N              =  -1.6162307215484E+00
(PID.TID 0000.0001) %MON thSI_Tic1_ave_G              =  -1.6648040993130E+00
(PID.TID 0000.0001) %MON thSI_Tic1_ave_S              =   0.0000000000000E+00
(PID.TID 0000.0001) %MON thSI_Tic1_ave_N              =  -1.6648040993130E+00
(PID.TID 0000.0001) %MON thSI_Tic1_min_S              =   0.0000000000000E+00
(PID.TID 0000.0001) %MON thSI_Tic1_min_N              =  -1.7019828369658E+00
(PID.TID 0000.0001) %MON thSI_Tic1_max_S              =   0.0000000000000E+00
(PID.TID 0000.0001) %MON thSI_Tic1_max_N              =  -1.6162307215484E+00
(PID.TID 0000.0001) %MON thSI_Tic2_ave_G              =  -1.6648040993130E+00
(PID.TID 0000.0001) %MON thSI_Tic2_ave_S              =   0.0000000000000E+00
(PID.TID 0000.0001) %MON thSI_Tic2_ave_N              =  -1.6648040993130E+00
(PID.TID 0000.0001) %MON thSI_Tic2_min_S              =   0.0000000000000E+00
(PID.TID 0000.0001) %MON thSI_Tic2_min_N              =  -1.7019828369658E+00
(PID.TID 0000.0001) %MON thSI_Tic2_max_S              =   0.0000000000000E+00
(PID.TID 0000.0001) %MON thSI_Tic2_max_N              =  -1.6162307215484E+00
(PID.TID 0000.0001) // =======================================================
(PID.TID 0000.0001) // End MONITOR Therm.SeaIce statistics
(PID.TID 0000.0001) // =======================================================
 cg2d: Sum(rhs),rhsMax =   6.02540239924565E-11  1.29915423080680E+04
(PID.TID 0000.0001)                    cg2d_init_res =    3.21466607081198E+04
(PID.TID 0000.0001)                       cg2d_iters =    17
(PID.TID 0000.0001)                         cg2d_res =    1.31697577684038E-11
(PID.TID 0000.0001) // =======================================================
(PID.TID 0000.0001) // Begin MONITOR dynamic field statistics
(PID.TID 0000.0001) // =======================================================
(PID.TID 0000.0001) %MON time_tsnumber                =                     3
(PID.TID 0000.0001) %MON time_secondsf                =   1.3500000000000E+03
(PID.TID 0000.0001) %MON dynstat_eta_max              =   1.7248486347257E+03
(PID.TID 0000.0001) %MON dynstat_eta_min              =  -1.7736126525547E+03
(PID.TID 0000.0001) %MON dynstat_eta_mean             =   1.0449018244293E-15
(PID.TID 0000.0001) %MON dynstat_eta_sd               =   1.8795711662441E+02
(PID.TID 0000.0001) %MON dynstat_eta_del2             =   4.0448079800625E+01
(PID.TID 0000.0001) %MON dynstat_uvel_max             =   6.2764635794744E+00
(PID.TID 0000.0001) %MON dynstat_uvel_min             =  -6.2809569094065E+00
(PID.TID 0000.0001) %MON dynstat_uvel_mean            =  -2.6023342465565E-03
(PID.TID 0000.0001) %MON dynstat_uvel_sd              =   5.3834531315946E-01
(PID.TID 0000.0001) %MON dynstat_uvel_del2            =   3.5248822678459E-02
(PID.TID 0000.0001) %MON dynstat_vvel_max             =   7.0783380773777E+00
(PID.TID 0000.0001) %MON dynstat_vvel_min             =  -8.1883618341731E+00
(PID.TID 0000.0001) %MON dynstat_vvel_mean            =   3.4310048628672E-03
(PID.TID 0000.0001) %MON dynstat_vvel_sd              =   5.0017481526108E-01
(PID.TID 0000.0001) %MON dynstat_vvel_del2            =   3.5407755369208E-02
(PID.TID 0000.0001) %MON dynstat_wvel_max             =   5.9024248943361E-02
(PID.TID 0000.0001) %MON dynstat_wvel_min             =  -6.0081010106989E-01
(PID.TID 0000.0001) %MON dynstat_wvel_mean            =  -2.4783895826615E-03
(PID.TID 0000.0001) %MON dynstat_wvel_sd              =   1.9332426018539E-02
(PID.TID 0000.0001) %MON dynstat_wvel_del2            =   1.7129732088105E-03
(PID.TID 0000.0001) %MON dynstat_theta_max            =   4.3749835093002E+02
(PID.TID 0000.0001) %MON dynstat_theta_min            =   2.8883948576090E+02
(PID.TID 0000.0001) %MON dynstat_theta_mean           =   3.3171695695289E+02
(PID.TID 0000.0001) %MON dynstat_theta_sd             =   4.7416660956403E+01
(PID.TID 0000.0001) %MON dynstat_theta_del2           =   5.3731042908979E-03
(PID.TID 0000.0001) %MON dynstat_salt_max             =   1.2942925628267E+00
(PID.TID 0000.0001) %MON dynstat_salt_min             =  -2.2984342627263E-03
(PID.TID 0000.0001) %MON dynstat_salt_mean            =   1.1973886857082E-02
(PID.TID 0000.0001) %MON dynstat_salt_sd              =   5.1977153726333E-02
(PID.TID 0000.0001) %MON dynstat_salt_del2            =   2.0700551394333E-03
(PID.TID 0000.0001) %MON advcfl_uvel_max              =   9.0098169577344E-03
(PID.TID 0000.0001) %MON advcfl_vvel_max              =   1.1646708626696E-02
(PID.TID 0000.0001) %MON advcfl_wvel_max              =   9.8314380175073E-03
(PID.TID 0000.0001) %MON advcfl_W_hf_max              =   2.4469979797789E-02
(PID.TID 0000.0001) %MON pe_b_mean                    =  -4.4092895356033E-01
(PID.TID 0000.0001) %MON ke_max                       =   2.3289376527813E+01
(PID.TID 0000.0001) %MON ke_mean                      =   2.6838809967790E-01
(PID.TID 0000.0001) %MON ke_vol                       =   4.9523908919847E+19
(PID.TID 0000.0001) %MON vort_r_min                   =  -2.0627741794339E-05
(PID.TID 0000.0001) %MON vort_r_max                   =   1.2409062373910E-05
(PID.TID 0000.0001) %MON vort_a_mean                  =   6.7059142261863E-08
(PID.TID 0000.0001) %MON vort_a_sd                    =   8.3709217178999E-05
(PID.TID 0000.0001) %MON vort_p_mean                  =   6.8757550448580E-08
(PID.TID 0000.0001) %MON vort_p_sd                    =   9.1437028249467E-05
(PID.TID 0000.0001) %MON surfExpan_theta_mean         =   2.3828103141911E-01
(PID.TID 0000.0001) %MON surfExpan_salt_mean          =   1.7573839469635E-06
(PID.TID 0000.0001) %MON surfExpan_Heat_mean          =  -1.9442484523293E+01
(PID.TID 0000.0001) %MON En_Budget_T2PE_mean          =   3.7130177054598E+01
(PID.TID 0000.0001) // =======================================================
(PID.TID 0000.0001) // End MONITOR dynamic field statistics
(PID.TID 0000.0001) // =======================================================
(PID.TID 0000.0001) // =======================================================
(PID.TID 0000.0001) // Begin MONITOR Land statistics
(PID.TID 0000.0001) // =======================================================
(PID.TID 0000.0001) %MON land_time_sec                =   1.3500000000000E+03
(PID.TID 0000.0001) %MON land_SnwH_ave_G              =   1.5324622328434E-01
(PID.TID 0000.0001) %MON land_SnwH_ave_S              =   5.5906076491144E-01
(PID.TID 0000.0001) %MON land_SnwH_ave_T              =   0.0000000000000E+00
(PID.TID 0000.0001) %MON land_SnwH_ave_N              =   1.2393577966244E-01
(PID.TID 0000.0001) %MON land_SnwH_max_S              =   9.9999852974933E-01
(PID.TID 0000.0001) %MON land_SnwH_max_T              =   0.0000000000000E+00
(PID.TID 0000.0001) %MON land_SnwH_max_N              =   9.9999980252487E-01
(PID.TID 0000.0001) %MON land_TotEnerg_G              =  -6.2665864192688E+21
(PID.TID 0000.0001) %MON land_TotEnerg_S              =  -4.9936184744318E+21
(PID.TID 0000.0001) %MON land_TotEnerg_T              =   7.3367862290429E+21
(PID.TID 0000.0001) %MON land_TotEnerg_N              =  -8.6097541738798E+21
(PID.TID 0000.0001) %MON land_Tsrf_ave_G              =  -5.4214297785126E+00
(PID.TID 0000.0001) %MON land_Tsrf_ave_S              =  -5.7076226084050E+00
(PID.TID 0000.0001) %MON land_Tsrf_ave_T              =   1.7061714893667E+01
(PID.TID 0000.0001) %MON land_Tsrf_ave_N              =  -2.0342173362405E+01
(PID.TID 0000.0001) %MON land_Tsrf_min_S              =  -3.4758820061247E+01
(PID.TID 0000.0001) %MON land_Tsrf_min_T              =  -7.2831021315358E+00
(PID.TID 0000.0001) %MON land_Tsrf_min_N              =  -5.1362165218223E+01
(PID.TID 0000.0001) %MON land_Tsrf_max_S              =   2.9347005382539E+01
(PID.TID 0000.0001) %MON land_Tsrf_max_T              =   3.2666614583602E+01
(PID.TID 0000.0001) %MON land_Tsrf_max_N              =   1.4113857324849E+01
(PID.TID 0000.0001) %MON land_Tgr1_ave_G              =  -3.9629309826555E+00
(PID.TID 0000.0001) %MON land_Tgr1_ave_S              =  -4.5441715028898E+00
(PID.TID 0000.0001) %MON land_Tgr1_ave_T              =   1.7061714893667E+01
(PID.TID 0000.0001) %MON land_Tgr1_ave_N              =  -1.7814020291397E+01
(PID.TID 0000.0001) %MON land_Tgr1_min_S              =  -3.9023408472989E+01
(PID.TID 0000.0001) %MON land_Tgr1_min_T              =  -7.2831021315358E+00
(PID.TID 0000.0001) %MON land_Tgr1_min_N              =  -5.4979354635594E+01
(PID.TID 0000.0001) %MON land_Tgr1_max_S              =   2.9347005382539E+01
(PID.TID 0000.0001) %MON land_Tgr1_max_T              =   3.2666614583602E+01
(PID.TID 0000.0001) %MON land_Tgr1_max_N              =   1.4113857324849E+01
(PID.TID 0000.0001) %MON land_Tgr2_ave_G              =   4.2072329172537E+00
(PID.TID 0000.0001) %MON land_Tgr2_ave_S              =  -1.8731176220944E+01
(PID.TID 0000.0001) %MON land_Tgr2_ave_T              =   2.2012913713627E+01
(PID.TID 0000.0001) %MON land_Tgr2_ave_N              =  -2.4179690394913E-01
(PID.TID 0000.0001) %MON land_Tgr2_min_S              =  -6.4760993184559E+01
(PID.TID 0000.0001) %MON land_Tgr2_min_T              =  -9.7050245811221E+00
(PID.TID 0000.0001) %MON land_Tgr2_min_N              =  -4.0194343044113E+01
(PID.TID 0000.0001) %MON land_Tgr2_max_S              =   2.3360375667258E+01
(PID.TID 0000.0001) %MON land_Tgr2_max_T              =   3.1360140929686E+01
(PID.TID 0000.0001) %MON land_Tgr2_max_N              =   2.9831710314010E+01
(PID.TID 0000.0001) %MON land_grdW_ave_G              =   4.8699895613247E-01
(PID.TID 0000.0001) %MON land_grdW_ave_S              =   3.0873374237981E-01
(PID.TID 0000.0001) %MON land_grdW_ave_T              =   5.6478870575111E-01
(PID.TID 0000.0001) %MON land_grdW_ave_N              =   4.9288139824883E-01
(PID.TID 0000.0001) %MON land_grdW_min_S              =   2.5954897405622E-02
(PID.TID 0000.0001) %MON land_grdW_min_T              =   0.0000000000000E+00
(PID.TID 0000.0001) %MON land_grdW_min_N              =   0.0000000000000E+00
(PID.TID 0000.0001) // =======================================================
(PID.TID 0000.0001) // End MONITOR Land statistics
(PID.TID 0000.0001) // =======================================================
(PID.TID 0000.0001) // =======================================================
(PID.TID 0000.0001) // Begin MONITOR Therm.SeaIce statistics
(PID.TID 0000.0001) // =======================================================
(PID.TID 0000.0001) %MON thSI_time_sec                =   1.3500000000000E+03
(PID.TID 0000.0001) %MON thSI_Ice_Area_G              =   2.7746569897987E+10
(PID.TID 0000.0001) %MON thSI_Ice_Area_S              =   0.0000000000000E+00
(PID.TID 0000.0001) %MON thSI_Ice_Area_N              =   2.7746569897987E+10
(PID.TID 0000.0001) %MON thSI_IceH_ave_G              =   1.0238171909016E-01
(PID.TID 0000.0001) %MON thSI_IceH_ave_S              =   0.0000000000000E+00
(PID.TID 0000.0001) %MON thSI_IceH_ave_N              =   1.0238171909016E-01
(PID.TID 0000.0001) %MON thSI_IceH_max_S              =   0.0000000000000E+00
(PID.TID 0000.0001) %MON thSI_IceH_max_N              =   1.0298623095705E-01
(PID.TID 0000.0001) %MON thSI_SnwH_ave_G              =   0.0000000000000E+00
(PID.TID 0000.0001) %MON thSI_SnwH_ave_S              =   0.0000000000000E+00
(PID.TID 0000.0001) %MON thSI_SnwH_ave_N              =   0.0000000000000E+00
(PID.TID 0000.0001) %MON thSI_SnwH_max_S              =   0.0000000000000E+00
(PID.TID 0000.0001) %MON thSI_SnwH_max_N              =   0.0000000000000E+00
(PID.TID 0000.0001) %MON thSI_TotEnerg_G              =  -8.5184830664258E+17
(PID.TID 0000.0001) %MON thSI_Tsrf_ave_G              =  -4.2578834434817E+00
(PID.TID 0000.0001) %MON thSI_Tsrf_ave_S              =   0.0000000000000E+00
(PID.TID 0000.0001) %MON thSI_Tsrf_ave_N              =  -4.2578834434817E+00
(PID.TID 0000.0001) %MON thSI_Tsrf_min_S              =   0.0000000000000E+00
(PID.TID 0000.0001) %MON thSI_Tsrf_min_N              =  -4.2984918828087E+00
(PID.TID 0000.0001) %MON thSI_Tsrf_max_S              =   0.0000000000000E+00
(PID.TID 0000.0001) %MON thSI_Tsrf_max_N              =  -4.2044607102056E+00
(PID.TID 0000.0001) %MON thSI_Tic1_ave_G              =  -1.8992944045091E+00
(PID.TID 0000.0001) %MON thSI_Tic1_ave_S              =   0.0000000000000E+00
(PID.TID 0000.0001) %MON thSI_Tic1_ave_N              =  -1.8992944045091E+00
(PID.TID 0000.0001) %MON thSI_Tic1_min_S              =   0.0000000000000E+00
(PID.TID 0000.0001) %MON thSI_Tic1_min_N              =  -1.9435810102458E+00
(PID.TID 0000.0001) %MON thSI_Tic1_max_S              =   0.0000000000000E+00
(PID.TID 0000.0001) %MON thSI_Tic1_max_N              =  -1.8413732014874E+00
(PID.TID 0000.0001) %MON thSI_Tic2_ave_G              =  -1.6934459702829E+00
(PID.TID 0000.0001) %MON thSI_Tic2_ave_S              =   0.0000000000000E+00
(PID.TID 0000.0001) %MON thSI_Tic2_ave_N              =  -1.6934459702829E+00
(PID.TID 0000.0001) %MON thSI_Tic2_min_S              =   0.0000000000000E+00
(PID.TID 0000.0001) %MON thSI_Tic2_min_N              =  -1.7314921204651E+00
(PID.TID 0000.0001) %MON thSI_Tic2_max_S              =   0.0000000000000E+00
(PID.TID 0000.0001) %MON thSI_Tic2_max_N              =  -1.6437300737912E+00
(PID.TID 0000.0001) // =======================================================
(PID.TID 0000.0001) // End MONITOR Therm.SeaIce statistics
(PID.TID 0000.0001) // =======================================================
 cg2d: Sum(rhs),rhsMax =  -1.87583282240666E-11  1.49892401628612E+04
(PID.TID 0000.0001)                    cg2d_init_res =    2.73833104035157E+04
(PID.TID 0000.0001)                       cg2d_iters =    16
(PID.TID 0000.0001)                         cg2d_res =    1.12162874878037E-10
(PID.TID 0000.0001) // =======================================================
(PID.TID 0000.0001) // Begin MONITOR dynamic field statistics
(PID.TID 0000.0001) // =======================================================
(PID.TID 0000.0001) %MON time_tsnumber                =                     4
(PID.TID 0000.0001) %MON time_secondsf                =   1.8000000000000E+03
(PID.TID 0000.0001) %MON dynstat_eta_max              =   2.4906925770243E+03
(PID.TID 0000.0001) %MON dynstat_eta_min              =  -2.3505471966015E+03
(PID.TID 0000.0001) %MON dynstat_eta_mean             =   5.2088199055636E-16
(PID.TID 0000.0001) %MON dynstat_eta_sd               =   2.4919329103487E+02
(PID.TID 0000.0001) %MON dynstat_eta_del2             =   4.5070201632317E+01
(PID.TID 0000.0001) %MON dynstat_uvel_max             =   7.1450194059777E+00
(PID.TID 0000.0001) %MON dynstat_uvel_min             =  -7.0892164093657E+00
(PID.TID 0000.0001) %MON dynstat_uvel_mean            =  -3.4445072779369E-03
(PID.TID 0000.0001) %MON dynstat_uvel_sd              =   6.2567805387617E-01
(PID.TID 0000.0001) %MON dynstat_uvel_del2            =   2.7363137677730E-02
(PID.TID 0000.0001) %MON dynstat_vvel_max             =   7.4889020923393E+00
(PID.TID 0000.0001) %MON dynstat_vvel_min             =  -8.7375498949071E+00
(PID.TID 0000.0001) %MON dynstat_vvel_mean            =   4.6713124969853E-03
(PID.TID 0000.0001) %MON dynstat_vvel_sd              =   5.7831739151398E-01
(PID.TID 0000.0001) %MON dynstat_vvel_del2            =   2.6777962458781E-02
(PID.TID 0000.0001) %MON dynstat_wvel_max             =   5.7827427587876E-02
(PID.TID 0000.0001) %MON dynstat_wvel_min             =  -6.0320601615272E-01
(PID.TID 0000.0001) %MON dynstat_wvel_mean            =  -2.5825745191701E-03
(PID.TID 0000.0001) %MON dynstat_wvel_sd              =   1.9661740673186E-02
(PID.TID 0000.0001) %MON dynstat_wvel_del2            =   1.5693939948887E-03
(PID.TID 0000.0001) %MON dynstat_theta_max            =   4.3752930095022E+02
(PID.TID 0000.0001) %MON dynstat_theta_min            =   2.8859305428842E+02
(PID.TID 0000.0001) %MON dynstat_theta_mean           =   3.3171665213227E+02
(PID.TID 0000.0001) %MON dynstat_theta_sd             =   4.7417166882242E+01
(PID.TID 0000.0001) %MON dynstat_theta_del2           =   6.6340938336862E-03
(PID.TID 0000.0001) %MON dynstat_salt_max             =   1.6281648270409E+00
(PID.TID 0000.0001) %MON dynstat_salt_min             =  -1.6256389079460E-03
(PID.TID 0000.0001) %MON dynstat_salt_mean            =   1.5838279254761E-02
(PID.TID 0000.0001) %MON dynstat_salt_sd              =   6.8449638100283E-02
(PID.TID 0000.0001) %MON dynstat_salt_del2            =   2.6743593858001E-03
(PID.TID 0000.0001) %MON advcfl_uvel_max              =   1.0131199703136E-02
(PID.TID 0000.0001) %MON advcfl_vvel_max              =   1.2427845739853E-02
(PID.TID 0000.0001) %MON advcfl_wvel_max              =   9.8706439006810E-03
(PID.TID 0000.0001) %MON advcfl_W_hf_max              =   2.4524804598725E-02
(PID.TID 0000.0001) %MON pe_b_mean                    =  -5.7435599648093E-01
(PID.TID 0000.0001) %MON ke_max                       =   2.8996326140551E+01
(PID.TID 0000.0001) %MON ke_mean                      =   3.6078003764312E-01
(PID.TID 0000.0001) %MON ke_vol                       =   4.9523908919847E+19
(PID.TID 0000.0001) %MON vort_r_min                   =  -2.3019567897304E-05
(PID.TID 0000.0001) %MON vort_r_max                   =   1.2792841784175E-05
(PID.TID 0000.0001) %MON vort_a_mean                  =   6.7059142262138E-08
(PID.TID 0000.0001) %MON vort_a_sd                    =   8.3710513014688E-05
(PID.TID 0000.0001) %MON vort_p_mean                  =   6.8762489953224E-08
(PID.TID 0000.0001) %MON vort_p_sd                    =   9.1485998847007E-05
(PID.TID 0000.0001) %MON surfExpan_theta_mean         =   2.4933444810868E-01
(PID.TID 0000.0001) %MON surfExpan_salt_mean          =  -3.8169613543153E-06
(PID.TID 0000.0001) %MON surfExpan_Heat_mean          =  -2.0371786865835E+01
(PID.TID 0000.0001) %MON En_Budget_T2PE_mean          =   3.8844521724099E+01
(PID.TID 0000.0001) // =======================================================
(PID.TID 0000.0001) // End MONITOR dynamic field statistics
(PID.TID 0000.0001) // =======================================================
(PID.TID 0000.0001) // =======================================================
(PID.TID 0000.0001) // Begin MONITOR Land statistics
(PID.TID 0000.0001) // =======================================================
(PID.TID 0000.0001) %MON land_time_sec                =   1.8000000000000E+03
(PID.TID 0000.0001) %MON land_SnwH_ave_G              =   1.5324495076304E-01
(PID.TID 0000.0001) %MON land_SnwH_ave_S              =   5.5905997269546E-01
(PID.TID 0000.0001) %MON land_SnwH_ave_T              =   0.0000000000000E+00
(PID.TID 0000.0001) %MON land_SnwH_ave_N              =   1.2393350158071E-01
(PID.TID 0000.0001) %MON land_SnwH_max_S              =   9.9999802230560E-01
(PID.TID 0000.0001) %MON land_SnwH_max_T              =   0.0000000000000E+00
(PID.TID 0000.0001) %MON land_SnwH_max_N              =   9.9999972347825E-01
(PID.TID 0000.0001) %MON land_TotEnerg_G              =  -6.2755336017092E+21
(PID.TID 0000.0001) %MON land_TotEnerg_S              =  -4.9946903336191E+21
(PID.TID 0000.0001) %MON land_TotEnerg_T              =   7.3299482585164E+21
(PID.TID 0000.0001) %MON land_TotEnerg_N              =  -8.6107915266065E+21
(PID.TID 0000.0001) %MON land_Tsrf_ave_G              =  -5.7257743544289E+00
(PID.TID 0000.0001) %MON land_Tsrf_ave_S              =  -5.8193831087692E+00
(PID.TID 0000.0001) %MON land_Tsrf_ave_T              =   1.6282164144426E+01
(PID.TID 0000.0001) %MON land_Tsrf_ave_N              =  -2.0391662332025E+01
(PID.TID 0000.0001) %MON land_Tsrf_min_S              =  -3.4693314980319E+01
(PID.TID 0000.0001) %MON land_Tsrf_min_T              =  -7.0446213327039E+00
(PID.TID 0000.0001) %MON land_Tsrf_min_N              =  -5.0873487648362E+01
(PID.TID 0000.0001) %MON land_Tsrf_max_S              =   2.8299047509489E+01
(PID.TID 0000.0001) %MON land_Tsrf_max_T              =   3.1357689387752E+01
(PID.TID 0000.0001) %MON land_Tsrf_max_N              =   1.3560120013382E+01
(PID.TID 0000.0001) %MON land_Tgr1_ave_G              =  -4.3146644249405E+00
(PID.TID 0000.0001) %MON land_Tgr1_ave_S              =  -4.8569699918789E+00
(PID.TID 0000.0001) %MON land_Tgr1_ave_T              =   1.6282164144426E+01
(PID.TID 0000.0001) %MON land_Tgr1_ave_N              =  -1.7892700179603E+01
(PID.TID 0000.0001) %MON land_Tgr1_min_S              =  -3.9035767774797E+01
(PID.TID 0000.0001) %MON land_Tgr1_min_T              =  -7.0446213327039E+00
(PID.TID 0000.0001) %MON land_Tgr1_min_N              =  -5.4965276814987E+01
(PID.TID 0000.0001) %MON land_Tgr1_max_S              =   2.8299047509489E+01
(PID.TID 0000.0001) %MON land_Tgr1_max_T              =   3.1357689387752E+01
(PID.TID 0000.0001) %MON land_Tgr1_max_N              =   1.3560120013382E+01
(PID.TID 0000.0001) %MON land_Tgr2_ave_G              =   4.2071042627786E+00
(PID.TID 0000.0001) %MON land_Tgr2_ave_S              =  -1.8730945736072E+01
(PID.TID 0000.0001) %MON land_Tgr2_ave_T              =   2.2012818085714E+01
(PID.TID 0000.0001) %MON land_Tgr2_ave_N              =  -2.4206411520748E-01
(PID.TID 0000.0001) %MON land_Tgr2_min_S              =  -6.4760559189762E+01
(PID.TID 0000.0001) %MON land_Tgr2_min_T              =  -9.7049909660390E+00
(PID.TID 0000.0001) %MON land_Tgr2_min_N              =  -4.0194583727930E+01
(PID.TID 0000.0001) %MON land_Tgr2_max_S              =   2.3360456186479E+01
(PID.TID 0000.0001) %MON land_Tgr2_max_T              =   3.1359846826595E+01
(PID.TID 0000.0001) %MON land_Tgr2_max_N              =   2.9831342279016E+01
(PID.TID 0000.0001) %MON land_grdW_ave_G              =   4.8698180261661E-01
(PID.TID 0000.0001) %MON land_grdW_ave_S              =   3.0872082528578E-01
(PID.TID 0000.0001) %MON land_grdW_ave_T              =   5.6474430671073E-01
(PID.TID 0000.0001) %MON land_grdW_ave_N              =   4.9288106422355E-01
(PID.TID 0000.0001) %MON land_grdW_min_S              =   2.5981425099003E-02
(PID.TID 0000.0001) %MON land_grdW_min_T              =   0.0000000000000E+00
(PID.TID 0000.0001) %MON land_grdW_min_N              =   0.0000000000000E+00
(PID.TID 0000.0001) // =======================================================
(PID.TID 0000.0001) // End MONITOR Land statistics
(PID.TID 0000.0001) // =======================================================
(PID.TID 0000.0001) // =======================================================
(PID.TID 0000.0001) // Begin MONITOR Therm.SeaIce statistics
(PID.TID 0000.0001) // =======================================================
(PID.TID 0000.0001) %MON thSI_time_sec                =   1.8000000000000E+03
(PID.TID 0000.0001) %MON thSI_Ice_Area_G              =   4.0610398303570E+10
(PID.TID 0000.0001) %MON thSI_Ice_Area_S              =   0.0000000000000E+00
(PID.TID 0000.0001) %MON thSI_Ice_Area_N              =   4.0610398303570E+10
(PID.TID 0000.0001) %MON thSI_IceH_ave_G              =   1.0476420833062E-01
(PID.TID 0000.0001) %MON thSI_IceH_ave_S              =   0.0000000000000E+00
(PID.TID 0000.0001) %MON thSI_IceH_ave_N              =   1.0476420833062E-01
(PID.TID 0000.0001) %MON thSI_IceH_max_S              =   0.0000000000000E+00
(PID.TID 0000.0001) %MON thSI_IceH_max_N              =   1.0597824224850E-01
(PID.TID 0000.0001) %MON thSI_SnwH_ave_G              =   0.0000000000000E+00
(PID.TID 0000.0001) %MON thSI_SnwH_ave_S              =   0.0000000000000E+00
(PID.TID 0000.0001) %MON thSI_SnwH_ave_N              =   0.0000000000000E+00
(PID.TID 0000.0001) %MON thSI_SnwH_max_S              =   0.0000000000000E+00
(PID.TID 0000.0001) %MON thSI_SnwH_max_N              =   0.0000000000000E+00
(PID.TID 0000.0001) %MON thSI_TotEnerg_G              =  -1.2794997683457E+18
(PID.TID 0000.0001) %MON thSI_Tsrf_ave_G              =  -4.5670148810562E+00
(PID.TID 0000.0001) %MON thSI_Tsrf_ave_S              =   0.0000000000000E+00
(PID.TID 0000.0001) %MON thSI_Tsrf_ave_N              =  -4.5670148810562E+00
(PID.TID 0000.0001) %MON thSI_Tsrf_min_S              =   0.0000000000000E+00
(PID.TID 0000.0001) %MON thSI_Tsrf_min_N              =  -4.6125330911317E+00
(PID.TID 0000.0001) %MON thSI_Tsrf_max_S              =   0.0000000000000E+00
(PID.TID 0000.0001) %MON thSI_Tsrf_max_N              =  -4.4992769357073E+00
(PID.TID 0000.0001) %MON thSI_Tic1_ave_G              =  -2.1906224712525E+00
(PID.TID 0000.0001) %MON thSI_Tic1_ave_S              =   0.0000000000000E+00
(PID.TID 0000.0001) %MON thSI_Tic1_ave_N              =  -2.1906224712525E+00
(PID.TID 0000.0001) %MON thSI_Tic1_min_S              =   0.0000000000000E+00
(PID.TID 0000.0001) %MON thSI_Tic1_min_N              =  -2.2374055646768E+00
(PID.TID 0000.0001) %MON thSI_Tic1_max_S              =   0.0000000000000E+00
(PID.TID 0000.0001) %MON thSI_Tic1_max_N              =  -2.1212198990983E+00
(PID.TID 0000.0001) %MON thSI_Tic2_ave_G              =  -1.7447422284973E+00
(PID.TID 0000.0001) %MON thSI_Tic2_ave_S              =   0.0000000000000E+00
(PID.TID 0000.0001) %MON thSI_Tic2_ave_N              =  -1.7447422284973E+00
(PID.TID 0000.0001) %MON thSI_Tic2_min_S              =   0.0000000000000E+00
(PID.TID 0000.0001) %MON thSI_Tic2_min_N              =  -1.7839270769665E+00
(PID.TID 0000.0001) %MON thSI_Tic2_max_S              =   0.0000000000000E+00
(PID.TID 0000.0001) %MON thSI_Tic2_max_N              =  -1.6931827701265E+00
(PID.TID 0000.0001) // =======================================================
(PID.TID 0000.0001) // End MONITOR Therm.SeaIce statistics
(PID.TID 0000.0001) // =======================================================
 cg2d: Sum(rhs),rhsMax =  -1.79170456249267E-10  1.78156855707362E+04
(PID.TID 0000.0001)                    cg2d_init_res =    2.41292548725529E+04
(PID.TID 0000.0001)                       cg2d_iters =    16
(PID.TID 0000.0001)                         cg2d_res =    9.13957380610242E-11
(PID.TID 0000.0001) // =======================================================
(PID.TID 0000.0001) // Begin MONITOR dynamic field statistics
(PID.TID 0000.0001) // =======================================================
(PID.TID 0000.0001) %MON time_tsnumber                =                     5
(PID.TID 0000.0001) %MON time_secondsf                =   2.2500000000000E+03
(PID.TID 0000.0001) %MON dynstat_eta_max              =   3.1501819557102E+03
(PID.TID 0000.0001) %MON dynstat_eta_min              =  -2.7242538567093E+03
(PID.TID 0000.0001) %MON dynstat_eta_mean             =  -5.8050101357185E-15
(PID.TID 0000.0001) %MON dynstat_eta_sd               =   3.0009471080415E+02
(PID.TID 0000.0001) %MON dynstat_eta_del2             =   4.5496346878084E+01
(PID.TID 0000.0001) %MON dynstat_uvel_max             =   7.7698790775554E+00
(PID.TID 0000.0001) %MON dynstat_uvel_min             =  -7.5998410819165E+00
(PID.TID 0000.0001) %MON dynstat_uvel_mean            =  -4.2409729038955E-03
(PID.TID 0000.0001) %MON dynstat_uvel_sd              =   6.8755132715157E-01
(PID.TID 0000.0001) %MON dynstat_uvel_del2            =   2.3200461410291E-02
(PID.TID 0000.0001) %MON dynstat_vvel_max             =   7.4949908178738E+00
(PID.TID 0000.0001) %MON dynstat_vvel_min             =  -8.6300343764614E+00
(PID.TID 0000.0001) %MON dynstat_vvel_mean            =   5.9909157490272E-03
(PID.TID 0000.0001) %MON dynstat_vvel_sd              =   6.4169421870204E-01
(PID.TID 0000.0001) %MON dynstat_vvel_del2            =   2.1408501108314E-02
(PID.TID 0000.0001) %MON dynstat_wvel_max             =   5.0724588210279E-02
(PID.TID 0000.0001) %MON dynstat_wvel_min             =  -5.6038545132154E-01
(PID.TID 0000.0001) %MON dynstat_wvel_mean            =  -2.5060625316909E-03
(PID.TID 0000.0001) %MON dynstat_wvel_sd              =   1.8717257026896E-02
(PID.TID 0000.0001) %MON dynstat_wvel_del2            =   1.4106506129927E-03
(PID.TID 0000.0001) %MON dynstat_theta_max            =   4.3754924191465E+02
(PID.TID 0000.0001) %MON dynstat_theta_min            =   2.8834946233362E+02
(PID.TID 0000.0001) %MON dynstat_theta_mean           =   3.3171615551524E+02
(PID.TID 0000.0001) %MON dynstat_theta_sd             =   4.7417985883498E+01
(PID.TID 0000.0001) %MON dynstat_theta_del2           =   7.6266621960183E-03
(PID.TID 0000.0001) %MON dynstat_salt_max             =   1.9274179535122E+00
(PID.TID 0000.0001) %MON dynstat_salt_min             =  -9.6141029842007E-04
(PID.TID 0000.0001) %MON dynstat_salt_mean            =   1.9659199728601E-02
(PID.TID 0000.0001) %MON dynstat_salt_sd              =   8.4604713222897E-02
(PID.TID 0000.0001) %MON dynstat_salt_del2            =   3.2336013641896E-03
(PID.TID 0000.0001) %MON advcfl_uvel_max              =   1.0889321962871E-02
(PID.TID 0000.0001) %MON advcfl_vvel_max              =   1.2274921144978E-02
(PID.TID 0000.0001) %MON advcfl_wvel_max              =   9.1699437488979E-03
(PID.TID 0000.0001) %MON advcfl_W_hf_max              =   2.2649101320338E-02
(PID.TID 0000.0001) %MON pe_b_mean                    =  -6.8899723231573E-01
(PID.TID 0000.0001) %MON ke_max                       =   3.2930490641228E+01
(PID.TID 0000.0001) %MON ke_mean                      =   4.3956363344418E-01
(PID.TID 0000.0001) %MON ke_vol                       =   4.9523908919847E+19
(PID.TID 0000.0001) %MON vort_r_min                   =  -2.4953984538504E-05
(PID.TID 0000.0001) %MON vort_r_max                   =   1.2369397610940E-05
(PID.TID 0000.0001) %MON vort_a_mean                  =   6.7059142262083E-08
(PID.TID 0000.0001) %MON vort_a_sd                    =   8.3712121900509E-05
(PID.TID 0000.0001) %MON vort_p_mean                  =   6.8767765818116E-08
(PID.TID 0000.0001) %MON vort_p_sd                    =   9.1539168196956E-05
(PID.TID 0000.0001) %MON surfExpan_theta_mean         =   2.4271512721766E-01
(PID.TID 0000.0001) %MON surfExpan_salt_mean          =  -1.3375550954839E-05
(PID.TID 0000.0001) %MON surfExpan_Heat_mean          =  -1.9893248687036E+01
(PID.TID 0000.0001) %MON En_Budget_T2PE_mean          =   3.7841859096619E+01
(PID.TID 0000.0001) // =======================================================
(PID.TID 0000.0001) // End MONITOR dynamic field statistics
(PID.TID 0000.0001) // =======================================================
(PID.TID 0000.0001) // =======================================================
(PID.TID 0000.0001) // Begin MONITOR Land statistics
(PID.TID 0000.0001) // =======================================================
(PID.TID 0000.0001) %MON land_time_sec                =   2.2500000000000E+03
(PID.TID 0000.0001) %MON land_SnwH_ave_G              =   1.5324375286651E-01
(PID.TID 0000.0001) %MON land_SnwH_ave_S              =   5.5905913608476E-01
(PID.TID 0000.0001) %MON land_SnwH_ave_T              =   0.0000000000000E+00
(PID.TID 0000.0001) %MON land_SnwH_ave_N              =   1.2393138656519E-01
(PID.TID 0000.0001) %MON land_SnwH_max_S              =   9.9999750914744E-01
(PID.TID 0000.0001) %MON land_SnwH_max_T              =   0.0000000000000E+00
(PID.TID 0000.0001) %MON land_SnwH_max_N              =   9.9999964277616E-01
(PID.TID 0000.0001) %MON land_TotEnerg_G              =  -6.2835107458914E+21
(PID.TID 0000.0001) %MON land_TotEnerg_S              =  -4.9956323317938E+21
(PID.TID 0000.0001) %MON land_TotEnerg_T              =   7.3239135377661E+21
(PID.TID 0000.0001) %MON land_TotEnerg_N              =  -8.6117919518637E+21
(PID.TID 0000.0001) %MON land_Tsrf_ave_G              =  -6.0027454625144E+00
(PID.TID 0000.0001) %MON land_Tsrf_ave_S              =  -5.9120053236022E+00
(PID.TID 0000.0001) %MON land_Tsrf_ave_T              =   1.5592627569950E+01
(PID.TID 0000.0001) %MON land_Tsrf_ave_N              =  -2.0452936012714E+01
(PID.TID 0000.0001) %MON land_Tsrf_min_S              =  -3.4616424940513E+01
(PID.TID 0000.0001) %MON land_Tsrf_min_T              =  -6.8157566431505E+00
(PID.TID 0000.0001) %MON land_Tsrf_min_N              =  -5.0749289509175E+01
(PID.TID 0000.0001) %MON land_Tsrf_max_S              =   2.7365902064040E+01
(PID.TID 0000.0001) %MON land_Tsrf_max_T              =   3.0179563994621E+01
(PID.TID 0000.0001) %MON land_Tsrf_max_N              =   1.3045558121623E+01
(PID.TID 0000.0001) %MON land_Tgr1_ave_G              =  -4.6277647931595E+00
(PID.TID 0000.0001) %MON land_Tgr1_ave_S              =  -5.1332303767944E+00
(PID.TID 0000.0001) %MON land_Tgr1_ave_T              =   1.5592627569950E+01
(PID.TID 0000.0001) %MON land_Tgr1_ave_N              =  -1.7966378186198E+01
(PID.TID 0000.0001) %MON land_Tgr1_min_S              =  -3.9048015145507E+01
(PID.TID 0000.0001) %MON land_Tgr1_min_T              =  -6.8157566431505E+00
(PID.TID 0000.0001) %MON land_Tgr1_min_N              =  -5.4951101299151E+01
(PID.TID 0000.0001) %MON land_Tgr1_max_S              =   2.7365902064040E+01
(PID.TID 0000.0001) %MON land_Tgr1_max_T              =   3.0179563994621E+01
(PID.TID 0000.0001) %MON land_Tgr1_max_N              =   1.3045558121623E+01
(PID.TID 0000.0001) %MON land_Tgr2_ave_G              =   4.2069704455927E+00
(PID.TID 0000.0001) %MON land_Tgr2_ave_S              =  -1.8730719647416E+01
(PID.TID 0000.0001) %MON land_Tgr2_ave_T              =   2.2012711236215E+01
(PID.TID 0000.0001) %MON land_Tgr2_ave_N              =  -2.4233269188372E-01
(PID.TID 0000.0001) %MON land_Tgr2_min_S              =  -6.4760125424565E+01
(PID.TID 0000.0001) %MON land_Tgr2_min_T              =  -9.7049544593572E+00
(PID.TID 0000.0001) %MON land_Tgr2_min_N              =  -4.0194824136348E+01
(PID.TID 0000.0001) %MON land_Tgr2_max_S              =   2.3360519792017E+01
(PID.TID 0000.0001) %MON land_Tgr2_max_T              =   3.1359538740373E+01
(PID.TID 0000.0001) %MON land_Tgr2_max_N              =   2.9830962849096E+01
(PID.TID 0000.0001) %MON land_grdW_ave_G              =   4.8696573098569E-01
(PID.TID 0000.0001) %MON land_grdW_ave_S              =   3.0870854723047E-01
(PID.TID 0000.0001) %MON land_grdW_ave_T              =   5.6470284844293E-01
(PID.TID 0000.0001) %MON land_grdW_ave_N              =   4.9288071442932E-01
(PID.TID 0000.0001) %MON land_grdW_min_S              =   2.6016778688222E-02
(PID.TID 0000.0001) %MON land_grdW_min_T              =   0.0000000000000E+00
(PID.TID 0000.0001) %MON land_grdW_min_N              =   0.0000000000000E+00
(PID.TID 0000.0001) // =======================================================
(PID.TID 0000.0001) // End MONITOR Land statistics
(PID.TID 0000.0001) // =======================================================
(PID.TID 0000.0001) // =======================================================
(PID.TID 0000.0001) // Begin MONITOR Therm.SeaIce statistics
(PID.TID 0000.0001) // =======================================================
(PID.TID 0000.0001) %MON thSI_time_sec                =   2.2500000000000E+03
(PID.TID 0000.0001) %MON thSI_Ice_Area_G              =   5.2869265629566E+10
(PID.TID 0000.0001) %MON thSI_Ice_Area_S              =   0.0000000000000E+00
(PID.TID 0000.0001) %MON thSI_Ice_Area_N              =   5.2869265629566E+10
(PID.TID 0000.0001) %MON thSI_IceH_ave_G              =   1.0714929301472E-01
(PID.TID 0000.0001) %MON thSI_IceH_ave_S              =   0.0000000000000E+00
(PID.TID 0000.0001) %MON thSI_IceH_ave_N              =   1.0714929301472E-01
(PID.TID 0000.0001) %MON thSI_IceH_max_S              =   0.0000000000000E+00
(PID.TID 0000.0001) %MON thSI_IceH_max_N              =   1.0897737865156E-01
(PID.TID 0000.0001) %MON thSI_SnwH_ave_G              =   0.0000000000000E+00
(PID.TID 0000.0001) %MON thSI_SnwH_ave_S              =   0.0000000000000E+00
(PID.TID 0000.0001) %MON thSI_SnwH_ave_N              =   0.0000000000000E+00
(PID.TID 0000.0001) %MON thSI_SnwH_max_S              =   0.0000000000000E+00
(PID.TID 0000.0001) %MON thSI_SnwH_max_N              =   0.0000000000000E+00
(PID.TID 0000.0001) %MON thSI_TotEnerg_G              =  -1.7081698236100E+18
(PID.TID 0000.0001) %MON thSI_Tsrf_ave_G              =  -4.8862588024623E+00
(PID.TID 0000.0001) %MON thSI_Tsrf_ave_S              =   0.0000000000000E+00
(PID.TID 0000.0001) %MON thSI_Tsrf_ave_N              =  -4.8862588024623E+00
(PID.TID 0000.0001) %MON thSI_Tsrf_min_S              =   0.0000000000000E+00
(PID.TID 0000.0001) %MON thSI_Tsrf_min_N              =  -4.9395654180331E+00
(PID.TID 0000.0001) %MON thSI_Tsrf_max_S              =   0.0000000000000E+00
(PID.TID 0000.0001) %MON thSI_Tsrf_max_N              =  -4.8066824819953E+00
(PID.TID 0000.0001) %MON thSI_Tic1_ave_G              =  -2.5005639856872E+00
(PID.TID 0000.0001) %MON thSI_Tic1_ave_S              =   0.0000000000000E+00
(PID.TID 0000.0001) %MON thSI_Tic1_ave_N              =  -2.5005639856872E+00
(PID.TID 0000.0001) %MON thSI_Tic1_min_S              =   0.0000000000000E+00
(PID.TID 0000.0001) %MON thSI_Tic1_min_N              =  -2.5535292175320E+00
(PID.TID 0000.0001) %MON thSI_Tic1_max_S              =   0.0000000000000E+00
(PID.TID 0000.0001) %MON thSI_Tic1_max_N              =  -2.4216615198777E+00
(PID.TID 0000.0001) %MON thSI_Tic2_ave_G              =  -1.8109521885765E+00
(PID.TID 0000.0001) %MON thSI_Tic2_ave_S              =   0.0000000000000E+00
(PID.TID 0000.0001) %MON thSI_Tic2_ave_N              =  -1.8109521885765E+00
(PID.TID 0000.0001) %MON thSI_Tic2_min_S              =   0.0000000000000E+00
(PID.TID 0000.0001) %MON thSI_Tic2_min_N              =  -1.8520848756454E+00
(PID.TID 0000.0001) %MON thSI_Tic2_max_S              =   0.0000000000000E+00
(PID.TID 0000.0001) %MON thSI_Tic2_max_N              =  -1.7575186258890E+00
(PID.TID 0000.0001) // =======================================================
(PID.TID 0000.0001) // End MONITOR Therm.SeaIce statistics
(PID.TID 0000.0001) // =======================================================
 cg2d: Sum(rhs),rhsMax =  -2.47609932557680E-10  2.04124847453603E+04
(PID.TID 0000.0001)                    cg2d_init_res =    2.23958814906167E+04
(PID.TID 0000.0001)                       cg2d_iters =    16
(PID.TID 0000.0001)                         cg2d_res =    8.40566297469099E-11
(PID.TID 0000.0001) // =======================================================
(PID.TID 0000.0001) // Begin MONITOR dynamic field statistics
(PID.TID 0000.0001) // =======================================================
(PID.TID 0000.0001) %MON time_tsnumber                =                     6
(PID.TID 0000.0001) %MON time_secondsf                =   2.7000000000000E+03
(PID.TID 0000.0001) %MON dynstat_eta_max              =   3.6351078355946E+03
(PID.TID 0000.0001) %MON dynstat_eta_min              =  -2.8782055466389E+03
(PID.TID 0000.0001) %MON dynstat_eta_mean             =   5.6481179698883E-16
(PID.TID 0000.0001) %MON dynstat_eta_sd               =   3.4198256153353E+02
(PID.TID 0000.0001) %MON dynstat_eta_del2             =   4.3875313224213E+01
(PID.TID 0000.0001) %MON dynstat_uvel_max             =   7.9253239661643E+00
(PID.TID 0000.0001) %MON dynstat_uvel_min             =  -7.8579690177356E+00
(PID.TID 0000.0001) %MON dynstat_uvel_mean            =  -4.9840205749527E-03
(PID.TID 0000.0001) %MON dynstat_uvel_sd              =   7.3049147166937E-01
(PID.TID 0000.0001) %MON dynstat_uvel_del2            =   2.1869587936963E-02
(PID.TID 0000.0001) %MON dynstat_vvel_max             =   7.3553486752623E+00
(PID.TID 0000.0001) %MON dynstat_vvel_min             =  -8.5845000033718E+00
(PID.TID 0000.0001) %MON dynstat_vvel_mean            =   7.4026173639796E-03
(PID.TID 0000.0001) %MON dynstat_vvel_sd              =   6.9684828117731E-01
(PID.TID 0000.0001) %MON dynstat_vvel_del2            =   2.0440195868803E-02
(PID.TID 0000.0001) %MON dynstat_wvel_max             =   6.4516980557897E-02
(PID.TID 0000.0001) %MON dynstat_wvel_min             =  -4.9773601153750E-01
(PID.TID 0000.0001) %MON dynstat_wvel_mean            =  -2.3424586520424E-03
(PID.TID 0000.0001) %MON dynstat_wvel_sd              =   1.7342085792757E-02
(PID.TID 0000.0001) %MON dynstat_wvel_del2            =   1.3157791047776E-03
(PID.TID 0000.0001) %MON dynstat_theta_max            =   4.3755729238541E+02
(PID.TID 0000.0001) %MON dynstat_theta_min            =   2.8810733133472E+02
(PID.TID 0000.0001) %MON dynstat_theta_mean           =   3.3171547576793E+02
(PID.TID 0000.0001) %MON dynstat_theta_sd             =   4.7419036980936E+01
(PID.TID 0000.0001) %MON dynstat_theta_del2           =   8.4569785936139E-03
(PID.TID 0000.0001) %MON dynstat_salt_max             =   2.1966512281000E+00
(PID.TID 0000.0001) %MON dynstat_salt_min             =  -1.0186255851427E-03
(PID.TID 0000.0001) %MON dynstat_salt_mean            =   2.3440564169853E-02
(PID.TID 0000.0001) %MON dynstat_salt_sd              =   1.0048326022196E-01
(PID.TID 0000.0001) %MON dynstat_salt_del2            =   3.7557938118404E-03
(PID.TID 0000.0001) %MON advcfl_uvel_max              =   1.1253215210401E-02
(PID.TID 0000.0001) %MON advcfl_vvel_max              =   1.2175580277354E-02
(PID.TID 0000.0001) %MON advcfl_wvel_max              =   8.1447710978863E-03
(PID.TID 0000.0001) %MON advcfl_W_hf_max              =   1.9847449525206E-02
(PID.TID 0000.0001) %MON pe_b_mean                    =  -7.8753510698058E-01
(PID.TID 0000.0001) %MON ke_max                       =   3.4986534590182E+01
(PID.TID 0000.0001) %MON ke_mean                      =   5.0648414682253E-01
(PID.TID 0000.0001) %MON ke_vol                       =   4.9523908919848E+19
(PID.TID 0000.0001) %MON vort_r_min                   =  -2.6532273391431E-05
(PID.TID 0000.0001) %MON vort_r_max                   =   1.2404481147171E-05
(PID.TID 0000.0001) %MON vort_a_mean                  =   6.7059142262123E-08
(PID.TID 0000.0001) %MON vort_a_sd                    =   8.3713980125908E-05
(PID.TID 0000.0001) %MON vort_p_mean                  =   6.8772993340201E-08
(PID.TID 0000.0001) %MON vort_p_sd                    =   9.1592382861288E-05
(PID.TID 0000.0001) %MON surfExpan_theta_mean         =   2.2741166233109E-01
(PID.TID 0000.0001) %MON surfExpan_salt_mean          =  -2.6140575291606E-05
(PID.TID 0000.0001) %MON surfExpan_Heat_mean          =  -1.8712466529334E+01
(PID.TID 0000.0001) %MON En_Budget_T2PE_mean          =   3.5499789003066E+01
(PID.TID 0000.0001) // =======================================================
(PID.TID 0000.0001) // End MONITOR dynamic field statistics
(PID.TID 0000.0001) // =======================================================
(PID.TID 0000.0001) // =======================================================
(PID.TID 0000.0001) // Begin MONITOR Land statistics
(PID.TID 0000.0001) // =======================================================
(PID.TID 0000.0001) %MON land_time_sec                =   2.7000000000000E+03
(PID.TID 0000.0001) %MON land_SnwH_ave_G              =   1.5324262639454E-01
(PID.TID 0000.0001) %MON land_SnwH_ave_S              =   5.5905826153938E-01
(PID.TID 0000.0001) %MON land_SnwH_ave_T              =   0.0000000000000E+00
(PID.TID 0000.0001) %MON land_SnwH_ave_N              =   1.2392942614493E-01
(PID.TID 0000.0001) %MON land_SnwH_max_S              =   9.9999698860991E-01
(PID.TID 0000.0001) %MON land_SnwH_max_T              =   0.0000000000000E+00
(PID.TID 0000.0001) %MON land_SnwH_max_N              =   9.9999956540631E-01
(PID.TID 0000.0001) %MON land_TotEnerg_G              =  -6.2906584736226E+21
(PID.TID 0000.0001) %MON land_TotEnerg_S              =  -4.9964629073610E+21
(PID.TID 0000.0001) %MON land_TotEnerg_T              =   7.3185633273426E+21
(PID.TID 0000.0001) %MON land_TotEnerg_N              =  -8.6127588936043E+21
(PID.TID 0000.0001) %MON land_Tsrf_ave_G              =  -6.2562647720497E+00
(PID.TID 0000.0001) %MON land_Tsrf_ave_S              =  -5.9989937867489E+00
(PID.TID 0000.0001) %MON land_Tsrf_ave_T              =   1.4980197481346E+01
(PID.TID 0000.0001) %MON land_Tsrf_ave_N              =  -2.0520806851253E+01
(PID.TID 0000.0001) %MON land_Tsrf_min_S              =  -3.4523940475425E+01
(PID.TID 0000.0001) %MON land_Tsrf_min_T              =  -6.5960248498836E+00
(PID.TID 0000.0001) %MON land_Tsrf_min_N              =  -5.0966608270878E+01
(PID.TID 0000.0001) %MON land_Tsrf_max_S              =   2.6533746311384E+01
(PID.TID 0000.0001) %MON land_Tsrf_max_T              =   2.9117635397675E+01
(PID.TID 0000.0001) %MON land_Tsrf_max_N              =   1.2563781261527E+01
(PID.TID 0000.0001) %MON land_Tgr1_ave_G              =  -4.9077608534627E+00
(PID.TID 0000.0001) %MON land_Tgr1_ave_S              =  -5.3779377279990E+00
(PID.TID 0000.0001) %MON land_Tgr1_ave_T              =   1.4980197481346E+01
(PID.TID 0000.0001) %MON land_Tgr1_ave_N              =  -1.8035832021334E+01
(PID.TID 0000.0001) %MON land_Tgr1_min_S              =  -3.9060137806023E+01
(PID.TID 0000.0001) %MON land_Tgr1_min_T              =  -6.5960248498836E+00
(PID.TID 0000.0001) %MON land_Tgr1_min_N              =  -5.4937160781110E+01
(PID.TID 0000.0001) %MON land_Tgr1_max_S              =   2.6533746311384E+01
(PID.TID 0000.0001) %MON land_Tgr1_max_T              =   2.9117635397675E+01
(PID.TID 0000.0001) %MON land_Tgr1_max_N              =   1.2563781261527E+01
(PID.TID 0000.0001) %MON land_Tgr2_ave_G              =   4.2068320362624E+00
(PID.TID 0000.0001) %MON land_Tgr2_ave_S              =  -1.8730497453053E+01
(PID.TID 0000.0001) %MON land_Tgr2_ave_T              =   2.2012594499900E+01
(PID.TID 0000.0001) %MON land_Tgr2_ave_N              =  -2.4260255145684E-01
(PID.TID 0000.0001) %MON land_Tgr2_min_S              =  -6.4759691887095E+01
(PID.TID 0000.0001) %MON land_Tgr2_min_T              =  -9.7049151765563E+00
(PID.TID 0000.0001) %MON land_Tgr2_min_N              =  -4.0195064274483E+01
(PID.TID 0000.0001) %MON land_Tgr2_max_S              =   2.3360568380363E+01
(PID.TID 0000.0001) %MON land_Tgr2_max_T              =   3.1359217933660E+01
(PID.TID 0000.0001) %MON land_Tgr2_max_N              =   2.9830572760883E+01
(PID.TID 0000.0001) %MON land_grdW_ave_G              =   4.8695061608385E-01
(PID.TID 0000.0001) %MON land_grdW_ave_S              =   3.0869682091655E-01
(PID.TID 0000.0001) %MON land_grdW_ave_T              =   5.6466400423943E-01
(PID.TID 0000.0001) %MON land_grdW_ave_N              =   4.9288034601999E-01
(PID.TID 0000.0001) %MON land_grdW_min_S              =   2.6059750224955E-02
(PID.TID 0000.0001) %MON land_grdW_min_T              =   0.0000000000000E+00
(PID.TID 0000.0001) %MON land_grdW_min_N              =   0.0000000000000E+00
(PID.TID 0000.0001) // =======================================================
(PID.TID 0000.0001) // End MONITOR Land statistics
(PID.TID 0000.0001) // =======================================================
(PID.TID 0000.0001) // =======================================================
(PID.TID 0000.0001) // Begin MONITOR Therm.SeaIce statistics
(PID.TID 0000.0001) // =======================================================
(PID.TID 0000.0001) %MON thSI_time_sec                =   2.7000000000000E+03
(PID.TID 0000.0001) %MON thSI_Ice_Area_G              =   6.4567679226838E+10
(PID.TID 0000.0001) %MON thSI_Ice_Area_S              =   0.0000000000000E+00
(PID.TID 0000.0001) %MON thSI_Ice_Area_N              =   6.4567679226838E+10
(PID.TID 0000.0001) %MON thSI_IceH_ave_G              =   1.0953801792776E-01
(PID.TID 0000.0001) %MON thSI_IceH_ave_S              =   0.0000000000000E+00
(PID.TID 0000.0001) %MON thSI_IceH_ave_N              =   1.0953801792776E-01
(PID.TID 0000.0001) %MON thSI_IceH_max_S              =   0.0000000000000E+00
(PID.TID 0000.0001) %MON thSI_IceH_max_N              =   1.1198421564672E-01
(PID.TID 0000.0001) %MON thSI_SnwH_ave_G              =   0.0000000000000E+00
(PID.TID 0000.0001) %MON thSI_SnwH_ave_S              =   0.0000000000000E+00
(PID.TID 0000.0001) %MON thSI_SnwH_ave_N              =   0.0000000000000E+00
(PID.TID 0000.0001) %MON thSI_SnwH_max_S              =   0.0000000000000E+00
(PID.TID 0000.0001) %MON thSI_SnwH_max_N              =   0.0000000000000E+00
(PID.TID 0000.0001) %MON thSI_TotEnerg_G              =  -2.1377680846353E+18
(PID.TID 0000.0001) %MON thSI_Tsrf_ave_G              =  -5.2122499099119E+00
(PID.TID 0000.0001) %MON thSI_Tsrf_ave_S              =   0.0000000000000E+00
(PID.TID 0000.0001) %MON thSI_Tsrf_ave_N              =  -5.2122499099119E+00
(PID.TID 0000.0001) %MON thSI_Tsrf_min_S              =   0.0000000000000E+00
(PID.TID 0000.0001) %MON thSI_Tsrf_min_N              =  -5.2756855372695E+00
(PID.TID 0000.0001) %MON thSI_Tsrf_max_S              =   0.0000000000000E+00
(PID.TID 0000.0001) %MON thSI_Tsrf_max_N              =  -5.1238905060043E+00
(PID.TID 0000.0001) %MON thSI_Tic1_ave_G              =  -2.8195912454261E+00
(PID.TID 0000.0001) %MON thSI_Tic1_ave_S              =   0.0000000000000E+00
(PID.TID 0000.0001) %MON thSI_Tic1_ave_N              =  -2.8195912454261E+00
(PID.TID 0000.0001) %MON thSI_Tic1_min_S              =   0.0000000000000E+00
(PID.TID 0000.0001) %MON thSI_Tic1_min_N              =  -2.8766878103210E+00
(PID.TID 0000.0001) %MON thSI_Tic1_max_S              =   0.0000000000000E+00
(PID.TID 0000.0001) %MON thSI_Tic1_max_N              =  -2.7339724814448E+00
(PID.TID 0000.0001) %MON thSI_Tic2_ave_G              =  -1.8866743465549E+00
(PID.TID 0000.0001) %MON thSI_Tic2_ave_S              =   0.0000000000000E+00
(PID.TID 0000.0001) %MON thSI_Tic2_ave_N              =  -1.8866743465549E+00
(PID.TID 0000.0001) %MON thSI_Tic2_min_S              =   0.0000000000000E+00
(PID.TID 0000.0001) %MON thSI_Tic2_min_N              =  -1.9307081245069E+00
(PID.TID 0000.0001) %MON thSI_Tic2_max_S              =   0.0000000000000E+00
(PID.TID 0000.0001) %MON thSI_Tic2_max_N              =  -1.8317478184702E+00
(PID.TID 0000.0001) // =======================================================
(PID.TID 0000.0001) // End MONITOR Therm.SeaIce statistics
(PID.TID 0000.0001) // =======================================================
 cg2d: Sum(rhs),rhsMax =  -5.72981662116945E-11  2.19211716830361E+04
(PID.TID 0000.0001)                    cg2d_init_res =    2.12307436313830E+04
(PID.TID 0000.0001)                       cg2d_iters =    16
(PID.TID 0000.0001)                         cg2d_res =    7.65822322385855E-11
(PID.TID 0000.0001) // =======================================================
(PID.TID 0000.0001) // Begin MONITOR dynamic field statistics
(PID.TID 0000.0001) // =======================================================
(PID.TID 0000.0001) %MON time_tsnumber                =                     7
(PID.TID 0000.0001) %MON time_secondsf                =   3.1500000000000E+03
(PID.TID 0000.0001) %MON dynstat_eta_max              =   3.9250417914803E+03
(PID.TID 0000.0001) %MON dynstat_eta_min              =  -2.8404421822904E+03
(PID.TID 0000.0001) %MON dynstat_eta_mean             =  -2.3596581740867E-15
(PID.TID 0000.0001) %MON dynstat_eta_sd               =   3.7699771012203E+02
(PID.TID 0000.0001) %MON dynstat_eta_del2             =   4.1772214418761E+01
(PID.TID 0000.0001) %MON dynstat_uvel_max             =   7.7158519135791E+00
(PID.TID 0000.0001) %MON dynstat_uvel_min             =  -8.0753644386843E+00
(PID.TID 0000.0001) %MON dynstat_uvel_mean            =  -5.6751986850929E-03
(PID.TID 0000.0001) %MON dynstat_uvel_sd              =   7.5884776671124E-01
(PID.TID 0000.0001) %MON dynstat_uvel_del2            =   2.1127716876177E-02
(PID.TID 0000.0001) %MON dynstat_vvel_max             =   7.3512341265931E+00
(PID.TID 0000.0001) %MON dynstat_vvel_min             =  -8.8155439610066E+00
(PID.TID 0000.0001) %MON dynstat_vvel_mean            =   8.9053099457573E-03
(PID.TID 0000.0001) %MON dynstat_vvel_sd              =   7.4502393228643E-01
(PID.TID 0000.0001) %MON dynstat_vvel_del2            =   2.0377616211214E-02
(PID.TID 0000.0001) %MON dynstat_wvel_max             =   7.1098127997297E-02
(PID.TID 0000.0001) %MON dynstat_wvel_min             =  -4.3097297678021E-01
(PID.TID 0000.0001) %MON dynstat_wvel_mean            =  -2.1508751741544E-03
(PID.TID 0000.0001) %MON dynstat_wvel_sd              =   1.6027417230573E-02
(PID.TID 0000.0001) %MON dynstat_wvel_del2            =   1.2793636576702E-03
(PID.TID 0000.0001) %MON dynstat_theta_max            =   4.3755538695873E+02
(PID.TID 0000.0001) %MON dynstat_theta_min            =   2.8786549253692E+02
(PID.TID 0000.0001) %MON dynstat_theta_mean           =   3.3171462395053E+02
(PID.TID 0000.0001) %MON dynstat_theta_sd             =   4.7420263147148E+01
(PID.TID 0000.0001) %MON dynstat_theta_del2           =   9.2313616515449E-03
(PID.TID 0000.0001) %MON dynstat_salt_max             =   2.4395997826094E+00
(PID.TID 0000.0001) %MON dynstat_salt_min             =  -1.1553782993911E-03
(PID.TID 0000.0001) %MON dynstat_salt_mean            =   2.7186082149178E-02
(PID.TID 0000.0001) %MON dynstat_salt_sd              =   1.1612666271280E-01
(PID.TID 0000.0001) %MON dynstat_salt_del2            =   4.2499422729186E-03
(PID.TID 0000.0001) %MON advcfl_uvel_max              =   1.1485986889249E-02
(PID.TID 0000.0001) %MON advcfl_vvel_max              =   1.2503274872575E-02
(PID.TID 0000.0001) %MON advcfl_wvel_max              =   7.0522850745852E-03
(PID.TID 0000.0001) %MON advcfl_W_hf_max              =   1.8492538416506E-02
(PID.TID 0000.0001) %MON pe_b_mean                    =  -8.7106068692767E-01
(PID.TID 0000.0001) %MON ke_max                       =   3.5560703883159E+01
(PID.TID 0000.0001) %MON ke_mean                      =   5.6196144287706E-01
(PID.TID 0000.0001) %MON ke_vol                       =   4.9523908919847E+19
(PID.TID 0000.0001) %MON vort_r_min                   =  -2.7295823420097E-05
(PID.TID 0000.0001) %MON vort_r_max                   =   1.5627931439470E-05
(PID.TID 0000.0001) %MON vort_a_mean                  =   6.7059142261767E-08
(PID.TID 0000.0001) %MON vort_a_sd                    =   8.3716025949811E-05
(PID.TID 0000.0001) %MON vort_p_mean                  =   6.8777955921642E-08
(PID.TID 0000.0001) %MON vort_p_sd                    =   9.1642762875926E-05
(PID.TID 0000.0001) %MON surfExpan_theta_mean         =   2.0916445278749E-01
(PID.TID 0000.0001) %MON surfExpan_salt_mean          =  -4.1472516626316E-05
(PID.TID 0000.0001) %MON surfExpan_Heat_mean          =  -1.7281388598420E+01
(PID.TID 0000.0001) %MON En_Budget_T2PE_mean          =   3.2697530140981E+01
(PID.TID 0000.0001) // =======================================================
(PID.TID 0000.0001) // End MONITOR dynamic field statistics
(PID.TID 0000.0001) // =======================================================
(PID.TID 0000.0001) // =======================================================
(PID.TID 0000.0001) // Begin MONITOR Land statistics
(PID.TID 0000.0001) // =======================================================
(PID.TID 0000.0001) %MON land_time_sec                =   3.1500000000000E+03
(PID.TID 0000.0001) %MON land_SnwH_ave_G              =   1.5324152713563E-01
(PID.TID 0000.0001) %MON land_SnwH_ave_S              =   5.5905735655192E-01
(PID.TID 0000.0001) %MON land_SnwH_ave_T              =   0.0000000000000E+00
(PID.TID 0000.0001) %MON land_SnwH_ave_N              =   1.2392752981277E-01
(PID.TID 0000.0001) %MON land_SnwH_max_S              =   9.9999645876563E-01
(PID.TID 0000.0001) %MON land_SnwH_max_T              =   0.0000000000000E+00
(PID.TID 0000.0001) %MON land_SnwH_max_N              =   9.9999949324398E-01
(PID.TID 0000.0001) %MON land_TotEnerg_G              =  -6.2970937029019E+21
(PID.TID 0000.0001) %MON land_TotEnerg_S              =  -4.9971973277464E+21
(PID.TID 0000.0001) %MON land_TotEnerg_T              =   7.3137986975421E+21
(PID.TID 0000.0001) %MON land_TotEnerg_N              =  -8.6136950726976E+21
(PID.TID 0000.0001) %MON land_Tsrf_ave_G              =  -6.4881575163013E+00
(PID.TID 0000.0001) %MON land_Tsrf_ave_S              =  -6.0879869266504E+00
(PID.TID 0000.0001) %MON land_Tsrf_ave_T              =   1.4434112274216E+01
(PID.TID 0000.0001) %MON land_Tsrf_ave_N              =  -2.0589246869987E+01
(PID.TID 0000.0001) %MON land_Tsrf_min_S              =  -3.4414190949033E+01
(PID.TID 0000.0001) %MON land_Tsrf_min_T              =  -6.3849496558451E+00
(PID.TID 0000.0001) %MON land_Tsrf_min_N              =  -5.1336863295271E+01
(PID.TID 0000.0001) %MON land_Tsrf_max_S              =   2.5790807929351E+01
(PID.TID 0000.0001) %MON land_Tsrf_max_T              =   2.8159140984575E+01
(PID.TID 0000.0001) %MON land_Tsrf_max_N              =   1.2186135636751E+01
(PID.TID 0000.0001) %MON land_Tgr1_ave_G              =  -5.1593532495795E+00
(PID.TID 0000.0001) %MON land_Tgr1_ave_S              =  -5.5952613642746E+00
(PID.TID 0000.0001) %MON land_Tgr1_ave_T              =   1.4434112274216E+01
(PID.TID 0000.0001) %MON land_Tgr1_ave_N              =  -1.8101887356031E+01
(PID.TID 0000.0001) %MON land_Tgr1_min_S              =  -3.9072121448390E+01
(PID.TID 0000.0001) %MON land_Tgr1_min_T              =  -6.3849496558451E+00
(PID.TID 0000.0001) %MON land_Tgr1_min_N              =  -5.4923603788885E+01
(PID.TID 0000.0001) %MON land_Tgr1_max_S              =   2.5790807929351E+01
(PID.TID 0000.0001) %MON land_Tgr1_max_T              =   2.8159140984575E+01
(PID.TID 0000.0001) %MON land_Tgr1_max_N              =   1.2186135636751E+01
(PID.TID 0000.0001) %MON land_Tgr2_ave_G              =   4.2066895210699E+00
(PID.TID 0000.0001) %MON land_Tgr2_ave_S              =  -1.8730278717238E+01
(PID.TID 0000.0001) %MON land_Tgr2_ave_T              =   2.2012469014891E+01
(PID.TID 0000.0001) %MON land_Tgr2_ave_N              =  -2.4287362653097E-01
(PID.TID 0000.0001) %MON land_Tgr2_min_S              =  -6.4759258575202E+01
(PID.TID 0000.0001) %MON land_Tgr2_min_T              =  -9.7048732270926E+00
(PID.TID 0000.0001) %MON land_Tgr2_min_N              =  -4.0195304150744E+01
(PID.TID 0000.0001) %MON land_Tgr2_max_S              =   2.3360603603836E+01
(PID.TID 0000.0001) %MON land_Tgr2_max_T              =   3.1358885586259E+01
(PID.TID 0000.0001) %MON land_Tgr2_max_N              =   2.9830172631744E+01
(PID.TID 0000.0001) %MON land_grdW_ave_G              =   4.8693635134058E-01
(PID.TID 0000.0001) %MON land_grdW_ave_S              =   3.0868557041360E-01
(PID.TID 0000.0001) %MON land_grdW_ave_T              =   5.6462745514947E-01
(PID.TID 0000.0001) %MON land_grdW_ave_N              =   4.9287998430687E-01
(PID.TID 0000.0001) %MON land_grdW_min_S              =   2.6109316756972E-02
(PID.TID 0000.0001) %MON land_grdW_min_T              =   0.0000000000000E+00
(PID.TID 0000.0001) %MON land_grdW_min_N              =   0.0000000000000E+00
(PID.TID 0000.0001) // =======================================================
(PID.TID 0000.0001) // End MONITOR Land statistics
(PID.TID 0000.0001) // =======================================================
(PID.TID 0000.0001) // =======================================================
(PID.TID 0000.0001) // Begin MONITOR Therm.SeaIce statistics
(PID.TID 0000.0001) // =======================================================
(PID.TID 0000.0001) %MON thSI_time_sec                =   3.1500000000000E+03
(PID.TID 0000.0001) %MON thSI_Ice_Area_G              =   7.5745715368416E+10
(PID.TID 0000.0001) %MON thSI_Ice_Area_S              =   0.0000000000000E+00
(PID.TID 0000.0001) %MON thSI_Ice_Area_N              =   7.5745715368416E+10
(PID.TID 0000.0001) %MON thSI_IceH_ave_G              =   1.1193090710882E-01
(PID.TID 0000.0001) %MON thSI_IceH_ave_S              =   0.0000000000000E+00
(PID.TID 0000.0001) %MON thSI_IceH_ave_N              =   1.1193090710882E-01
(PID.TID 0000.0001) %MON thSI_IceH_max_S              =   0.0000000000000E+00
(PID.TID 0000.0001) %MON thSI_IceH_max_N              =   1.1499884447987E-01
(PID.TID 0000.0001) %MON thSI_SnwH_ave_G              =   0.0000000000000E+00
(PID.TID 0000.0001) %MON thSI_SnwH_ave_S              =   0.0000000000000E+00
(PID.TID 0000.0001) %MON thSI_SnwH_ave_N              =   0.0000000000000E+00
(PID.TID 0000.0001) %MON thSI_SnwH_max_S              =   0.0000000000000E+00
(PID.TID 0000.0001) %MON thSI_SnwH_max_N              =   0.0000000000000E+00
(PID.TID 0000.0001) %MON thSI_TotEnerg_G              =  -2.5682124212854E+18
(PID.TID 0000.0001) %MON thSI_Tsrf_ave_G              =  -5.5366854827310E+00
(PID.TID 0000.0001) %MON thSI_Tsrf_ave_S              =   0.0000000000000E+00
(PID.TID 0000.0001) %MON thSI_Tsrf_ave_N              =  -5.5366854827310E+00
(PID.TID 0000.0001) %MON thSI_Tsrf_min_S              =   0.0000000000000E+00
(PID.TID 0000.0001) %MON thSI_Tsrf_min_N              =  -5.6074350461850E+00
(PID.TID 0000.0001) %MON thSI_Tsrf_max_S              =   0.0000000000000E+00
(PID.TID 0000.0001) %MON thSI_Tsrf_max_N              =  -5.4380885632718E+00
(PID.TID 0000.0001) %MON thSI_Tic1_ave_G              =  -3.1383475010334E+00
(PID.TID 0000.0001) %MON thSI_Tic1_ave_S              =   0.0000000000000E+00
(PID.TID 0000.0001) %MON thSI_Tic1_ave_N              =  -3.1383475010334E+00
(PID.TID 0000.0001) %MON thSI_Tic1_min_S              =   0.0000000000000E+00
(PID.TID 0000.0001) %MON thSI_Tic1_min_N              =  -3.1974350900089E+00
(PID.TID 0000.0001) %MON thSI_Tic1_max_S              =   0.0000000000000E+00
(PID.TID 0000.0001) %MON thSI_Tic1_max_N              =  -3.0489952142529E+00
(PID.TID 0000.0001) %MON thSI_Tic2_ave_G              =  -1.9678129282039E+00
(PID.TID 0000.0001) %MON thSI_Tic2_ave_S              =   0.0000000000000E+00
(PID.TID 0000.0001) %MON thSI_Tic2_ave_N              =  -1.9678129282039E+00
(PID.TID 0000.0001) %MON thSI_Tic2_min_S              =   0.0000000000000E+00
(PID.TID 0000.0001) %MON thSI_Tic2_min_N              =  -2.0156467659998E+00
(PID.TID 0000.0001) %MON thSI_Tic2_max_S              =   0.0000000000000E+00
(PID.TID 0000.0001) %MON thSI_Tic2_max_N              =  -1.9119936796839E+00
(PID.TID 0000.0001) // =======================================================
(PID.TID 0000.0001) // End MONITOR Therm.SeaIce statistics
(PID.TID 0000.0001) // =======================================================
 cg2d: Sum(rhs),rhsMax =   1.05956132756546E-10  2.23793887157219E+04
(PID.TID 0000.0001)                    cg2d_init_res =    2.02666248206621E+04
(PID.TID 0000.0001)                       cg2d_iters =    16
(PID.TID 0000.0001)                         cg2d_res =    7.60117111986105E-11
(PID.TID 0000.0001) // =======================================================
(PID.TID 0000.0001) // Begin MONITOR dynamic field statistics
(PID.TID 0000.0001) // =======================================================
(PID.TID 0000.0001) %MON time_tsnumber                =                     8
(PID.TID 0000.0001) %MON time_secondsf                =   3.6000000000000E+03
(PID.TID 0000.0001) %MON dynstat_eta_max              =   4.0381153869327E+03
(PID.TID 0000.0001) %MON dynstat_eta_min              =  -2.6594546849806E+03
(PID.TID 0000.0001) %MON dynstat_eta_mean             =   8.8989236458907E-15
(PID.TID 0000.0001) %MON dynstat_eta_sd               =   4.0706615520158E+02
(PID.TID 0000.0001) %MON dynstat_eta_del2             =   3.9957283811328E+01
(PID.TID 0000.0001) %MON dynstat_uvel_max             =   7.3590843646848E+00
(PID.TID 0000.0001) %MON dynstat_uvel_min             =  -8.1607232248461E+00
(PID.TID 0000.0001) %MON dynstat_uvel_mean            =  -6.3214976497037E-03
(PID.TID 0000.0001) %MON dynstat_uvel_sd              =   7.7598136159002E-01
(PID.TID 0000.0001) %MON dynstat_uvel_del2            =   2.0390297925956E-02
(PID.TID 0000.0001) %MON dynstat_vvel_max             =   7.9066485081483E+00
(PID.TID 0000.0001) %MON dynstat_vvel_min             =  -8.6555598062357E+00
(PID.TID 0000.0001) %MON dynstat_vvel_mean            =   1.0487682496645E-02
(PID.TID 0000.0001) %MON dynstat_vvel_sd              =   7.8531864079027E-01
(PID.TID 0000.0001) %MON dynstat_vvel_del2            =   2.0522225422755E-02
(PID.TID 0000.0001) %MON dynstat_wvel_max             =   1.0738080269816E-01
(PID.TID 0000.0001) %MON dynstat_wvel_min             =  -3.6767786689763E-01
(PID.TID 0000.0001) %MON dynstat_wvel_mean            =  -1.9606881238716E-03
(PID.TID 0000.0001) %MON dynstat_wvel_sd              =   1.4948573656050E-02
(PID.TID 0000.0001) %MON dynstat_wvel_del2            =   1.2827041585482E-03
(PID.TID 0000.0001) %MON dynstat_theta_max            =   4.3755408140885E+02
(PID.TID 0000.0001) %MON dynstat_theta_min            =   2.8762326926889E+02
(PID.TID 0000.0001) %MON dynstat_theta_mean           =   3.3171361742647E+02
(PID.TID 0000.0001) %MON dynstat_theta_sd             =   4.7421625300230E+01
(PID.TID 0000.0001) %MON dynstat_theta_del2           =   1.0063327329408E-02
(PID.TID 0000.0001) %MON dynstat_salt_max             =   2.6593768962812E+00
(PID.TID 0000.0001) %MON dynstat_salt_min             =  -1.4294097513190E-03
(PID.TID 0000.0001) %MON dynstat_salt_mean            =   3.0898907159576E-02
(PID.TID 0000.0001) %MON dynstat_salt_sd              =   1.3156129113517E-01
(PID.TID 0000.0001) %MON dynstat_salt_del2            =   4.7172208828137E-03
(PID.TID 0000.0001) %MON advcfl_uvel_max              =   1.1607396877143E-02
(PID.TID 0000.0001) %MON advcfl_vvel_max              =   1.2276365918209E-02
(PID.TID 0000.0001) %MON advcfl_wvel_max              =   6.0165469128702E-03
(PID.TID 0000.0001) %MON advcfl_W_hf_max              =   1.8055988949469E-02
(PID.TID 0000.0001) %MON pe_b_mean                    =  -9.3979210902261E-01
(PID.TID 0000.0001) %MON ke_max                       =   3.7311120821061E+01
(PID.TID 0000.0001) %MON ke_mean                      =   6.0564586196588E-01
(PID.TID 0000.0001) %MON ke_vol                       =   4.9523908919847E+19
(PID.TID 0000.0001) %MON vort_r_min                   =  -2.7414146105450E-05
(PID.TID 0000.0001) %MON vort_r_max                   =   1.8022733552103E-05
(PID.TID 0000.0001) %MON vort_a_mean                  =   6.7059142262027E-08
(PID.TID 0000.0001) %MON vort_a_sd                    =   8.3718213929498E-05
(PID.TID 0000.0001) %MON vort_p_mean                  =   6.8782556162565E-08
(PID.TID 0000.0001) %MON vort_p_sd                    =   9.1688743709040E-05
(PID.TID 0000.0001) %MON surfExpan_theta_mean         =   1.9084273550891E-01
(PID.TID 0000.0001) %MON surfExpan_salt_mean          =  -5.9167445908571E-05
(PID.TID 0000.0001) %MON surfExpan_Heat_mean          =  -1.5831730681600E+01
(PID.TID 0000.0001) %MON En_Budget_T2PE_mean          =   2.9879136195895E+01
(PID.TID 0000.0001) // =======================================================
(PID.TID 0000.0001) // End MONITOR dynamic field statistics
(PID.TID 0000.0001) // =======================================================
(PID.TID 0000.0001) // =======================================================
(PID.TID 0000.0001) // Begin MONITOR Land statistics
(PID.TID 0000.0001) // =======================================================
(PID.TID 0000.0001) %MON land_time_sec                =   3.6000000000000E+03
(PID.TID 0000.0001) %MON land_SnwH_ave_G              =   1.5324044598335E-01
(PID.TID 0000.0001) %MON land_SnwH_ave_S              =   5.5905642903620E-01
(PID.TID 0000.0001) %MON land_SnwH_ave_T              =   0.0000000000000E+00
(PID.TID 0000.0001) %MON land_SnwH_ave_N              =   1.2392567686002E-01
(PID.TID 0000.0001) %MON land_SnwH_max_S              =   9.9999591831320E-01
(PID.TID 0000.0001) %MON land_SnwH_max_T              =   0.0000000000000E+00
(PID.TID 0000.0001) %MON land_SnwH_max_N              =   9.9999942530086E-01
(PID.TID 0000.0001) %MON land_TotEnerg_G              =  -6.3029114041709E+21
(PID.TID 0000.0001) %MON land_TotEnerg_S              =  -4.9978482601190E+21
(PID.TID 0000.0001) %MON land_TotEnerg_T              =   7.3095396639317E+21
(PID.TID 0000.0001) %MON land_TotEnerg_N              =  -8.6146028079835E+21
(PID.TID 0000.0001) %MON land_Tsrf_ave_G              =  -6.6994233365726E+00
(PID.TID 0000.0001) %MON land_Tsrf_ave_S              =  -6.1834572347386E+00
(PID.TID 0000.0001) %MON land_Tsrf_ave_T              =   1.3945542100963E+01
(PID.TID 0000.0001) %MON land_Tsrf_ave_N              =  -2.0652900357317E+01
(PID.TID 0000.0001) %MON land_Tsrf_min_S              =  -3.4293267096285E+01
(PID.TID 0000.0001) %MON land_Tsrf_min_T              =  -6.1817944282925E+00
(PID.TID 0000.0001) %MON land_Tsrf_min_N              =  -5.1663313918315E+01
(PID.TID 0000.0001) %MON land_Tsrf_max_S              =   2.5126606982994E+01
(PID.TID 0000.0001) %MON land_Tsrf_max_T              =   2.7293518482126E+01
(PID.TID 0000.0001) %MON land_Tsrf_max_N              =   1.1877021091577E+01
(PID.TID 0000.0001) %MON land_Tgr1_ave_G              =  -5.3860855865017E+00
(PID.TID 0000.0001) %MON land_Tgr1_ave_S              =  -5.7886908345918E+00
(PID.TID 0000.0001) %MON land_Tgr1_ave_T              =   1.3945542100963E+01
(PID.TID 0000.0001) %MON land_Tgr1_ave_N              =  -1.8164575333379E+01
(PID.TID 0000.0001) %MON land_Tgr1_min_S              =  -3.9083951322114E+01
(PID.TID 0000.0001) %MON land_Tgr1_min_T              =  -6.1817944282925E+00
(PID.TID 0000.0001) %MON land_Tgr1_min_N              =  -5.4910387041824E+01
(PID.TID 0000.0001) %MON land_Tgr1_max_S              =   2.5126606982994E+01
(PID.TID 0000.0001) %MON land_Tgr1_max_T              =   2.7293518482126E+01
(PID.TID 0000.0001) %MON land_Tgr1_max_N              =   1.1877021091577E+01
(PID.TID 0000.0001) %MON land_Tgr2_ave_G              =   4.2065433229263E+00
(PID.TID 0000.0001) %MON land_Tgr2_ave_S              =  -1.8730063058941E+01
(PID.TID 0000.0001) %MON land_Tgr2_ave_T              =   2.2012335760428E+01
(PID.TID 0000.0001) %MON land_Tgr2_ave_N              =  -2.4314585210835E-01
(PID.TID 0000.0001) %MON land_Tgr2_min_S              =  -6.4758825486558E+01
(PID.TID 0000.0001) %MON land_Tgr2_min_T              =  -9.7048287111364E+00
(PID.TID 0000.0001) %MON land_Tgr2_min_N              =  -4.0195543773011E+01
(PID.TID 0000.0001) %MON land_Tgr2_max_S              =   2.3360626909826E+01
(PID.TID 0000.0001) %MON land_Tgr2_max_T              =   3.1358543041658E+01
(PID.TID 0000.0001) %MON land_Tgr2_max_N              =   2.9829762979375E+01
(PID.TID 0000.0001) %MON land_grdW_ave_G              =   4.8692283622041E-01
(PID.TID 0000.0001) %MON land_grdW_ave_S              =   3.0867473171434E-01
(PID.TID 0000.0001) %MON land_grdW_ave_T              =   5.6459292906867E-01
(PID.TID 0000.0001) %MON land_grdW_ave_N              =   4.9287963147365E-01
(PID.TID 0000.0001) %MON land_grdW_min_S              =   2.6164604452391E-02
(PID.TID 0000.0001) %MON land_grdW_min_T              =   0.0000000000000E+00
(PID.TID 0000.0001) %MON land_grdW_min_N              =   0.0000000000000E+00
(PID.TID 0000.0001) // =======================================================
(PID.TID 0000.0001) // End MONITOR Land statistics
(PID.TID 0000.0001) // =======================================================
(PID.TID 0000.0001) // =======================================================
(PID.TID 0000.0001) // Begin MONITOR Therm.SeaIce statistics
(PID.TID 0000.0001) // =======================================================
(PID.TID 0000.0001) %MON thSI_time_sec                =   3.6000000000000E+03
(PID.TID 0000.0001) %MON thSI_Ice_Area_G              =   8.6439562329247E+10
(PID.TID 0000.0001) %MON thSI_Ice_Area_S              =   0.0000000000000E+00
(PID.TID 0000.0001) %MON thSI_Ice_Area_N              =   8.6439562329247E+10
(PID.TID 0000.0001) %MON thSI_IceH_ave_G              =   1.1432810547040E-01
(PID.TID 0000.0001) %MON thSI_IceH_ave_S              =   0.0000000000000E+00
(PID.TID 0000.0001) %MON thSI_IceH_ave_N              =   1.1432810547040E-01
(PID.TID 0000.0001) %MON thSI_IceH_max_S              =   0.0000000000000E+00
(PID.TID 0000.0001) %MON thSI_IceH_max_N              =   1.1802102663554E-01
(PID.TID 0000.0001) %MON thSI_SnwH_ave_G              =   0.0000000000000E+00
(PID.TID 0000.0001) %MON thSI_SnwH_ave_S              =   0.0000000000000E+00
(PID.TID 0000.0001) %MON thSI_SnwH_ave_N              =   0.0000000000000E+00
(PID.TID 0000.0001) %MON thSI_SnwH_max_S              =   0.0000000000000E+00
(PID.TID 0000.0001) %MON thSI_SnwH_max_N              =   0.0000000000000E+00
(PID.TID 0000.0001) %MON thSI_TotEnerg_G              =  -2.9994294617103E+18
(PID.TID 0000.0001) %MON thSI_Tsrf_ave_G              =  -5.8527836770650E+00
(PID.TID 0000.0001) %MON thSI_Tsrf_ave_S              =   0.0000000000000E+00
(PID.TID 0000.0001) %MON thSI_Tsrf_ave_N              =  -5.8527836770650E+00
(PID.TID 0000.0001) %MON thSI_Tsrf_min_S              =   0.0000000000000E+00
(PID.TID 0000.0001) %MON thSI_Tsrf_min_N              =  -5.9283833392361E+00
(PID.TID 0000.0001) %MON thSI_Tsrf_max_S              =   0.0000000000000E+00
(PID.TID 0000.0001) %MON thSI_Tsrf_max_N              =  -5.7414984747792E+00
(PID.TID 0000.0001) %MON thSI_Tic1_ave_G              =  -3.4491070152594E+00
(PID.TID 0000.0001) %MON thSI_Tic1_ave_S              =   0.0000000000000E+00
(PID.TID 0000.0001) %MON thSI_Tic1_ave_N              =  -3.4491070152594E+00
(PID.TID 0000.0001) %MON thSI_Tic1_min_S              =   0.0000000000000E+00
(PID.TID 0000.0001) %MON thSI_Tic1_min_N              =  -3.5083545047566E+00
(PID.TID 0000.0001) %MON thSI_Tic1_max_S              =   0.0000000000000E+00
(PID.TID 0000.0001) %MON thSI_Tic1_max_N              =  -3.3586879759047E+00
(PID.TID 0000.0001) %MON thSI_Tic2_ave_G              =  -2.0511838699059E+00
(PID.TID 0000.0001) %MON thSI_Tic2_ave_S              =   0.0000000000000E+00
(PID.TID 0000.0001) %MON thSI_Tic2_ave_N              =  -2.0511838699059E+00
(PID.TID 0000.0001) %MON thSI_Tic2_min_S              =   0.0000000000000E+00
(PID.TID 0000.0001) %MON thSI_Tic2_min_N              =  -2.1035582458168E+00
(PID.TID 0000.0001) %MON thSI_Tic2_max_S              =   0.0000000000000E+00
(PID.TID 0000.0001) %MON thSI_Tic2_max_N              =  -1.9951380558381E+00
(PID.TID 0000.0001) // =======================================================
(PID.TID 0000.0001) // End MONITOR Therm.SeaIce statistics
(PID.TID 0000.0001) // =======================================================
 cg2d: Sum(rhs),rhsMax =  -1.01408659247682E-10  2.20643686592961E+04
(PID.TID 0000.0001)                    cg2d_init_res =    1.94457880662186E+04
(PID.TID 0000.0001)                       cg2d_iters =    16
(PID.TID 0000.0001)                         cg2d_res =    7.98130312462815E-11
(PID.TID 0000.0001) // =======================================================
(PID.TID 0000.0001) // Begin MONITOR dynamic field statistics
(PID.TID 0000.0001) // =======================================================
(PID.TID 0000.0001) %MON time_tsnumber                =                     9
(PID.TID 0000.0001) %MON time_secondsf                =   4.0500000000000E+03
(PID.TID 0000.0001) %MON dynstat_eta_max              =   4.0171261216341E+03
(PID.TID 0000.0001) %MON dynstat_eta_min              =  -2.5275687659705E+03
(PID.TID 0000.0001) %MON dynstat_eta_mean             =   2.9621240908748E-15
(PID.TID 0000.0001) %MON dynstat_eta_sd               =   4.3361296669820E+02
(PID.TID 0000.0001) %MON dynstat_eta_del2             =   3.8761560787660E+01
(PID.TID 0000.0001) %MON dynstat_uvel_max             =   6.8766456305170E+00
(PID.TID 0000.0001) %MON dynstat_uvel_min             =  -7.9145151445398E+00
(PID.TID 0000.0001) %MON dynstat_uvel_mean            =  -6.9307957128766E-03
(PID.TID 0000.0001) %MON dynstat_uvel_sd              =   7.8470369571631E-01
(PID.TID 0000.0001) %MON dynstat_uvel_del2            =   2.0113604234536E-02
(PID.TID 0000.0001) %MON dynstat_vvel_max             =   8.3397476143852E+00
(PID.TID 0000.0001) %MON dynstat_vvel_min             =  -8.5603448394753E+00
(PID.TID 0000.0001) %MON dynstat_vvel_mean            =   1.2132882998700E-02
(PID.TID 0000.0001) %MON dynstat_vvel_sd              =   8.1648780086429E-01
(PID.TID 0000.0001) %MON dynstat_vvel_del2            =   2.0757993441183E-02
(PID.TID 0000.0001) %MON dynstat_wvel_max             =   1.3849606962828E-01
(PID.TID 0000.0001) %MON dynstat_wvel_min             =  -3.4530938974999E-01
(PID.TID 0000.0001) %MON dynstat_wvel_mean            =  -1.7816434722095E-03
(PID.TID 0000.0001) %MON dynstat_wvel_sd              =   1.4069610990630E-02
(PID.TID 0000.0001) %MON dynstat_wvel_del2            =   1.3089230323466E-03
(PID.TID 0000.0001) %MON dynstat_theta_max            =   4.3757200167435E+02
(PID.TID 0000.0001) %MON dynstat_theta_min            =   2.8738051174636E+02
(PID.TID 0000.0001) %MON dynstat_theta_mean           =   3.3171247732999E+02
(PID.TID 0000.0001) %MON dynstat_theta_sd             =   4.7423096799601E+01
(PID.TID 0000.0001) %MON dynstat_theta_del2           =   1.0984378927064E-02
(PID.TID 0000.0001) %MON dynstat_salt_max             =   2.8586361204057E+00
(PID.TID 0000.0001) %MON dynstat_salt_min             =  -1.7166343076230E-03
(PID.TID 0000.0001) %MON dynstat_salt_mean            =   3.4581462588681E-02
(PID.TID 0000.0001) %MON dynstat_salt_sd              =   1.4681169342305E-01
(PID.TID 0000.0001) %MON dynstat_salt_del2            =   5.1620798674007E-03
(PID.TID 0000.0001) %MON advcfl_uvel_max              =   1.1257203049496E-02
(PID.TID 0000.0001) %MON advcfl_vvel_max              =   1.2127177062547E-02
(PID.TID 0000.0001) %MON advcfl_wvel_max              =   5.6505172868179E-03
(PID.TID 0000.0001) %MON advcfl_W_hf_max              =   1.7476496506504E-02
(PID.TID 0000.0001) %MON pe_b_mean                    =  -9.9385187212787E-01
(PID.TID 0000.0001) %MON ke_max                       =   3.7426528965390E+01
(PID.TID 0000.0001) %MON ke_mean                      =   6.3719842956683E-01
(PID.TID 0000.0001) %MON ke_vol                       =   4.9523908919847E+19
(PID.TID 0000.0001) %MON vort_r_min                   =  -2.7021028374417E-05
(PID.TID 0000.0001) %MON vort_r_max                   =   1.9469821265381E-05
(PID.TID 0000.0001) %MON vort_a_mean                  =   6.7059142261977E-08
(PID.TID 0000.0001) %MON vort_a_sd                    =   8.3720513445133E-05
(PID.TID 0000.0001) %MON vort_p_mean                  =   6.8786767321542E-08
(PID.TID 0000.0001) %MON vort_p_sd                    =   9.1729813583145E-05
(PID.TID 0000.0001) %MON surfExpan_theta_mean         =   1.7340764850466E-01
(PID.TID 0000.0001) %MON surfExpan_salt_mean          =  -7.9324883103150E-05
(PID.TID 0000.0001) %MON surfExpan_Heat_mean          =  -1.4446734505616E+01
(PID.TID 0000.0001) %MON En_Budget_T2PE_mean          =   2.7197934537135E+01
(PID.TID 0000.0001) // =======================================================
(PID.TID 0000.0001) // End MONITOR dynamic field statistics
(PID.TID 0000.0001) // =======================================================
(PID.TID 0000.0001) // =======================================================
(PID.TID 0000.0001) // Begin MONITOR Land statistics
(PID.TID 0000.0001) // =======================================================
(PID.TID 0000.0001) %MON land_time_sec                =   4.0500000000000E+03
(PID.TID 0000.0001) %MON land_SnwH_ave_G              =   1.5323938289367E-01
(PID.TID 0000.0001) %MON land_SnwH_ave_S              =   5.5905548705043E-01
(PID.TID 0000.0001) %MON land_SnwH_ave_T              =   0.0000000000000E+00
(PID.TID 0000.0001) %MON land_SnwH_ave_N              =   1.2392386458496E-01
(PID.TID 0000.0001) %MON land_SnwH_max_S              =   9.9999536776876E-01
(PID.TID 0000.0001) %MON land_SnwH_max_T              =   0.0000000000000E+00
(PID.TID 0000.0001) %MON land_SnwH_max_N              =   9.9999935965896E-01
(PID.TID 0000.0001) %MON land_TotEnerg_G              =  -6.3081860887003E+21
(PID.TID 0000.0001) %MON land_TotEnerg_S              =  -4.9984258240237E+21
(PID.TID 0000.0001) %MON land_TotEnerg_T              =   7.3057237794930E+21
(PID.TID 0000.0001) %MON land_TotEnerg_N              =  -8.6154840441697E+21
(PID.TID 0000.0001) %MON land_Tsrf_ave_G              =  -6.8919149989613E+00
(PID.TID 0000.0001) %MON land_Tsrf_ave_S              =  -6.2884490736592E+00
(PID.TID 0000.0001) %MON land_Tsrf_ave_T              =   1.3507517528783E+01
(PID.TID 0000.0001) %MON land_Tsrf_ave_N              =  -2.0709816773135E+01
(PID.TID 0000.0001) %MON land_Tsrf_min_S              =  -3.4176707677746E+01
(PID.TID 0000.0001) %MON land_Tsrf_min_T              =  -5.9857474369353E+00
(PID.TID 0000.0001) %MON land_Tsrf_min_N              =  -5.1852654859526E+01
(PID.TID 0000.0001) %MON land_Tsrf_max_S              =   2.4532748144107E+01
(PID.TID 0000.0001) %MON land_Tsrf_max_T              =   2.6511250023146E+01
(PID.TID 0000.0001) %MON land_Tsrf_max_N              =   1.1588386020038E+01
(PID.TID 0000.0001) %MON land_Tgr1_ave_G              =  -5.5909912936918E+00
(PID.TID 0000.0001) %MON land_Tgr1_ave_S              =  -5.9620241869849E+00
(PID.TID 0000.0001) %MON land_Tgr1_ave_T              =   1.3507517528783E+01
(PID.TID 0000.0001) %MON land_Tgr1_ave_N              =  -1.8224052997960E+01
(PID.TID 0000.0001) %MON land_Tgr1_min_S              =  -3.9095615787651E+01
(PID.TID 0000.0001) %MON land_Tgr1_min_T              =  -5.9857474369353E+00
(PID.TID 0000.0001) %MON land_Tgr1_min_N              =  -5.4897376479327E+01
(PID.TID 0000.0001) %MON land_Tgr1_max_S              =   2.4532748144107E+01
(PID.TID 0000.0001) %MON land_Tgr1_max_T              =   2.6511250023146E+01
(PID.TID 0000.0001) %MON land_Tgr1_max_N              =   1.1588386020038E+01
(PID.TID 0000.0001) %MON land_Tgr2_ave_G              =   4.2063938118225E+00
(PID.TID 0000.0001) %MON land_Tgr2_ave_S              =  -1.8729850157363E+01
(PID.TID 0000.0001) %MON land_Tgr2_ave_T              =   2.2012195587717E+01
(PID.TID 0000.0001) %MON land_Tgr2_ave_N              =  -2.4341916358144E-01
(PID.TID 0000.0001) %MON land_Tgr2_min_S              =  -6.4758392618910E+01
(PID.TID 0000.0001) %MON land_Tgr2_min_T              =  -9.7047817186051E+00
(PID.TID 0000.0001) %MON land_Tgr2_min_N              =  -4.0195783146472E+01
(PID.TID 0000.0001) %MON land_Tgr2_max_S              =   2.3360639564018E+01
(PID.TID 0000.0001) %MON land_Tgr2_max_T              =   3.1358191357398E+01
(PID.TID 0000.0001) %MON land_Tgr2_max_N              =   2.9829344227163E+01
(PID.TID 0000.0001) %MON land_grdW_ave_G              =   4.8690999107862E-01
(PID.TID 0000.0001) %MON land_grdW_ave_S              =   3.0866425667815E-01
(PID.TID 0000.0001) %MON land_grdW_ave_T              =   5.6456021581133E-01
(PID.TID 0000.0001) %MON land_grdW_ave_N              =   4.9287928482729E-01
(PID.TID 0000.0001) %MON land_grdW_min_S              =   2.6224858981804E-02
(PID.TID 0000.0001) %MON land_grdW_min_T              =   0.0000000000000E+00
(PID.TID 0000.0001) %MON land_grdW_min_N              =   0.0000000000000E+00
(PID.TID 0000.0001) // =======================================================
(PID.TID 0000.0001) // End MONITOR Land statistics
(PID.TID 0000.0001) // =======================================================
(PID.TID 0000.0001) // =======================================================
(PID.TID 0000.0001) // Begin MONITOR Therm.SeaIce statistics
(PID.TID 0000.0001) // =======================================================
(PID.TID 0000.0001) %MON thSI_time_sec                =   4.0500000000000E+03
(PID.TID 0000.0001) %MON thSI_Ice_Area_G              =   9.6670537048648E+10
(PID.TID 0000.0001) %MON thSI_Ice_Area_S              =   0.0000000000000E+00
(PID.TID 0000.0001) %MON thSI_Ice_Area_N              =   9.6670537048648E+10
(PID.TID 0000.0001) %MON thSI_IceH_ave_G              =   1.1672652310293E-01
(PID.TID 0000.0001) %MON thSI_IceH_ave_S              =   0.0000000000000E+00
(PID.TID 0000.0001) %MON thSI_IceH_ave_N              =   1.1672652310293E-01
(PID.TID 0000.0001) %MON thSI_IceH_max_S              =   0.0000000000000E+00
(PID.TID 0000.0001) %MON thSI_IceH_max_N              =   1.2104557604544E-01
(PID.TID 0000.0001) %MON thSI_SnwH_ave_G              =   0.0000000000000E+00
(PID.TID 0000.0001) %MON thSI_SnwH_ave_S              =   0.0000000000000E+00
(PID.TID 0000.0001) %MON thSI_SnwH_ave_N              =   0.0000000000000E+00
(PID.TID 0000.0001) %MON thSI_SnwH_max_S              =   0.0000000000000E+00
(PID.TID 0000.0001) %MON thSI_SnwH_max_N              =   0.0000000000000E+00
(PID.TID 0000.0001) %MON thSI_TotEnerg_G              =  -3.4308609342186E+18
(PID.TID 0000.0001) %MON thSI_Tsrf_ave_G              =  -6.1557226623140E+00
(PID.TID 0000.0001) %MON thSI_Tsrf_ave_S              =   0.0000000000000E+00
(PID.TID 0000.0001) %MON thSI_Tsrf_ave_N              =  -6.1557226623140E+00
(PID.TID 0000.0001) %MON thSI_Tsrf_min_S              =   0.0000000000000E+00
(PID.TID 0000.0001) %MON thSI_Tsrf_min_N              =  -6.2344242006138E+00
(PID.TID 0000.0001) %MON thSI_Tsrf_max_S              =   0.0000000000000E+00
(PID.TID 0000.0001) %MON thSI_Tsrf_max_N              =  -6.0346268820417E+00
(PID.TID 0000.0001) %MON thSI_Tic1_ave_G              =  -3.7463820402410E+00
(PID.TID 0000.0001) %MON thSI_Tic1_ave_S              =   0.0000000000000E+00
(PID.TID 0000.0001) %MON thSI_Tic1_ave_N              =  -3.7463820402410E+00
(PID.TID 0000.0001) %MON thSI_Tic1_min_S              =   0.0000000000000E+00
(PID.TID 0000.0001) %MON thSI_Tic1_min_N              =  -3.8048739497421E+00
(PID.TID 0000.0001) %MON thSI_Tic1_max_S              =   0.0000000000000E+00
(PID.TID 0000.0001) %MON thSI_Tic1_max_N              =  -3.6569707012783E+00
(PID.TID 0000.0001) %MON thSI_Tic2_ave_G              =  -2.1343655664258E+00
(PID.TID 0000.0001) %MON thSI_Tic2_ave_S              =   0.0000000000000E+00
(PID.TID 0000.0001) %MON thSI_Tic2_ave_N              =  -2.1343655664258E+00
(PID.TID 0000.0001) %MON thSI_Tic2_min_S              =   0.0000000000000E+00
(PID.TID 0000.0001) %MON thSI_Tic2_min_N              =  -2.1918094376089E+00
(PID.TID 0000.0001) %MON thSI_Tic2_max_S              =   0.0000000000000E+00
(PID.TID 0000.0001) %MON thSI_Tic2_max_N              =  -2.0787152776125E+00
(PID.TID 0000.0001) // =======================================================
(PID.TID 0000.0001) // End MONITOR Therm.SeaIce statistics
(PID.TID 0000.0001) // =======================================================
 cg2d: Sum(rhs),rhsMax =  -6.36646291241050E-12  2.12917636644960E+04
(PID.TID 0000.0001)                    cg2d_init_res =    1.86573539141200E+04
(PID.TID 0000.0001)                       cg2d_iters =    16
(PID.TID 0000.0001)                         cg2d_res =    8.26416003364600E-11
(PID.TID 0000.0001) // =======================================================
(PID.TID 0000.0001) // Begin MONITOR dynamic field statistics
(PID.TID 0000.0001) // =======================================================
(PID.TID 0000.0001) %MON time_tsnumber                =                    10
(PID.TID 0000.0001) %MON time_secondsf                =   4.5000000000000E+03
(PID.TID 0000.0001) %MON dynstat_eta_max              =   3.9332099408230E+03
(PID.TID 0000.0001) %MON dynstat_eta_min              =  -2.2880211047508E+03
(PID.TID 0000.0001) %MON dynstat_eta_mean             =  -9.1876052310183E-15
(PID.TID 0000.0001) %MON dynstat_eta_sd               =   4.5752979433741E+02
(PID.TID 0000.0001) %MON dynstat_eta_del2             =   3.8084486145654E+01
(PID.TID 0000.0001) %MON dynstat_uvel_max             =   6.7726844406922E+00
(PID.TID 0000.0001) %MON dynstat_uvel_min             =  -7.4257540467634E+00
(PID.TID 0000.0001) %MON dynstat_uvel_mean            =  -7.5077499413175E-03
(PID.TID 0000.0001) %MON dynstat_uvel_sd              =   7.8749986732428E-01
(PID.TID 0000.0001) %MON dynstat_uvel_del2            =   2.0037789855127E-02
(PID.TID 0000.0001) %MON dynstat_vvel_max             =   8.5850284227525E+00
(PID.TID 0000.0001) %MON dynstat_vvel_min             =  -8.5501922081528E+00
(PID.TID 0000.0001) %MON dynstat_vvel_mean            =   1.3822182114565E-02
(PID.TID 0000.0001) %MON dynstat_vvel_sd              =   8.3784280259438E-01
(PID.TID 0000.0001) %MON dynstat_vvel_del2            =   2.0849223097113E-02
(PID.TID 0000.0001) %MON dynstat_wvel_max             =   1.5550115385015E-01
(PID.TID 0000.0001) %MON dynstat_wvel_min             =  -3.3489064917904E-01
(PID.TID 0000.0001) %MON dynstat_wvel_mean            =  -1.6134677209829E-03
(PID.TID 0000.0001) %MON dynstat_wvel_sd              =   1.3273335823844E-02
(PID.TID 0000.0001) %MON dynstat_wvel_del2            =   1.3246478316294E-03
(PID.TID 0000.0001) %MON dynstat_theta_max            =   4.3759303091116E+02
(PID.TID 0000.0001) %MON dynstat_theta_min            =   2.8713750508376E+02
(PID.TID 0000.0001) %MON dynstat_theta_mean           =   3.3171122475160E+02
(PID.TID 0000.0001) %MON dynstat_theta_sd             =   4.7424658984189E+01
(PID.TID 0000.0001) %MON dynstat_theta_del2           =   1.1972065508486E-02
(PID.TID 0000.0001) %MON dynstat_salt_max             =   3.0396876859644E+00
(PID.TID 0000.0001) %MON dynstat_salt_min             =  -1.8833081126779E-03
(PID.TID 0000.0001) %MON dynstat_salt_mean            =   3.8235689050932E-02
(PID.TID 0000.0001) %MON dynstat_salt_sd              =   1.6189820826168E-01
(PID.TID 0000.0001) %MON dynstat_salt_del2            =   5.5908586350688E-03
(PID.TID 0000.0001) %MON advcfl_uvel_max              =   1.0562014169333E-02
(PID.TID 0000.0001) %MON advcfl_vvel_max              =   1.2112794142232E-02
(PID.TID 0000.0001) %MON advcfl_wvel_max              =   5.4800288047480E-03
(PID.TID 0000.0001) %MON advcfl_W_hf_max              =   1.6738980584368E-02
(PID.TID 0000.0001) %MON pe_b_mean                    =  -1.0338818894260E+00
(PID.TID 0000.0001) %MON ke_max                       =   3.5791468087334E+01
(PID.TID 0000.0001) %MON ke_mean                      =   6.5692298055506E-01
(PID.TID 0000.0001) %MON ke_vol                       =   4.9523908919847E+19
(PID.TID 0000.0001) %MON vort_r_min                   =  -2.9109933627213E-05
(PID.TID 0000.0001) %MON vort_r_max                   =   2.0005745635702E-05
(PID.TID 0000.0001) %MON vort_a_mean                  =   6.7059142262114E-08
(PID.TID 0000.0001) %MON vort_a_sd                    =   8.3722902201508E-05
(PID.TID 0000.0001) %MON vort_p_mean                  =   6.8790597383705E-08
(PID.TID 0000.0001) %MON vort_p_sd                    =   9.1766115569137E-05
(PID.TID 0000.0001) %MON surfExpan_theta_mean         =   1.5685209946529E-01
(PID.TID 0000.0001) %MON surfExpan_salt_mean          =  -1.0208412120555E-04
(PID.TID 0000.0001) %MON surfExpan_Heat_mean          =  -1.3130912551478E+01
(PID.TID 0000.0001) %MON En_Budget_T2PE_mean          =   2.4656625651725E+01
(PID.TID 0000.0001) // =======================================================
(PID.TID 0000.0001) // End MONITOR dynamic field statistics
(PID.TID 0000.0001) // =======================================================
(PID.TID 0000.0001) // =======================================================
(PID.TID 0000.0001) // Begin MONITOR Land statistics
(PID.TID 0000.0001) // =======================================================
(PID.TID 0000.0001) %MON land_time_sec                =   4.5000000000000E+03
(PID.TID 0000.0001) %MON land_SnwH_ave_G              =   1.5323833780598E-01
(PID.TID 0000.0001) %MON land_SnwH_ave_S              =   5.5905453854276E-01
(PID.TID 0000.0001) %MON land_SnwH_ave_T              =   0.0000000000000E+00
(PID.TID 0000.0001) %MON land_SnwH_ave_N              =   1.2392209028848E-01
(PID.TID 0000.0001) %MON land_SnwH_max_S              =   9.9999481003275E-01
(PID.TID 0000.0001) %MON land_SnwH_max_T              =   0.0000000000000E+00
(PID.TID 0000.0001) %MON land_SnwH_max_N              =   9.9999929484045E-01
(PID.TID 0000.0001) %MON land_TotEnerg_G              =  -6.3129783978486E+21
(PID.TID 0000.0001) %MON land_TotEnerg_S              =  -4.9989389418619E+21
(PID.TID 0000.0001) %MON land_TotEnerg_T              =   7.3023011780643E+21
(PID.TID 0000.0001) %MON land_TotEnerg_N              =  -8.6163406340510E+21
(PID.TID 0000.0001) %MON land_Tsrf_ave_G              =  -7.0676821671155E+00
(PID.TID 0000.0001) %MON land_Tsrf_ave_S              =  -6.4026747341187E+00
(PID.TID 0000.0001) %MON land_Tsrf_ave_T              =   1.3114554716635E+01
(PID.TID 0000.0001) %MON land_Tsrf_ave_N              =  -2.0760510767962E+01
(PID.TID 0000.0001) %MON land_Tsrf_min_S              =  -3.4083598887033E+01
(PID.TID 0000.0001) %MON land_Tsrf_min_T              =  -5.7964682255938E+00
(PID.TID 0000.0001) %MON land_Tsrf_min_N              =  -5.1923005365246E+01
(PID.TID 0000.0001) %MON land_Tsrf_max_S              =   2.4001596900932E+01
(PID.TID 0000.0001) %MON land_Tsrf_max_T              =   2.5803925674652E+01
(PID.TID 0000.0001) %MON land_Tsrf_max_N              =   1.1317195006484E+01
(PID.TID 0000.0001) %MON land_Tgr1_ave_G              =  -5.7761549841953E+00
(PID.TID 0000.0001) %MON land_Tgr1_ave_S              =  -6.1169414452580E+00
(PID.TID 0000.0001) %MON land_Tgr1_ave_T              =   1.3114554716635E+01
(PID.TID 0000.0001) %MON land_Tgr1_ave_N              =  -1.8280266304618E+01
(PID.TID 0000.0001) %MON land_Tgr1_min_S              =  -3.9107112630172E+01
(PID.TID 0000.0001) %MON land_Tgr1_min_T              =  -5.7964682255938E+00
(PID.TID 0000.0001) %MON land_Tgr1_min_N              =  -5.4884455903054E+01
(PID.TID 0000.0001) %MON land_Tgr1_max_S              =   2.4001596900932E+01
(PID.TID 0000.0001) %MON land_Tgr1_max_T              =   2.5803925674652E+01
(PID.TID 0000.0001) %MON land_Tgr1_max_N              =   1.1317195006484E+01
(PID.TID 0000.0001) %MON land_Tgr2_ave_G              =   4.2062413198908E+00
(PID.TID 0000.0001) %MON land_Tgr2_ave_S              =  -1.8729639719155E+01
(PID.TID 0000.0001) %MON land_Tgr2_ave_T              =   2.2012049243988E+01
(PID.TID 0000.0001) %MON land_Tgr2_ave_N              =  -2.4369349342862E-01
(PID.TID 0000.0001) %MON land_Tgr2_min_S              =  -6.4757959970390E+01
(PID.TID 0000.0001) %MON land_Tgr2_min_T              =  -9.7047323350704E+00
(PID.TID 0000.0001) %MON land_Tgr2_min_N              =  -4.0196022273548E+01
(PID.TID 0000.0001) %MON land_Tgr2_max_S              =   2.3360642691563E+01
(PID.TID 0000.0001) %MON land_Tgr2_max_T              =   3.1357831374196E+01
(PID.TID 0000.0001) %MON land_Tgr2_max_N              =   2.9828916732689E+01
(PID.TID 0000.0001) %MON land_grdW_ave_G              =   4.8689775319682E-01
(PID.TID 0000.0001) %MON land_grdW_ave_S              =   3.0865410057340E-01
(PID.TID 0000.0001) %MON land_grdW_ave_T              =   5.6452915454724E-01
(PID.TID 0000.0001) %MON land_grdW_ave_N              =   4.9287894133081E-01
(PID.TID 0000.0001) %MON land_grdW_min_S              =   2.6289426764343E-02
(PID.TID 0000.0001) %MON land_grdW_min_T              =   0.0000000000000E+00
(PID.TID 0000.0001) %MON land_grdW_min_N              =   0.0000000000000E+00
(PID.TID 0000.0001) // =======================================================
(PID.TID 0000.0001) // End MONITOR Land statistics
(PID.TID 0000.0001) // =======================================================
(PID.TID 0000.0001) // =======================================================
(PID.TID 0000.0001) // Begin MONITOR Therm.SeaIce statistics
(PID.TID 0000.0001) // =======================================================
(PID.TID 0000.0001) %MON thSI_time_sec                =   4.5000000000000E+03
(PID.TID 0000.0001) %MON thSI_Ice_Area_G              =   1.0648079351700E+11
(PID.TID 0000.0001) %MON thSI_Ice_Area_S              =   0.0000000000000E+00
(PID.TID 0000.0001) %MON thSI_Ice_Area_N              =   1.0648079351700E+11
(PID.TID 0000.0001) %MON thSI_IceH_ave_G              =   1.1912883345180E-01
(PID.TID 0000.0001) %MON thSI_IceH_ave_S              =   0.0000000000000E+00
(PID.TID 0000.0001) %MON thSI_IceH_ave_N              =   1.1912883345180E-01
(PID.TID 0000.0001) %MON thSI_IceH_max_S              =   0.0000000000000E+00
(PID.TID 0000.0001) %MON thSI_IceH_max_N              =   1.2407665021502E-01
(PID.TID 0000.0001) %MON thSI_SnwH_ave_G              =   0.0000000000000E+00
(PID.TID 0000.0001) %MON thSI_SnwH_ave_S              =   0.0000000000000E+00
(PID.TID 0000.0001) %MON thSI_SnwH_ave_N              =   0.0000000000000E+00
(PID.TID 0000.0001) %MON thSI_SnwH_max_S              =   0.0000000000000E+00
(PID.TID 0000.0001) %MON thSI_SnwH_max_N              =   0.0000000000000E+00
(PID.TID 0000.0001) %MON thSI_TotEnerg_G              =  -3.8629418590469E+18
(PID.TID 0000.0001) %MON thSI_Tsrf_ave_G              =  -6.4424500171919E+00
(PID.TID 0000.0001) %MON thSI_Tsrf_ave_S              =   0.0000000000000E+00
(PID.TID 0000.0001) %MON thSI_Tsrf_ave_N              =  -6.4424500171919E+00
(PID.TID 0000.0001) %MON thSI_Tsrf_min_S              =   0.0000000000000E+00
(PID.TID 0000.0001) %MON thSI_Tsrf_min_N              =  -6.5233144366785E+00
(PID.TID 0000.0001) %MON thSI_Tsrf_max_S              =   0.0000000000000E+00
(PID.TID 0000.0001) %MON thSI_Tsrf_max_N              =  -6.3133954344699E+00
(PID.TID 0000.0001) %MON thSI_Tic1_ave_G              =  -4.0268111352036E+00
(PID.TID 0000.0001) %MON thSI_Tic1_ave_S              =   0.0000000000000E+00
(PID.TID 0000.0001) %MON thSI_Tic1_ave_N              =  -4.0268111352036E+00
(PID.TID 0000.0001) %MON thSI_Tic1_min_S              =   0.0000000000000E+00
(PID.TID 0000.0001) %MON thSI_Tic1_min_N              =  -4.0906422525867E+00
(PID.TID 0000.0001) %MON thSI_Tic1_max_S              =   0.0000000000000E+00
(PID.TID 0000.0001) %MON thSI_Tic1_max_N              =  -3.9398535592320E+00
(PID.TID 0000.0001) %MON thSI_Tic2_ave_G              =  -2.2155994485500E+00
(PID.TID 0000.0001) %MON thSI_Tic2_ave_S              =   0.0000000000000E+00
(PID.TID 0000.0001) %MON thSI_Tic2_ave_N              =  -2.2155994485500E+00
(PID.TID 0000.0001) %MON thSI_Tic2_min_S              =   0.0000000000000E+00
(PID.TID 0000.0001) %MON thSI_Tic2_min_N              =  -2.2784206958504E+00
(PID.TID 0000.0001) %MON thSI_Tic2_max_S              =   0.0000000000000E+00
(PID.TID 0000.0001) %MON thSI_Tic2_max_N              =  -2.1596237535869E+00
(PID.TID 0000.0001) // =======================================================
(PID.TID 0000.0001) // End MONITOR Therm.SeaIce statistics
(PID.TID 0000.0001) // =======================================================
 cg2d: Sum(rhs),rhsMax =   3.15594661515206E-10  2.03639019458621E+04
(PID.TID 0000.0001)                    cg2d_init_res =    1.77680033619199E+04
(PID.TID 0000.0001)                       cg2d_iters =    16
(PID.TID 0000.0001)                         cg2d_res =    8.58368826918279E-11
(PID.TID 0000.0001) // =======================================================
(PID.TID 0000.0001) // Begin MONITOR dynamic field statistics
(PID.TID 0000.0001) // =======================================================
(PID.TID 0000.0001) %MON time_tsnumber                =                    11
(PID.TID 0000.0001) %MON time_secondsf                =   4.9500000000000E+03
(PID.TID 0000.0001) %MON dynstat_eta_max              =   3.8042114436759E+03
(PID.TID 0000.0001) %MON dynstat_eta_min              =  -2.0268412324860E+03
(PID.TID 0000.0001) %MON dynstat_eta_mean             =   5.0205493065674E-17
(PID.TID 0000.0001) %MON dynstat_eta_sd               =   4.7922650613338E+02
(PID.TID 0000.0001) %MON dynstat_eta_del2             =   3.7803867716254E+01
(PID.TID 0000.0001) %MON dynstat_uvel_max             =   6.6985235817594E+00
(PID.TID 0000.0001) %MON dynstat_uvel_min             =  -6.7896327673171E+00
(PID.TID 0000.0001) %MON dynstat_uvel_mean            =  -8.0503988399232E-03
(PID.TID 0000.0001) %MON dynstat_uvel_sd              =   7.8667589446287E-01
(PID.TID 0000.0001) %MON dynstat_uvel_del2            =   1.9962160993011E-02
(PID.TID 0000.0001) %MON dynstat_vvel_max             =   8.5327789609099E+00
(PID.TID 0000.0001) %MON dynstat_vvel_min             =  -8.2638016141413E+00
(PID.TID 0000.0001) %MON dynstat_vvel_mean            =   1.5536704118654E-02
(PID.TID 0000.0001) %MON dynstat_vvel_sd              =   8.4963989804943E-01
(PID.TID 0000.0001) %MON dynstat_vvel_del2            =   2.0694512420188E-02
(PID.TID 0000.0001) %MON dynstat_wvel_max             =   1.6867427919356E-01
(PID.TID 0000.0001) %MON dynstat_wvel_min             =  -3.1983911182264E-01
(PID.TID 0000.0001) %MON dynstat_wvel_mean            =  -1.4524646236723E-03
(PID.TID 0000.0001) %MON dynstat_wvel_sd              =   1.2460216877788E-02
(PID.TID 0000.0001) %MON dynstat_wvel_del2            =   1.3238744715689E-03
(PID.TID 0000.0001) %MON dynstat_theta_max            =   4.3764277688027E+02
(PID.TID 0000.0001) %MON dynstat_theta_min            =   2.8689475589964E+02
(PID.TID 0000.0001) %MON dynstat_theta_mean           =   3.3170987812277E+02
(PID.TID 0000.0001) %MON dynstat_theta_sd             =   4.7426298229963E+01
(PID.TID 0000.0001) %MON dynstat_theta_del2           =   1.3005779706279E-02
(PID.TID 0000.0001) %MON dynstat_salt_max             =   3.2045505770552E+00
(PID.TID 0000.0001) %MON dynstat_salt_min             =  -2.2327444080544E-03
(PID.TID 0000.0001) %MON dynstat_salt_mean            =   4.1863103832675E-02
(PID.TID 0000.0001) %MON dynstat_salt_sd              =   1.7662598039528E-01
(PID.TID 0000.0001) %MON dynstat_salt_del2            =   6.0065669650085E-03
(PID.TID 0000.0001) %MON advcfl_uvel_max              =   9.6572276756500E-03
(PID.TID 0000.0001) %MON advcfl_vvel_max              =   1.1997128252056E-02
(PID.TID 0000.0001) %MON advcfl_wvel_max              =   5.2337309207342E-03
(PID.TID 0000.0001) %MON advcfl_W_hf_max              =   1.5814982476218E-02
(PID.TID 0000.0001) %MON pe_b_mean                    =  -1.0614689866428E+00
(PID.TID 0000.0001) %MON ke_max                       =   3.6715798220565E+01
(PID.TID 0000.0001) %MON ke_mean                      =   6.6616318993937E-01
(PID.TID 0000.0001) %MON ke_vol                       =   4.9523908919848E+19
(PID.TID 0000.0001) %MON vort_r_min                   =  -3.1367896265864E-05
(PID.TID 0000.0001) %MON vort_r_max                   =   1.9757838967450E-05
(PID.TID 0000.0001) %MON vort_a_mean                  =   6.7059142261852E-08
(PID.TID 0000.0001) %MON vort_a_sd                    =   8.3725361758151E-05
(PID.TID 0000.0001) %MON vort_p_mean                  =   6.8794067409836E-08
(PID.TID 0000.0001) %MON vort_p_sd                    =   9.1798060948817E-05
(PID.TID 0000.0001) %MON surfExpan_theta_mean         =   1.4084905170061E-01
(PID.TID 0000.0001) %MON surfExpan_salt_mean          =  -1.2751899555295E-04
(PID.TID 0000.0001) %MON surfExpan_Heat_mean          =  -1.1859481538780E+01
(PID.TID 0000.0001) %MON En_Budget_T2PE_mean          =   2.2205022675929E+01
(PID.TID 0000.0001) // =======================================================
(PID.TID 0000.0001) // End MONITOR dynamic field statistics
(PID.TID 0000.0001) // =======================================================
(PID.TID 0000.0001) // =======================================================
(PID.TID 0000.0001) // Begin MONITOR Land statistics
(PID.TID 0000.0001) // =======================================================
(PID.TID 0000.0001) %MON land_time_sec                =   4.9500000000000E+03
(PID.TID 0000.0001) %MON land_SnwH_ave_G              =   1.5323731048984E-01
(PID.TID 0000.0001) %MON land_SnwH_ave_S              =   5.5905359087914E-01
(PID.TID 0000.0001) %MON land_SnwH_ave_T              =   0.0000000000000E+00
(PID.TID 0000.0001) %MON land_SnwH_ave_N              =   1.2392035112204E-01
(PID.TID 0000.0001) %MON land_SnwH_max_S              =   9.9999424953358E-01
(PID.TID 0000.0001) %MON land_SnwH_max_T              =   0.0000000000000E+00
(PID.TID 0000.0001) %MON land_SnwH_max_N              =   9.9999923016628E-01
(PID.TID 0000.0001) %MON land_TotEnerg_G              =  -6.3173379455997E+21
(PID.TID 0000.0001) %MON land_TotEnerg_S              =  -4.9993951169722E+21
(PID.TID 0000.0001) %MON land_TotEnerg_T              =   7.2992312169963E+21
(PID.TID 0000.0001) %MON land_TotEnerg_N              =  -8.6171740456238E+21
(PID.TID 0000.0001) %MON land_Tsrf_ave_G              =  -7.2292077597237E+00
(PID.TID 0000.0001) %MON land_Tsrf_ave_S              =  -6.5247343110677E+00
(PID.TID 0000.0001) %MON land_Tsrf_ave_T              =   1.2761692923787E+01
(PID.TID 0000.0001) %MON land_Tsrf_ave_N              =  -2.0807070208162E+01
(PID.TID 0000.0001) %MON land_Tsrf_min_S              =  -3.4025608947644E+01
(PID.TID 0000.0001) %MON land_Tsrf_min_T              =  -5.6136300295784E+00
(PID.TID 0000.0001) %MON land_Tsrf_min_N              =  -5.1937027308131E+01
(PID.TID 0000.0001) %MON land_Tsrf_max_S              =   2.3526470855440E+01
(PID.TID 0000.0001) %MON land_Tsrf_max_T              =   2.5164101884365E+01
(PID.TID 0000.0001) %MON land_Tsrf_max_N              =   1.1056664908453E+01
(PID.TID 0000.0001) %MON land_Tgr1_ave_G              =  -5.9438442831080E+00
(PID.TID 0000.0001) %MON land_Tgr1_ave_S              =  -6.2554060304490E+00
(PID.TID 0000.0001) %MON land_Tgr1_ave_T              =   1.2761692923787E+01
(PID.TID 0000.0001) %MON land_Tgr1_ave_N              =  -1.8333783176974E+01
(PID.TID 0000.0001) %MON land_Tgr1_min_S              =  -3.9118455039272E+01
(PID.TID 0000.0001) %MON land_Tgr1_min_T              =  -5.6136300295784E+00
(PID.TID 0000.0001) %MON land_Tgr1_min_N              =  -5.4871570318586E+01
(PID.TID 0000.0001) %MON land_Tgr1_max_S              =   2.3526470855440E+01
(PID.TID 0000.0001) %MON land_Tgr1_max_T              =   2.5164101884365E+01
(PID.TID 0000.0001) %MON land_Tgr1_max_N              =   1.1056664908453E+01
(PID.TID 0000.0001) %MON land_Tgr2_ave_G              =   4.2060861358099E+00
(PID.TID 0000.0001) %MON land_Tgr2_ave_S              =  -1.8729431481561E+01
(PID.TID 0000.0001) %MON land_Tgr2_ave_T              =   2.2011897382360E+01
(PID.TID 0000.0001) %MON land_Tgr2_ave_N              =  -2.4396878792269E-01
(PID.TID 0000.0001) %MON land_Tgr2_min_S              =  -6.4757527539700E+01
(PID.TID 0000.0001) %MON land_Tgr2_min_T              =  -9.7046806419728E+00
(PID.TID 0000.0001) %MON land_Tgr2_min_N              =  -4.0196261154991E+01
(PID.TID 0000.0001) %MON land_Tgr2_max_S              =   2.3360637289267E+01
(PID.TID 0000.0001) %MON land_Tgr2_max_T              =   3.1357463818087E+01
(PID.TID 0000.0001) %MON land_Tgr2_max_N              =   2.9828480801235E+01
(PID.TID 0000.0001) %MON land_grdW_ave_G              =   4.8688607375969E-01
(PID.TID 0000.0001) %MON land_grdW_ave_S              =   3.0864422721450E-01
(PID.TID 0000.0001) %MON land_grdW_ave_T              =   5.6449961949788E-01
(PID.TID 0000.0001) %MON land_grdW_ave_N              =   4.9287859946563E-01
(PID.TID 0000.0001) %MON land_grdW_min_S              =   2.6357738952276E-02
(PID.TID 0000.0001) %MON land_grdW_min_T              =   0.0000000000000E+00
(PID.TID 0000.0001) %MON land_grdW_min_N              =   0.0000000000000E+00
(PID.TID 0000.0001) // =======================================================
(PID.TID 0000.0001) // End MONITOR Land statistics
(PID.TID 0000.0001) // =======================================================
(PID.TID 0000.0001) // =======================================================
(PID.TID 0000.0001) // Begin MONITOR Therm.SeaIce statistics
(PID.TID 0000.0001) // =======================================================
(PID.TID 0000.0001) %MON thSI_time_sec                =   4.9500000000000E+03
(PID.TID 0000.0001) %MON thSI_Ice_Area_G              =   1.1589732193916E+11
(PID.TID 0000.0001) %MON thSI_Ice_Area_S              =   0.0000000000000E+00
(PID.TID 0000.0001) %MON thSI_Ice_Area_N              =   1.1589732193916E+11
(PID.TID 0000.0001) %MON thSI_IceH_ave_G              =   1.2153462161269E-01
(PID.TID 0000.0001) %MON thSI_IceH_ave_S              =   0.0000000000000E+00
(PID.TID 0000.0001) %MON thSI_IceH_ave_N              =   1.2153462161269E-01
(PID.TID 0000.0001) %MON thSI_IceH_max_S              =   0.0000000000000E+00
(PID.TID 0000.0001) %MON thSI_IceH_max_N              =   1.2711360775311E-01
(PID.TID 0000.0001) %MON thSI_SnwH_ave_G              =   0.0000000000000E+00
(PID.TID 0000.0001) %MON thSI_SnwH_ave_S              =   0.0000000000000E+00
(PID.TID 0000.0001) %MON thSI_SnwH_ave_N              =   0.0000000000000E+00
(PID.TID 0000.0001) %MON thSI_SnwH_max_S              =   0.0000000000000E+00
(PID.TID 0000.0001) %MON thSI_SnwH_max_N              =   0.0000000000000E+00
(PID.TID 0000.0001) %MON thSI_TotEnerg_G              =  -4.2956211773385E+18
(PID.TID 0000.0001) %MON thSI_Tsrf_ave_G              =  -6.7115056149769E+00
(PID.TID 0000.0001) %MON thSI_Tsrf_ave_S              =   0.0000000000000E+00
(PID.TID 0000.0001) %MON thSI_Tsrf_ave_N              =  -6.7115056149769E+00
(PID.TID 0000.0001) %MON thSI_Tsrf_min_S              =   0.0000000000000E+00
(PID.TID 0000.0001) %MON thSI_Tsrf_min_N              =  -6.7941610428973E+00
(PID.TID 0000.0001) %MON thSI_Tsrf_max_S              =   0.0000000000000E+00
(PID.TID 0000.0001) %MON thSI_Tsrf_max_N              =  -6.5754362141668E+00
(PID.TID 0000.0001) %MON thSI_Tic1_ave_G              =  -4.2887699773895E+00
(PID.TID 0000.0001) %MON thSI_Tic1_ave_S              =   0.0000000000000E+00
(PID.TID 0000.0001) %MON thSI_Tic1_ave_N              =  -4.2887699773895E+00
(PID.TID 0000.0001) %MON thSI_Tic1_min_S              =   0.0000000000000E+00
(PID.TID 0000.0001) %MON thSI_Tic1_min_N              =  -4.3578442723917E+00
(PID.TID 0000.0001) %MON thSI_Tic1_max_S              =   0.0000000000000E+00
(PID.TID 0000.0001) %MON thSI_Tic1_max_N              =  -4.2051959011741E+00
(PID.TID 0000.0001) %MON thSI_Tic2_ave_G              =  -2.2936533671557E+00
(PID.TID 0000.0001) %MON thSI_Tic2_ave_S              =   0.0000000000000E+00
(PID.TID 0000.0001) %MON thSI_Tic2_ave_N              =  -2.2936533671557E+00
(PID.TID 0000.0001) %MON thSI_Tic2_min_S              =   0.0000000000000E+00
(PID.TID 0000.0001) %MON thSI_Tic2_min_N              =  -2.3619727033052E+00
(PID.TID 0000.0001) %MON thSI_Tic2_max_S              =   0.0000000000000E+00
(PID.TID 0000.0001) %MON thSI_Tic2_max_N              =  -2.2331091745151E+00
(PID.TID 0000.0001) // =======================================================
(PID.TID 0000.0001) // End MONITOR Therm.SeaIce statistics
(PID.TID 0000.0001) // =======================================================
 cg2d: Sum(rhs),rhsMax =   3.11047188006341E-10  2.15439547227876E+04
(PID.TID 0000.0001)                    cg2d_init_res =    1.67374007324144E+04
(PID.TID 0000.0001)                       cg2d_iters =    16
(PID.TID 0000.0001)                         cg2d_res =    9.05610985613602E-11
(PID.TID 0000.0001) // =======================================================
(PID.TID 0000.0001) // Begin MONITOR dynamic field statistics
(PID.TID 0000.0001) // =======================================================
(PID.TID 0000.0001) %MON time_tsnumber                =                    12
(PID.TID 0000.0001) %MON time_secondsf                =   5.4000000000000E+03
(PID.TID 0000.0001) %MON dynstat_eta_max              =   4.1168121576812E+03
(PID.TID 0000.0001) %MON dynstat_eta_min              =  -1.8230106624692E+03
(PID.TID 0000.0001) %MON dynstat_eta_mean             =   4.1168504313852E-15
(PID.TID 0000.0001) %MON dynstat_eta_sd               =   4.9874673104872E+02
(PID.TID 0000.0001) %MON dynstat_eta_del2             =   3.7744682463318E+01
(PID.TID 0000.0001) %MON dynstat_uvel_max             =   6.4236565405469E+00
(PID.TID 0000.0001) %MON dynstat_uvel_min             =  -6.2010437128961E+00
(PID.TID 0000.0001) %MON dynstat_uvel_mean            =  -8.5474985124460E-03
(PID.TID 0000.0001) %MON dynstat_uvel_sd              =   7.8436854545254E-01
(PID.TID 0000.0001) %MON dynstat_uvel_del2            =   1.9840537974641E-02
(PID.TID 0000.0001) %MON dynstat_vvel_max             =   8.2185708060011E+00
(PID.TID 0000.0001) %MON dynstat_vvel_min             =  -8.0504149901861E+00
(PID.TID 0000.0001) %MON dynstat_vvel_mean            =   1.7257362370755E-02
(PID.TID 0000.0001) %MON dynstat_vvel_sd              =   8.5308962578393E-01
(PID.TID 0000.0001) %MON dynstat_vvel_del2            =   2.0429557818137E-02
(PID.TID 0000.0001) %MON dynstat_wvel_max             =   1.6251342824259E-01
(PID.TID 0000.0001) %MON dynstat_wvel_min             =  -2.9944678673763E-01
(PID.TID 0000.0001) %MON dynstat_wvel_mean            =  -1.2949300794573E-03
(PID.TID 0000.0001) %MON dynstat_wvel_sd              =   1.1590489708917E-02
(PID.TID 0000.0001) %MON dynstat_wvel_del2            =   1.3100019415461E-03
(PID.TID 0000.0001) %MON dynstat_theta_max            =   4.3769576773970E+02
(PID.TID 0000.0001) %MON dynstat_theta_min            =   2.8665282509915E+02
(PID.TID 0000.0001) %MON dynstat_theta_mean           =   3.3170845234498E+02
(PID.TID 0000.0001) %MON dynstat_theta_sd             =   4.7428002459816E+01
(PID.TID 0000.0001) %MON dynstat_theta_del2           =   1.4064061655575E-02
(PID.TID 0000.0001) %MON dynstat_salt_max             =   3.3549967496149E+00
(PID.TID 0000.0001) %MON dynstat_salt_min             =  -1.9557182401960E-03
(PID.TID 0000.0001) %MON dynstat_salt_mean            =   4.5465272675928E-02
(PID.TID 0000.0001) %MON dynstat_salt_sd              =   1.9092271395336E-01
(PID.TID 0000.0001) %MON dynstat_salt_del2            =   6.4054920599175E-03
(PID.TID 0000.0001) %MON advcfl_uvel_max              =   9.0010859402511E-03
(PID.TID 0000.0001) %MON advcfl_vvel_max              =   1.1555350075269E-02
(PID.TID 0000.0001) %MON advcfl_wvel_max              =   4.9000383284340E-03
(PID.TID 0000.0001) %MON advcfl_W_hf_max              =   1.4676316286764E-02
(PID.TID 0000.0001) %MON pe_b_mean                    =  -1.0791718468809E+00
(PID.TID 0000.0001) %MON ke_max                       =   3.6514588395480E+01
(PID.TID 0000.0001) %MON ke_mean                      =   6.6728097003169E-01
(PID.TID 0000.0001) %MON ke_vol                       =   4.9523908919847E+19
(PID.TID 0000.0001) %MON vort_r_min                   =  -3.2257092388567E-05
(PID.TID 0000.0001) %MON vort_r_max                   =   1.8881472708288E-05
(PID.TID 0000.0001) %MON vort_a_mean                  =   6.7059142262046E-08
(PID.TID 0000.0001) %MON vort_a_sd                    =   8.3727876479530E-05
(PID.TID 0000.0001) %MON vort_p_mean                  =   6.8797200546897E-08
(PID.TID 0000.0001) %MON vort_p_sd                    =   9.1826042422477E-05
(PID.TID 0000.0001) %MON surfExpan_theta_mean         =   1.2508346744379E-01
(PID.TID 0000.0001) %MON surfExpan_salt_mean          =  -1.5568861248539E-04
(PID.TID 0000.0001) %MON surfExpan_Heat_mean          =  -1.0605333945101E+01
(PID.TID 0000.0001) %MON En_Budget_T2PE_mean          =   1.9791645630393E+01
(PID.TID 0000.0001) // =======================================================
(PID.TID 0000.0001) // End MONITOR dynamic field statistics
(PID.TID 0000.0001) // =======================================================
(PID.TID 0000.0001) // =======================================================
(PID.TID 0000.0001) // Begin MONITOR Land statistics
(PID.TID 0000.0001) // =======================================================
(PID.TID 0000.0001) %MON land_time_sec                =   5.4000000000000E+03
(PID.TID 0000.0001) %MON land_SnwH_ave_G              =   1.5323630059335E-01
(PID.TID 0000.0001) %MON land_SnwH_ave_S              =   5.5905265022677E-01
(PID.TID 0000.0001) %MON land_SnwH_ave_T              =   0.0000000000000E+00
(PID.TID 0000.0001) %MON land_SnwH_ave_N              =   1.2391864438399E-01
(PID.TID 0000.0001) %MON land_SnwH_max_S              =   9.9999369020277E-01
(PID.TID 0000.0001) %MON land_SnwH_max_T              =   0.0000000000000E+00
(PID.TID 0000.0001) %MON land_SnwH_max_N              =   9.9999916552553E-01
(PID.TID 0000.0001) %MON land_TotEnerg_G              =  -6.3213082367363E+21
(PID.TID 0000.0001) %MON land_TotEnerg_S              =  -4.9998007580261E+21
(PID.TID 0000.0001) %MON land_TotEnerg_T              =   7.2964779752007E+21
(PID.TID 0000.0001) %MON land_TotEnerg_N              =  -8.6179854539109E+21
(PID.TID 0000.0001) %MON land_Tsrf_ave_G              =  -7.3781695587313E+00
(PID.TID 0000.0001) %MON land_Tsrf_ave_S              =  -6.6516612262049E+00
(PID.TID 0000.0001) %MON land_Tsrf_ave_T              =   1.2444901912463E+01
(PID.TID 0000.0001) %MON land_Tsrf_ave_N              =  -2.0851108577024E+01
(PID.TID 0000.0001) %MON land_Tsrf_min_S              =  -3.3998996432069E+01
(PID.TID 0000.0001) %MON land_Tsrf_min_T              =  -5.4369207737902E+00
(PID.TID 0000.0001) %MON land_Tsrf_min_N              =  -5.1942373276568E+01
(PID.TID 0000.0001) %MON land_Tsrf_max_S              =   2.3101487127558E+01
(PID.TID 0000.0001) %MON land_Tsrf_max_T              =   2.4585177081805E+01
(PID.TID 0000.0001) %MON land_Tsrf_max_N              =   1.0806817079903E+01
(PID.TID 0000.0001) %MON land_Tgr1_ave_G              =  -6.0959600160577E+00
(PID.TID 0000.0001) %MON land_Tgr1_ave_S              =  -6.3792387968381E+00
(PID.TID 0000.0001) %MON land_Tgr1_ave_T              =   1.2444901912463E+01
(PID.TID 0000.0001) %MON land_Tgr1_ave_N              =  -1.8385108424063E+01
(PID.TID 0000.0001) %MON land_Tgr1_min_S              =  -3.9129672605438E+01
(PID.TID 0000.0001) %MON land_Tgr1_min_T              =  -5.4369207737902E+00
(PID.TID 0000.0001) %MON land_Tgr1_min_N              =  -5.4858711220692E+01
(PID.TID 0000.0001) %MON land_Tgr1_max_S              =   2.3101487127558E+01
(PID.TID 0000.0001) %MON land_Tgr1_max_T              =   2.4585177081805E+01
(PID.TID 0000.0001) %MON land_Tgr1_max_N              =   1.0806817079903E+01
(PID.TID 0000.0001) %MON land_Tgr2_ave_G              =   4.2059285148874E+00
(PID.TID 0000.0001) %MON land_Tgr2_ave_S              =  -1.8729225210931E+01
(PID.TID 0000.0001) %MON land_Tgr2_ave_T              =   2.2011740585502E+01
(PID.TID 0000.0001) %MON land_Tgr2_ave_N              =  -2.4424500333348E-01
(PID.TID 0000.0001) %MON land_Tgr2_min_S              =  -6.4757095326055E+01
(PID.TID 0000.0001) %MON land_Tgr2_min_T              =  -9.7046267168071E+00
(PID.TID 0000.0001) %MON land_Tgr2_min_N              =  -4.0196499791019E+01
(PID.TID 0000.0001) %MON land_Tgr2_max_S              =   2.3360624242621E+01
(PID.TID 0000.0001) %MON land_Tgr2_max_T              =   3.1357089319630E+01
(PID.TID 0000.0001) %MON land_Tgr2_max_N              =   2.9828036714873E+01
(PID.TID 0000.0001) %MON land_grdW_ave_G              =   4.8687490719219E-01
(PID.TID 0000.0001) %MON land_grdW_ave_S              =   3.0863460652284E-01
(PID.TID 0000.0001) %MON land_grdW_ave_T              =   5.6447149061650E-01
(PID.TID 0000.0001) %MON land_grdW_ave_N              =   4.9287825835978E-01
(PID.TID 0000.0001) %MON land_grdW_min_S              =   2.6429297911051E-02
(PID.TID 0000.0001) %MON land_grdW_min_T              =   0.0000000000000E+00
(PID.TID 0000.0001) %MON land_grdW_min_N              =   0.0000000000000E+00
(PID.TID 0000.0001) // =======================================================
(PID.TID 0000.0001) // End MONITOR Land statistics
(PID.TID 0000.0001) // =======================================================
(PID.TID 0000.0001) // =======================================================
(PID.TID 0000.0001) // Begin MONITOR Therm.SeaIce statistics
(PID.TID 0000.0001) // =======================================================
(PID.TID 0000.0001) %MON thSI_time_sec                =   5.4000000000000E+03
(PID.TID 0000.0001) %MON thSI_Ice_Area_G              =   1.2494475591984E+11
(PID.TID 0000.0001) %MON thSI_Ice_Area_S              =   0.0000000000000E+00
(PID.TID 0000.0001) %MON thSI_Ice_Area_N              =   1.2494475591984E+11
(PID.TID 0000.0001) %MON thSI_IceH_ave_G              =   1.2394341509745E-01
(PID.TID 0000.0001) %MON thSI_IceH_ave_S              =   0.0000000000000E+00
(PID.TID 0000.0001) %MON thSI_IceH_ave_N              =   1.2394341509745E-01
(PID.TID 0000.0001) %MON thSI_IceH_max_S              =   0.0000000000000E+00
(PID.TID 0000.0001) %MON thSI_IceH_max_N              =   1.3015579238411E-01
(PID.TID 0000.0001) %MON thSI_SnwH_ave_G              =   0.0000000000000E+00
(PID.TID 0000.0001) %MON thSI_SnwH_ave_S              =   0.0000000000000E+00
(PID.TID 0000.0001) %MON thSI_SnwH_ave_N              =   0.0000000000000E+00
(PID.TID 0000.0001) %MON thSI_SnwH_max_S              =   0.0000000000000E+00
(PID.TID 0000.0001) %MON thSI_SnwH_max_N              =   0.0000000000000E+00
(PID.TID 0000.0001) %MON thSI_TotEnerg_G              =  -4.7288530425555E+18
(PID.TID 0000.0001) %MON thSI_Tsrf_ave_G              =  -6.9624280184652E+00
(PID.TID 0000.0001) %MON thSI_Tsrf_ave_S              =   0.0000000000000E+00
(PID.TID 0000.0001) %MON thSI_Tsrf_ave_N              =  -6.9624280184652E+00
(PID.TID 0000.0001) %MON thSI_Tsrf_min_S              =   0.0000000000000E+00
(PID.TID 0000.0001) %MON thSI_Tsrf_min_N              =  -7.0468545293724E+00
(PID.TID 0000.0001) %MON thSI_Tsrf_max_S              =   0.0000000000000E+00
(PID.TID 0000.0001) %MON thSI_Tsrf_max_N              =  -6.8197144898749E+00
(PID.TID 0000.0001) %MON thSI_Tic1_ave_G              =  -4.5318387507416E+00
(PID.TID 0000.0001) %MON thSI_Tic1_ave_S              =   0.0000000000000E+00
(PID.TID 0000.0001) %MON thSI_Tic1_ave_N              =  -4.5318387507416E+00
(PID.TID 0000.0001) %MON thSI_Tic1_min_S              =   0.0000000000000E+00
(PID.TID 0000.0001) %MON thSI_Tic1_min_N              =  -4.6057409823896E+00
(PID.TID 0000.0001) %MON thSI_Tic1_max_S              =   0.0000000000000E+00
(PID.TID 0000.0001) %MON thSI_Tic1_max_N              =  -4.4521715235260E+00
(PID.TID 0000.0001) %MON thSI_Tic2_ave_G              =  -2.3677608971094E+00
(PID.TID 0000.0001) %MON thSI_Tic2_ave_S              =   0.0000000000000E+00
(PID.TID 0000.0001) %MON thSI_Tic2_ave_N              =  -2.3677608971094E+00
(PID.TID 0000.0001) %MON thSI_Tic2_min_S              =   0.0000000000000E+00
(PID.TID 0000.0001) %MON thSI_Tic2_min_N              =  -2.4415290446546E+00
(PID.TID 0000.0001) %MON thSI_Tic2_max_S              =   0.0000000000000E+00
(PID.TID 0000.0001) %MON thSI_Tic2_max_N              =  -2.3026673780247E+00
(PID.TID 0000.0001) // =======================================================
(PID.TID 0000.0001) // End MONITOR Therm.SeaIce statistics
(PID.TID 0000.0001) // =======================================================
 cg2d: Sum(rhs),rhsMax =  -1.87355908565223E-10  2.33469606148738E+04
(PID.TID 0000.0001)                    cg2d_init_res =    1.56342449889984E+04
(PID.TID 0000.0001)                       cg2d_iters =    16
(PID.TID 0000.0001)                         cg2d_res =    9.39743723156540E-11
(PID.TID 0000.0001) // =======================================================
(PID.TID 0000.0001) // Begin MONITOR dynamic field statistics
(PID.TID 0000.0001) // =======================================================
(PID.TID 0000.0001) %MON time_tsnumber                =                    13
(PID.TID 0000.0001) %MON time_secondsf                =   5.8500000000000E+03
(PID.TID 0000.0001) %MON dynstat_eta_max              =   4.4478152736749E+03
(PID.TID 0000.0001) %MON dynstat_eta_min              =  -1.6352251444799E+03
(PID.TID 0000.0001) %MON dynstat_eta_mean             =  -6.7275360708003E-15
(PID.TID 0000.0001) %MON dynstat_eta_sd               =   5.1592415248246E+02
(PID.TID 0000.0001) %MON dynstat_eta_del2             =   3.7746996957504E+01
(PID.TID 0000.0001) %MON dynstat_uvel_max             =   6.0525704163855E+00
(PID.TID 0000.0001) %MON dynstat_uvel_min             =  -5.6748899797899E+00
(PID.TID 0000.0001) %MON dynstat_uvel_mean            =  -8.9768433977844E-03
(PID.TID 0000.0001) %MON dynstat_uvel_sd              =   7.8241477313390E-01
(PID.TID 0000.0001) %MON dynstat_uvel_del2            =   1.9721438646997E-02
(PID.TID 0000.0001) %MON dynstat_vvel_max             =   7.6925195219034E+00
(PID.TID 0000.0001) %MON dynstat_vvel_min             =  -7.8363398209250E+00
(PID.TID 0000.0001) %MON dynstat_vvel_mean            =   1.8963729802389E-02
(PID.TID 0000.0001) %MON dynstat_vvel_sd              =   8.5008591552256E-01
(PID.TID 0000.0001) %MON dynstat_vvel_del2            =   2.0102091170932E-02
(PID.TID 0000.0001) %MON dynstat_wvel_max             =   1.6588096882465E-01
(PID.TID 0000.0001) %MON dynstat_wvel_min             =  -2.7341818665654E-01
(PID.TID 0000.0001) %MON dynstat_wvel_mean            =  -1.1383232219980E-03
(PID.TID 0000.0001) %MON dynstat_wvel_sd              =   1.0684577900109E-02
(PID.TID 0000.0001) %MON dynstat_wvel_del2            =   1.2900040353478E-03
(PID.TID 0000.0001) %MON dynstat_theta_max            =   4.3770874095809E+02
(PID.TID 0000.0001) %MON dynstat_theta_min            =   2.8641221014437E+02
(PID.TID 0000.0001) %MON dynstat_theta_mean           =   3.3170695901564E+02
(PID.TID 0000.0001) %MON dynstat_theta_sd             =   4.7429760770613E+01
(PID.TID 0000.0001) %MON dynstat_theta_del2           =   1.5111164826282E-02
(PID.TID 0000.0001) %MON dynstat_salt_max             =   3.4925789095885E+00
(PID.TID 0000.0001) %MON dynstat_salt_min             =  -2.2477893295411E-03
(PID.TID 0000.0001) %MON dynstat_salt_mean            =   4.9044102002412E-02
(PID.TID 0000.0001) %MON dynstat_salt_sd              =   2.0491928417534E-01
(PID.TID 0000.0001) %MON dynstat_salt_del2            =   6.7861382204331E-03
(PID.TID 0000.0001) %MON advcfl_uvel_max              =   8.4969668513913E-03
(PID.TID 0000.0001) %MON advcfl_vvel_max              =   1.1241252832112E-02
(PID.TID 0000.0001) %MON advcfl_wvel_max              =   4.4741157816525E-03
(PID.TID 0000.0001) %MON advcfl_W_hf_max              =   1.5153278026120E-02
(PID.TID 0000.0001) %MON pe_b_mean                    =  -1.0901252668119E+00
(PID.TID 0000.0001) %MON ke_max                       =   3.5168471910525E+01
(PID.TID 0000.0001) %MON ke_mean                      =   6.6322477216755E-01
(PID.TID 0000.0001) %MON ke_vol                       =   4.9523908919847E+19
(PID.TID 0000.0001) %MON vort_r_min                   =  -3.1795637767773E-05
(PID.TID 0000.0001) %MON vort_r_max                   =   1.7516020026322E-05
(PID.TID 0000.0001) %MON vort_a_mean                  =   6.7059142261975E-08
(PID.TID 0000.0001) %MON vort_a_sd                    =   8.3730434282712E-05
(PID.TID 0000.0001) %MON vort_p_mean                  =   6.8800017092045E-08
(PID.TID 0000.0001) %MON vort_p_sd                    =   9.1850276019455E-05
(PID.TID 0000.0001) %MON surfExpan_theta_mean         =   1.0935968233677E-01
(PID.TID 0000.0001) %MON surfExpan_salt_mean          =  -1.8678813831679E-04
(PID.TID 0000.0001) %MON surfExpan_Heat_mean          =  -9.3494340060082E+00
(PID.TID 0000.0001) %MON En_Budget_T2PE_mean          =   1.7382017490999E+01
(PID.TID 0000.0001) // =======================================================
(PID.TID 0000.0001) // End MONITOR dynamic field statistics
(PID.TID 0000.0001) // =======================================================
(PID.TID 0000.0001) // =======================================================
(PID.TID 0000.0001) // Begin MONITOR Land statistics
(PID.TID 0000.0001) // =======================================================
(PID.TID 0000.0001) %MON land_time_sec                =   5.8500000000000E+03
(PID.TID 0000.0001) %MON land_SnwH_ave_G              =   1.5323530251666E-01
(PID.TID 0000.0001) %MON land_SnwH_ave_S              =   5.5905172097178E-01
(PID.TID 0000.0001) %MON land_SnwH_ave_T              =   0.0000000000000E+00
(PID.TID 0000.0001) %MON land_SnwH_ave_N              =   1.2391695749571E-01
(PID.TID 0000.0001) %MON land_SnwH_max_S              =   9.9999313360385E-01
(PID.TID 0000.0001) %MON land_SnwH_max_T              =   0.0000000000000E+00
(PID.TID 0000.0001) %MON land_SnwH_max_N              =   9.9999910101463E-01
(PID.TID 0000.0001) %MON land_TotEnerg_G              =  -6.3249331923518E+21
(PID.TID 0000.0001) %MON land_TotEnerg_S              =  -5.0001614775460E+21
(PID.TID 0000.0001) %MON land_TotEnerg_T              =   7.2940042614981E+21
(PID.TID 0000.0001) %MON land_TotEnerg_N              =  -8.6187759763038E+21
(PID.TID 0000.0001) %MON land_Tsrf_ave_G              =  -7.5152979030099E+00
(PID.TID 0000.0001) %MON land_Tsrf_ave_S              =  -6.7789336635334E+00
(PID.TID 0000.0001) %MON land_Tsrf_ave_T              =   1.2160055521946E+01
(PID.TID 0000.0001) %MON land_Tsrf_ave_N              =  -2.0892792350499E+01
(PID.TID 0000.0001) %MON land_Tsrf_min_S              =  -3.3986088620725E+01
(PID.TID 0000.0001) %MON land_Tsrf_min_T              =  -5.2660429902620E+00
(PID.TID 0000.0001) %MON land_Tsrf_min_N              =  -5.1956080758047E+01
(PID.TID 0000.0001) %MON land_Tsrf_max_S              =   2.2721453085980E+01
(PID.TID 0000.0001) %MON land_Tsrf_max_T              =   2.4061281120752E+01
(PID.TID 0000.0001) %MON land_Tsrf_max_N              =   1.0567637255624E+01
(PID.TID 0000.0001) %MON land_Tgr1_ave_G              =  -6.2339641059079E+00
(PID.TID 0000.0001) %MON land_Tgr1_ave_S              =  -6.4900436377035E+00
(PID.TID 0000.0001) %MON land_Tgr1_ave_T              =   1.2160055521946E+01
(PID.TID 0000.0001) %MON land_Tgr1_ave_N              =  -1.8433878814729E+01
(PID.TID 0000.0001) %MON land_Tgr1_min_S              =  -3.9140805735480E+01
(PID.TID 0000.0001) %MON land_Tgr1_min_T              =  -5.2660429902620E+00
(PID.TID 0000.0001) %MON land_Tgr1_min_N              =  -5.4845886707390E+01
(PID.TID 0000.0001) %MON land_Tgr1_max_S              =   2.2721453085980E+01
(PID.TID 0000.0001) %MON land_Tgr1_max_T              =   2.4061281120752E+01
(PID.TID 0000.0001) %MON land_Tgr1_max_N              =   1.0567637255624E+01
(PID.TID 0000.0001) %MON land_Tgr2_ave_G              =   4.2057686900790E+00
(PID.TID 0000.0001) %MON land_Tgr2_ave_S              =  -1.8729020699350E+01
(PID.TID 0000.0001) %MON land_Tgr2_ave_T              =   2.2011579366974E+01
(PID.TID 0000.0001) %MON land_Tgr2_ave_N              =  -2.4452208596206E-01
(PID.TID 0000.0001) %MON land_Tgr2_min_S              =  -6.4756663328894E+01
(PID.TID 0000.0001) %MON land_Tgr2_min_T              =  -9.7045706333074E+00
(PID.TID 0000.0001) %MON land_Tgr2_min_N              =  -4.0196738182011E+01
(PID.TID 0000.0001) %MON land_Tgr2_max_S              =   2.3360604339887E+01
(PID.TID 0000.0001) %MON land_Tgr2_max_T              =   3.1356708431143E+01
(PID.TID 0000.0001) %MON land_Tgr2_max_N              =   2.9827584764734E+01
(PID.TID 0000.0001) %MON land_grdW_ave_G              =   4.8686419973026E-01
(PID.TID 0000.0001) %MON land_grdW_ave_S              =   3.0862521198509E-01
(PID.TID 0000.0001) %MON land_grdW_ave_T              =   5.6444461607110E-01
(PID.TID 0000.0001) %MON land_grdW_ave_N              =   4.9287792089612E-01
(PID.TID 0000.0001) %MON land_grdW_min_S              =   2.6503665853522E-02
(PID.TID 0000.0001) %MON land_grdW_min_T              =   0.0000000000000E+00
(PID.TID 0000.0001) %MON land_grdW_min_N              =   0.0000000000000E+00
(PID.TID 0000.0001) // =======================================================
(PID.TID 0000.0001) // End MONITOR Land statistics
(PID.TID 0000.0001) // =======================================================
(PID.TID 0000.0001) // =======================================================
(PID.TID 0000.0001) // Begin MONITOR Therm.SeaIce statistics
(PID.TID 0000.0001) // =======================================================
(PID.TID 0000.0001) %MON thSI_time_sec                =   5.8500000000000E+03
(PID.TID 0000.0001) %MON thSI_Ice_Area_G              =   1.3364563217899E+11
(PID.TID 0000.0001) %MON thSI_Ice_Area_S              =   0.0000000000000E+00
(PID.TID 0000.0001) %MON thSI_Ice_Area_N              =   1.3364563217899E+11
(PID.TID 0000.0001) %MON thSI_IceH_ave_G              =   1.2635472218955E-01
(PID.TID 0000.0001) %MON thSI_IceH_ave_S              =   0.0000000000000E+00
(PID.TID 0000.0001) %MON thSI_IceH_ave_N              =   1.2635472218955E-01
(PID.TID 0000.0001) %MON thSI_IceH_max_S              =   0.0000000000000E+00
(PID.TID 0000.0001) %MON thSI_IceH_max_N              =   1.3320256376647E-01
(PID.TID 0000.0001) %MON thSI_SnwH_ave_G              =   0.0000000000000E+00
(PID.TID 0000.0001) %MON thSI_SnwH_ave_S              =   0.0000000000000E+00
(PID.TID 0000.0001) %MON thSI_SnwH_ave_N              =   0.0000000000000E+00
(PID.TID 0000.0001) %MON thSI_SnwH_max_S              =   0.0000000000000E+00
(PID.TID 0000.0001) %MON thSI_SnwH_max_N              =   0.0000000000000E+00
(PID.TID 0000.0001) %MON thSI_TotEnerg_G              =  -5.1625959587121E+18
(PID.TID 0000.0001) %MON thSI_Tsrf_ave_G              =  -7.1954820338489E+00
(PID.TID 0000.0001) %MON thSI_Tsrf_ave_S              =   0.0000000000000E+00
(PID.TID 0000.0001) %MON thSI_Tsrf_ave_N              =  -7.1954820338489E+00
(PID.TID 0000.0001) %MON thSI_Tsrf_min_S              =   0.0000000000000E+00
(PID.TID 0000.0001) %MON thSI_Tsrf_min_N              =  -7.2817894627264E+00
(PID.TID 0000.0001) %MON thSI_Tsrf_max_S              =   0.0000000000000E+00
(PID.TID 0000.0001) %MON thSI_Tsrf_max_N              =  -7.0461164066801E+00
(PID.TID 0000.0001) %MON thSI_Tic1_ave_G              =  -4.7563937903386E+00
(PID.TID 0000.0001) %MON thSI_Tic1_ave_S              =   0.0000000000000E+00
(PID.TID 0000.0001) %MON thSI_Tic1_ave_N              =  -4.7563937903386E+00
(PID.TID 0000.0001) %MON thSI_Tic1_min_S              =   0.0000000000000E+00
(PID.TID 0000.0001) %MON thSI_Tic1_min_N              =  -4.8344806436905E+00
(PID.TID 0000.0001) %MON thSI_Tic1_max_S              =   0.0000000000000E+00
(PID.TID 0000.0001) %MON thSI_Tic1_max_N              =  -4.6808714772214E+00
(PID.TID 0000.0001) %MON thSI_Tic2_ave_G              =  -2.4374979161593E+00
(PID.TID 0000.0001) %MON thSI_Tic2_ave_S              =   0.0000000000000E+00
(PID.TID 0000.0001) %MON thSI_Tic2_ave_N              =  -2.4374979161593E+00
(PID.TID 0000.0001) %MON thSI_Tic2_min_S              =   0.0000000000000E+00
(PID.TID 0000.0001) %MON thSI_Tic2_min_N              =  -2.5165328404788E+00
(PID.TID 0000.0001) %MON thSI_Tic2_max_S              =   0.0000000000000E+00
(PID.TID 0000.0001) %MON thSI_Tic2_max_N              =  -2.3679759849077E+00
(PID.TID 0000.0001) // =======================================================
(PID.TID 0000.0001) // End MONITOR Therm.SeaIce statistics
(PID.TID 0000.0001) // =======================================================
 cg2d: Sum(rhs),rhsMax =  -2.89219315163791E-10  2.47124529906889E+04
(PID.TID 0000.0001)                    cg2d_init_res =    1.45820134911330E+04
(PID.TID 0000.0001)                       cg2d_iters =    16
(PID.TID 0000.0001)                         cg2d_res =    9.08369532107677E-11
(PID.TID 0000.0001) // =======================================================
(PID.TID 0000.0001) // Begin MONITOR dynamic field statistics
(PID.TID 0000.0001) // =======================================================
(PID.TID 0000.0001) %MON time_tsnumber                =                    14
(PID.TID 0000.0001) %MON time_secondsf                =   6.3000000000000E+03
(PID.TID 0000.0001) %MON dynstat_eta_max              =   4.6999856043682E+03
(PID.TID 0000.0001) %MON dynstat_eta_min              =  -1.5157718256581E+03
(PID.TID 0000.0001) %MON dynstat_eta_mean             =   1.0241920585397E-14
(PID.TID 0000.0001) %MON dynstat_eta_sd               =   5.3053263973687E+02
(PID.TID 0000.0001) %MON dynstat_eta_del2             =   3.7743126216491E+01
(PID.TID 0000.0001) %MON dynstat_uvel_max             =   5.8422741426000E+00
(PID.TID 0000.0001) %MON dynstat_uvel_min             =  -6.0551435764924E+00
(PID.TID 0000.0001) %MON dynstat_uvel_mean            =  -9.3042334810207E-03
(PID.TID 0000.0001) %MON dynstat_uvel_sd              =   7.8216472917683E-01
(PID.TID 0000.0001) %MON dynstat_uvel_del2            =   1.9640004765284E-02
(PID.TID 0000.0001) %MON dynstat_vvel_max             =   7.1879119989737E+00
(PID.TID 0000.0001) %MON dynstat_vvel_min             =  -7.4583185515496E+00
(PID.TID 0000.0001) %MON dynstat_vvel_mean            =   2.0632219864822E-02
(PID.TID 0000.0001) %MON dynstat_vvel_sd              =   8.4280867691761E-01
(PID.TID 0000.0001) %MON dynstat_vvel_del2            =   1.9908230422939E-02
(PID.TID 0000.0001) %MON dynstat_wvel_max             =   1.6920837986371E-01
(PID.TID 0000.0001) %MON dynstat_wvel_min             =  -2.4205002629870E-01
(PID.TID 0000.0001) %MON dynstat_wvel_mean            =  -9.8130504569345E-04
(PID.TID 0000.0001) %MON dynstat_wvel_sd              =   9.8070332419987E-03
(PID.TID 0000.0001) %MON dynstat_wvel_del2            =   1.2758166336912E-03
(PID.TID 0000.0001) %MON dynstat_theta_max            =   4.3778130009640E+02
(PID.TID 0000.0001) %MON dynstat_theta_min            =   2.8617329319770E+02
(PID.TID 0000.0001) %MON dynstat_theta_mean           =   3.3170540654899E+02
(PID.TID 0000.0001) %MON dynstat_theta_sd             =   4.7431564960528E+01
(PID.TID 0000.0001) %MON dynstat_theta_del2           =   1.6095016571219E-02
(PID.TID 0000.0001) %MON dynstat_salt_max             =   3.6186625779920E+00
(PID.TID 0000.0001) %MON dynstat_salt_min             =  -2.5571754571125E-03
(PID.TID 0000.0001) %MON dynstat_salt_mean            =   5.2601324451028E-02
(PID.TID 0000.0001) %MON dynstat_salt_sd              =   2.1866480913732E-01
(PID.TID 0000.0001) %MON dynstat_salt_del2            =   7.1574738557061E-03
(PID.TID 0000.0001) %MON advcfl_uvel_max              =   8.5358871633189E-03
(PID.TID 0000.0001) %MON advcfl_vvel_max              =   1.0698980194366E-02
(PID.TID 0000.0001) %MON advcfl_wvel_max              =   4.3510726250668E-03
(PID.TID 0000.0001) %MON advcfl_W_hf_max              =   1.5441513761911E-02
(PID.TID 0000.0001) %MON pe_b_mean                    =  -1.0974451612682E+00
(PID.TID 0000.0001) %MON ke_max                       =   3.2888949839127E+01
(PID.TID 0000.0001) %MON ke_mean                      =   6.5692074012948E-01
(PID.TID 0000.0001) %MON ke_vol                       =   4.9523908919847E+19
(PID.TID 0000.0001) %MON vort_r_min                   =  -3.0156679680554E-05
(PID.TID 0000.0001) %MON vort_r_max                   =   1.6328945591272E-05
(PID.TID 0000.0001) %MON vort_a_mean                  =   6.7059142262024E-08
(PID.TID 0000.0001) %MON vort_a_sd                    =   8.3733027196325E-05
(PID.TID 0000.0001) %MON vort_p_mean                  =   6.8802532332402E-08
(PID.TID 0000.0001) %MON vort_p_sd                    =   9.1870758062801E-05
(PID.TID 0000.0001) %MON surfExpan_theta_mean         =   9.3596529437942E-02
(PID.TID 0000.0001) %MON surfExpan_salt_mean          =  -2.2123530732314E-04
(PID.TID 0000.0001) %MON surfExpan_Heat_mean          =  -8.0822077061599E+00
(PID.TID 0000.0001) %MON En_Budget_T2PE_mean          =   1.4959651617202E+01
(PID.TID 0000.0001) // =======================================================
(PID.TID 0000.0001) // End MONITOR dynamic field statistics
(PID.TID 0000.0001) // =======================================================
(PID.TID 0000.0001) // =======================================================
(PID.TID 0000.0001) // Begin MONITOR Land statistics
(PID.TID 0000.0001) // =======================================================
(PID.TID 0000.0001) %MON land_time_sec                =   6.3000000000000E+03
(PID.TID 0000.0001) %MON land_SnwH_ave_G              =   1.5323431002742E-01
(PID.TID 0000.0001) %MON land_SnwH_ave_S              =   5.5905080541789E-01
(PID.TID 0000.0001) %MON land_SnwH_ave_T              =   0.0000000000000E+00
(PID.TID 0000.0001) %MON land_SnwH_ave_N              =   1.2391527729399E-01
(PID.TID 0000.0001) %MON land_SnwH_max_S              =   9.9999257853910E-01
(PID.TID 0000.0001) %MON land_SnwH_max_T              =   0.0000000000000E+00
(PID.TID 0000.0001) %MON land_SnwH_max_N              =   9.9999903671090E-01
(PID.TID 0000.0001) %MON land_TotEnerg_G              =  -6.3282522898632E+21
(PID.TID 0000.0001) %MON land_TotEnerg_S              =  -5.0004820401434E+21
(PID.TID 0000.0001) %MON land_TotEnerg_T              =   7.2917762809743E+21
(PID.TID 0000.0001) %MON land_TotEnerg_N              =  -8.6195465306941E+21
(PID.TID 0000.0001) %MON land_Tsrf_ave_G              =  -7.6410348048142E+00
(PID.TID 0000.0001) %MON land_Tsrf_ave_S              =  -6.9011360669271E+00
(PID.TID 0000.0001) %MON land_Tsrf_ave_T              =   1.1903544862845E+01
(PID.TID 0000.0001) %MON land_Tsrf_ave_N              =  -2.0932348952919E+01
(PID.TID 0000.0001) %MON land_Tsrf_min_S              =  -3.3966086870910E+01
(PID.TID 0000.0001) %MON land_Tsrf_min_T              =  -5.1007147707779E+00
(PID.TID 0000.0001) %MON land_Tsrf_min_N              =  -5.1976112834430E+01
(PID.TID 0000.0001) %MON land_Tsrf_max_S              =   2.2381760512828E+01
(PID.TID 0000.0001) %MON land_Tsrf_max_T              =   2.3587187167918E+01
(PID.TID 0000.0001) %MON land_Tsrf_max_N              =   1.0339059239131E+01
(PID.TID 0000.0001) %MON land_Tgr1_ave_G              =  -6.3594504527876E+00
(PID.TID 0000.0001) %MON land_Tgr1_ave_S              =  -6.5891982033292E+00
(PID.TID 0000.0001) %MON land_Tgr1_ave_T              =   1.1903544862845E+01
(PID.TID 0000.0001) %MON land_Tgr1_ave_N              =  -1.8480412848663E+01
(PID.TID 0000.0001) %MON land_Tgr1_min_S              =  -3.9151896409400E+01
(PID.TID 0000.0001) %MON land_Tgr1_min_T              =  -5.1007147707779E+00
(PID.TID 0000.0001) %MON land_Tgr1_min_N              =  -5.4833102880093E+01
(PID.TID 0000.0001) %MON land_Tgr1_max_S              =   2.2381760512828E+01
(PID.TID 0000.0001) %MON land_Tgr1_max_T              =   2.3587187167918E+01
(PID.TID 0000.0001) %MON land_Tgr1_max_N              =   1.0339059239131E+01
(PID.TID 0000.0001) %MON land_Tgr2_ave_G              =   4.2056068667609E+00
(PID.TID 0000.0001) %MON land_Tgr2_ave_S              =  -1.8728817761391E+01
(PID.TID 0000.0001) %MON land_Tgr2_ave_T              =   2.2011414181759E+01
(PID.TID 0000.0001) %MON land_Tgr2_ave_N              =  -2.4479999064005E-01
(PID.TID 0000.0001) %MON land_Tgr2_min_S              =  -6.4756231547541E+01
(PID.TID 0000.0001) %MON land_Tgr2_min_T              =  -9.7045124616434E+00
(PID.TID 0000.0001) %MON land_Tgr2_min_N              =  -4.0196976328655E+01
(PID.TID 0000.0001) %MON land_Tgr2_max_S              =   2.3360578284171E+01
(PID.TID 0000.0001) %MON land_Tgr2_max_T              =   3.1356321640297E+01
(PID.TID 0000.0001) %MON land_Tgr2_max_N              =   2.9827125237316E+01
(PID.TID 0000.0001) %MON land_grdW_ave_G              =   4.8685390029368E-01
(PID.TID 0000.0001) %MON land_grdW_ave_S              =   3.0861602250194E-01
(PID.TID 0000.0001) %MON land_grdW_ave_T              =   5.6441884880717E-01
(PID.TID 0000.0001) %MON land_grdW_ave_N              =   4.9287759035761E-01
(PID.TID 0000.0001) %MON land_grdW_min_S              =   2.6580455436492E-02
(PID.TID 0000.0001) %MON land_grdW_min_T              =   0.0000000000000E+00
(PID.TID 0000.0001) %MON land_grdW_min_N              =   0.0000000000000E+00
(PID.TID 0000.0001) // =======================================================
(PID.TID 0000.0001) // End MONITOR Land statistics
(PID.TID 0000.0001) // =======================================================
(PID.TID 0000.0001) // =======================================================
(PID.TID 0000.0001) // Begin MONITOR Therm.SeaIce statistics
(PID.TID 0000.0001) // =======================================================
(PID.TID 0000.0001) %MON thSI_time_sec                =   6.3000000000000E+03
(PID.TID 0000.0001) %MON thSI_Ice_Area_G              =   1.4202061594075E+11
(PID.TID 0000.0001) %MON thSI_Ice_Area_S              =   0.0000000000000E+00
(PID.TID 0000.0001) %MON thSI_Ice_Area_N              =   1.4202061594075E+11
(PID.TID 0000.0001) %MON thSI_IceH_ave_G              =   1.2876805808472E-01
(PID.TID 0000.0001) %MON thSI_IceH_ave_S              =   0.0000000000000E+00
(PID.TID 0000.0001) %MON thSI_IceH_ave_N              =   1.2876805808472E-01
(PID.TID 0000.0001) %MON thSI_IceH_max_S              =   0.0000000000000E+00
(PID.TID 0000.0001) %MON thSI_IceH_max_N              =   1.3625331645587E-01
(PID.TID 0000.0001) %MON thSI_SnwH_ave_G              =   0.0000000000000E+00
(PID.TID 0000.0001) %MON thSI_SnwH_ave_S              =   0.0000000000000E+00
(PID.TID 0000.0001) %MON thSI_SnwH_ave_N              =   0.0000000000000E+00
(PID.TID 0000.0001) %MON thSI_SnwH_max_S              =   0.0000000000000E+00
(PID.TID 0000.0001) %MON thSI_SnwH_max_N              =   0.0000000000000E+00
(PID.TID 0000.0001) %MON thSI_TotEnerg_G              =  -5.5968121556428E+18
(PID.TID 0000.0001) %MON thSI_Tsrf_ave_G              =  -7.4113990518392E+00
(PID.TID 0000.0001) %MON thSI_Tsrf_ave_S              =   0.0000000000000E+00
(PID.TID 0000.0001) %MON thSI_Tsrf_ave_N              =  -7.4113990518392E+00
(PID.TID 0000.0001) %MON thSI_Tsrf_min_S              =   0.0000000000000E+00
(PID.TID 0000.0001) %MON thSI_Tsrf_min_N              =  -7.4997079594851E+00
(PID.TID 0000.0001) %MON thSI_Tsrf_max_S              =   0.0000000000000E+00
(PID.TID 0000.0001) %MON thSI_Tsrf_max_N              =  -7.2551054164756E+00
(PID.TID 0000.0001) %MON thSI_Tic1_ave_G              =  -4.9632904100569E+00
(PID.TID 0000.0001) %MON thSI_Tic1_ave_S              =   0.0000000000000E+00
(PID.TID 0000.0001) %MON thSI_Tic1_ave_N              =  -4.9632904100569E+00
(PID.TID 0000.0001) %MON thSI_Tic1_min_S              =   0.0000000000000E+00
(PID.TID 0000.0001) %MON thSI_Tic1_min_N              =  -5.0447824944191E+00
(PID.TID 0000.0001) %MON thSI_Tic1_max_S              =   0.0000000000000E+00
(PID.TID 0000.0001) %MON thSI_Tic1_max_N              =  -4.8905330106731E+00
(PID.TID 0000.0001) %MON thSI_Tic2_ave_G              =  -2.5026913594440E+00
(PID.TID 0000.0001) %MON thSI_Tic2_ave_S              =   0.0000000000000E+00
(PID.TID 0000.0001) %MON thSI_Tic2_ave_N              =  -2.5026913594440E+00
(PID.TID 0000.0001) %MON thSI_Tic2_min_S              =   0.0000000000000E+00
(PID.TID 0000.0001) %MON thSI_Tic2_min_N              =  -2.5867159577820E+00
(PID.TID 0000.0001) %MON thSI_Tic2_max_S              =   0.0000000000000E+00
(PID.TID 0000.0001) %MON thSI_Tic2_max_N              =  -2.4289375387272E+00
(PID.TID 0000.0001) // =======================================================
(PID.TID 0000.0001) // End MONITOR Therm.SeaIce statistics
(PID.TID 0000.0001) // =======================================================
 cg2d: Sum(rhs),rhsMax =   8.18545231595635E-10  2.54422601529513E+04
(PID.TID 0000.0001)                    cg2d_init_res =    1.36943547117827E+04
(PID.TID 0000.0001)                       cg2d_iters =    16
(PID.TID 0000.0001)                         cg2d_res =    8.93794192143167E-11
(PID.TID 0000.0001) // =======================================================
(PID.TID 0000.0001) // Begin MONITOR dynamic field statistics
(PID.TID 0000.0001) // =======================================================
(PID.TID 0000.0001) %MON time_tsnumber                =                    15
(PID.TID 0000.0001) %MON time_secondsf                =   6.7500000000000E+03
(PID.TID 0000.0001) %MON dynstat_eta_max              =   4.8402502619720E+03
(PID.TID 0000.0001) %MON dynstat_eta_min              =  -1.3871192521771E+03
(PID.TID 0000.0001) %MON dynstat_eta_mean             =  -2.5303568505100E-14
(PID.TID 0000.0001) %MON dynstat_eta_sd               =   5.4239193135260E+02
(PID.TID 0000.0001) %MON dynstat_eta_del2             =   3.7684673896467E+01
(PID.TID 0000.0001) %MON dynstat_uvel_max             =   5.8681917837149E+00
(PID.TID 0000.0001) %MON dynstat_uvel_min             =  -6.4728594652810E+00
(PID.TID 0000.0001) %MON dynstat_uvel_mean            =  -9.4836911739283E-03
(PID.TID 0000.0001) %MON dynstat_uvel_sd              =   7.8434031047686E-01
(PID.TID 0000.0001) %MON dynstat_uvel_del2            =   1.9689404100290E-02
(PID.TID 0000.0001) %MON dynstat_vvel_max             =   6.6245618536756E+00
(PID.TID 0000.0001) %MON dynstat_vvel_min             =  -6.9321384591457E+00
(PID.TID 0000.0001) %MON dynstat_vvel_mean            =   2.2234732346380E-02
(PID.TID 0000.0001) %MON dynstat_vvel_sd              =   8.3335569679161E-01
(PID.TID 0000.0001) %MON dynstat_vvel_del2            =   1.9875964130021E-02
(PID.TID 0000.0001) %MON dynstat_wvel_max             =   1.6606699101720E-01
(PID.TID 0000.0001) %MON dynstat_wvel_min             =  -2.0628537232870E-01
(PID.TID 0000.0001) %MON dynstat_wvel_mean            =  -8.2344911931298E-04
(PID.TID 0000.0001) %MON dynstat_wvel_sd              =   9.0474379499785E-03
(PID.TID 0000.0001) %MON dynstat_wvel_del2            =   1.2711007944534E-03
(PID.TID 0000.0001) %MON dynstat_theta_max            =   4.3791351790752E+02
(PID.TID 0000.0001) %MON dynstat_theta_min            =   2.8593629339849E+02
(PID.TID 0000.0001) %MON dynstat_theta_mean           =   3.3170380126124E+02
(PID.TID 0000.0001) %MON dynstat_theta_sd             =   4.7433408370903E+01
(PID.TID 0000.0001) %MON dynstat_theta_del2           =   1.7015509640309E-02
(PID.TID 0000.0001) %MON dynstat_salt_max             =   3.7344527895536E+00
(PID.TID 0000.0001) %MON dynstat_salt_min             =  -2.8842077945457E-03
(PID.TID 0000.0001) %MON dynstat_salt_mean            =   5.6138262720628E-02
(PID.TID 0000.0001) %MON dynstat_salt_sd              =   2.3218787713615E-01
(PID.TID 0000.0001) %MON dynstat_salt_del2            =   7.5240776266103E-03
(PID.TID 0000.0001) %MON advcfl_uvel_max              =   9.1247378896447E-03
(PID.TID 0000.0001) %MON advcfl_vvel_max              =   9.9441732833464E-03
(PID.TID 0000.0001) %MON advcfl_wvel_max              =   4.2702940547279E-03
(PID.TID 0000.0001) %MON advcfl_W_hf_max              =   1.5132860355106E-02
(PID.TID 0000.0001) %MON pe_b_mean                    =  -1.1037098161333E+00
(PID.TID 0000.0001) %MON ke_max                       =   3.0026428366723E+01
(PID.TID 0000.0001) %MON ke_mean                      =   6.5075573199072E-01
(PID.TID 0000.0001) %MON ke_vol                       =   4.9523908919847E+19
(PID.TID 0000.0001) %MON vort_r_min                   =  -2.8266913538530E-05
(PID.TID 0000.0001) %MON vort_r_max                   =   1.5883082442787E-05
(PID.TID 0000.0001) %MON vort_a_mean                  =   6.7059142261992E-08
(PID.TID 0000.0001) %MON vort_a_sd                    =   8.3735650722614E-05
(PID.TID 0000.0001) %MON vort_p_mean                  =   6.8804755608994E-08
(PID.TID 0000.0001) %MON vort_p_sd                    =   9.1887303107525E-05
(PID.TID 0000.0001) %MON surfExpan_theta_mean         =   7.7792384786151E-02
(PID.TID 0000.0001) %MON surfExpan_salt_mean          =  -2.5964673718495E-04
(PID.TID 0000.0001) %MON surfExpan_Heat_mean          =  -6.8017679406754E+00
(PID.TID 0000.0001) %MON En_Budget_T2PE_mean          =   1.2521692034706E+01
(PID.TID 0000.0001) // =======================================================
(PID.TID 0000.0001) // End MONITOR dynamic field statistics
(PID.TID 0000.0001) // =======================================================
(PID.TID 0000.0001) // =======================================================
(PID.TID 0000.0001) // Begin MONITOR Land statistics
(PID.TID 0000.0001) // =======================================================
(PID.TID 0000.0001) %MON land_time_sec                =   6.7500000000000E+03
(PID.TID 0000.0001) %MON land_SnwH_ave_G              =   1.5323332291159E-01
(PID.TID 0000.0001) %MON land_SnwH_ave_S              =   5.5904990382151E-01
(PID.TID 0000.0001) %MON land_SnwH_ave_T              =   0.0000000000000E+00
(PID.TID 0000.0001) %MON land_SnwH_ave_N              =   1.2391360326924E-01
(PID.TID 0000.0001) %MON land_SnwH_max_S              =   9.9999202232980E-01
(PID.TID 0000.0001) %MON land_SnwH_max_T              =   0.0000000000000E+00
(PID.TID 0000.0001) %MON land_SnwH_max_N              =   9.9999897263648E-01
(PID.TID 0000.0001) %MON land_TotEnerg_G              =  -6.3312973978290E+21
(PID.TID 0000.0001) %MON land_TotEnerg_S              =  -5.0007663248097E+21
(PID.TID 0000.0001) %MON land_TotEnerg_T              =   7.2897670694664E+21
(PID.TID 0000.0001) %MON land_TotEnerg_N              =  -8.6202981424857E+21
(PID.TID 0000.0001) %MON land_Tsrf_ave_G              =  -7.7550509255870E+00
(PID.TID 0000.0001) %MON land_Tsrf_ave_S              =  -7.0127240778908E+00
(PID.TID 0000.0001) %MON land_Tsrf_ave_T              =   1.1672372549317E+01
(PID.TID 0000.0001) %MON land_Tsrf_ave_N              =  -2.0968919277702E+01
(PID.TID 0000.0001) %MON land_Tsrf_min_S              =  -3.3927877713705E+01
(PID.TID 0000.0001) %MON land_Tsrf_min_T              =  -4.9406708152576E+00
(PID.TID 0000.0001) %MON land_Tsrf_min_N              =  -5.1998299396048E+01
(PID.TID 0000.0001) %MON land_Tsrf_max_S              =   2.2078309338264E+01
(PID.TID 0000.0001) %MON land_Tsrf_max_T              =   2.3158219257470E+01
(PID.TID 0000.0001) %MON land_Tsrf_max_N              =   1.0121338419459E+01
(PID.TID 0000.0001) %MON land_Tgr1_ave_G              =  -6.4733004308237E+00
(PID.TID 0000.0001) %MON land_Tgr1_ave_S              =  -6.6778384916031E+00
(PID.TID 0000.0001) %MON land_Tgr1_ave_T              =   1.1672372549317E+01
(PID.TID 0000.0001) %MON land_Tgr1_ave_N              =  -1.8524096291203E+01
(PID.TID 0000.0001) %MON land_Tgr1_min_S              =  -3.9162979831356E+01
(PID.TID 0000.0001) %MON land_Tgr1_min_T              =  -4.9406708152576E+00
(PID.TID 0000.0001) %MON land_Tgr1_min_N              =  -5.4820361769803E+01
(PID.TID 0000.0001) %MON land_Tgr1_max_S              =   2.2078309338264E+01
(PID.TID 0000.0001) %MON land_Tgr1_max_T              =   2.3158219257470E+01
(PID.TID 0000.0001) %MON land_Tgr1_max_N              =   1.0121338419459E+01
(PID.TID 0000.0001) %MON land_Tgr2_ave_G              =   4.2054432378859E+00
(PID.TID 0000.0001) %MON land_Tgr2_ave_S              =  -1.8728616229744E+01
(PID.TID 0000.0001) %MON land_Tgr2_ave_T              =   2.2011245436526E+01
(PID.TID 0000.0001) %MON land_Tgr2_ave_N              =  -2.4507865880968E-01
(PID.TID 0000.0001) %MON land_Tgr2_min_S              =  -6.4755799981026E+01
(PID.TID 0000.0001) %MON land_Tgr2_min_T              =  -9.7044522686311E+00
(PID.TID 0000.0001) %MON land_Tgr2_min_N              =  -4.0197214231923E+01
(PID.TID 0000.0001) %MON land_Tgr2_max_S              =   2.3360546703542E+01
(PID.TID 0000.0001) %MON land_Tgr2_max_T              =   3.1355929381010E+01
(PID.TID 0000.0001) %MON land_Tgr2_max_N              =   2.9826658407259E+01
(PID.TID 0000.0001) %MON land_grdW_ave_G              =   4.8684396910220E-01
(PID.TID 0000.0001) %MON land_grdW_ave_S              =   3.0860702319106E-01
(PID.TID 0000.0001) %MON land_grdW_ave_T              =   5.6439407857609E-01
(PID.TID 0000.0001) %MON land_grdW_ave_N              =   4.9287726594399E-01
(PID.TID 0000.0001) %MON land_grdW_min_S              =   2.6659322023952E-02
(PID.TID 0000.0001) %MON land_grdW_min_T              =   0.0000000000000E+00
(PID.TID 0000.0001) %MON land_grdW_min_N              =   0.0000000000000E+00
(PID.TID 0000.0001) // =======================================================
(PID.TID 0000.0001) // End MONITOR Land statistics
(PID.TID 0000.0001) // =======================================================
(PID.TID 0000.0001) // =======================================================
(PID.TID 0000.0001) // Begin MONITOR Therm.SeaIce statistics
(PID.TID 0000.0001) // =======================================================
(PID.TID 0000.0001) %MON thSI_time_sec                =   6.7500000000000E+03
(PID.TID 0000.0001) %MON thSI_Ice_Area_G              =   1.5008869708373E+11
(PID.TID 0000.0001) %MON thSI_Ice_Area_S              =   0.0000000000000E+00
(PID.TID 0000.0001) %MON thSI_Ice_Area_N              =   1.5008869708373E+11
(PID.TID 0000.0001) %MON thSI_IceH_ave_G              =   1.3118296162213E-01
(PID.TID 0000.0001) %MON thSI_IceH_ave_S              =   0.0000000000000E+00
(PID.TID 0000.0001) %MON thSI_IceH_ave_N              =   1.3118296162213E-01
(PID.TID 0000.0001) %MON thSI_IceH_max_S              =   0.0000000000000E+00
(PID.TID 0000.0001) %MON thSI_IceH_max_N              =   1.3930749030446E-01
(PID.TID 0000.0001) %MON thSI_SnwH_ave_G              =   0.0000000000000E+00
(PID.TID 0000.0001) %MON thSI_SnwH_ave_S              =   0.0000000000000E+00
(PID.TID 0000.0001) %MON thSI_SnwH_ave_N              =   0.0000000000000E+00
(PID.TID 0000.0001) %MON thSI_SnwH_max_S              =   0.0000000000000E+00
(PID.TID 0000.0001) %MON thSI_SnwH_max_N              =   0.0000000000000E+00
(PID.TID 0000.0001) %MON thSI_TotEnerg_G              =  -6.0314671644350E+18
(PID.TID 0000.0001) %MON thSI_Tsrf_ave_G              =  -7.6111922574900E+00
(PID.TID 0000.0001) %MON thSI_Tsrf_ave_S              =   0.0000000000000E+00
(PID.TID 0000.0001) %MON thSI_Tsrf_ave_N              =  -7.6111922574900E+00
(PID.TID 0000.0001) %MON thSI_Tsrf_min_S              =   0.0000000000000E+00
(PID.TID 0000.0001) %MON thSI_Tsrf_min_N              =  -7.7016074985968E+00
(PID.TID 0000.0001) %MON thSI_Tsrf_max_S              =   0.0000000000000E+00
(PID.TID 0000.0001) %MON thSI_Tsrf_max_N              =  -7.4474798595206E+00
(PID.TID 0000.0001) %MON thSI_Tic1_ave_G              =  -5.1536443539066E+00
(PID.TID 0000.0001) %MON thSI_Tic1_ave_S              =   0.0000000000000E+00
(PID.TID 0000.0001) %MON thSI_Tic1_ave_N              =  -5.1536443539066E+00
(PID.TID 0000.0001) %MON thSI_Tic1_min_S              =   0.0000000000000E+00
(PID.TID 0000.0001) %MON thSI_Tic1_min_N              =  -5.2377045809711E+00
(PID.TID 0000.0001) %MON thSI_Tic1_max_S              =   0.0000000000000E+00
(PID.TID 0000.0001) %MON thSI_Tic1_max_N              =  -5.0784355430202E+00
(PID.TID 0000.0001) %MON thSI_Tic2_ave_G              =  -2.5633446731459E+00
(PID.TID 0000.0001) %MON thSI_Tic2_ave_S              =   0.0000000000000E+00
(PID.TID 0000.0001) %MON thSI_Tic2_ave_N              =  -2.5633446731459E+00
(PID.TID 0000.0001) %MON thSI_Tic2_min_S              =   0.0000000000000E+00
(PID.TID 0000.0001) %MON thSI_Tic2_min_N              =  -2.6520209664968E+00
(PID.TID 0000.0001) %MON thSI_Tic2_max_S              =   0.0000000000000E+00
(PID.TID 0000.0001) %MON thSI_Tic2_max_N              =  -2.4856070891618E+00
(PID.TID 0000.0001) // =======================================================
(PID.TID 0000.0001) // End MONITOR Therm.SeaIce statistics
(PID.TID 0000.0001) // =======================================================
 cg2d: Sum(rhs),rhsMax =  -2.18278728425503E-11  2.56255641419332E+04
(PID.TID 0000.0001)                    cg2d_init_res =    1.30296291160866E+04
(PID.TID 0000.0001)                       cg2d_iters =    16
(PID.TID 0000.0001)                         cg2d_res =    8.73497674727542E-11
(PID.TID 0000.0001) // =======================================================
(PID.TID 0000.0001) // Begin MONITOR dynamic field statistics
(PID.TID 0000.0001) // =======================================================
(PID.TID 0000.0001) %MON time_tsnumber                =                    16
(PID.TID 0000.0001) %MON time_secondsf                =   7.2000000000000E+03
(PID.TID 0000.0001) %MON dynstat_eta_max              =   4.8915208412863E+03
(PID.TID 0000.0001) %MON dynstat_eta_min              =  -1.2988295256262E+03
(PID.TID 0000.0001) %MON dynstat_eta_mean             =   5.3017000677351E-14
(PID.TID 0000.0001) %MON dynstat_eta_sd               =   5.5141735744017E+02
(PID.TID 0000.0001) %MON dynstat_eta_del2             =   3.7559826487592E+01
(PID.TID 0000.0001) %MON dynstat_uvel_max             =   5.9585773015823E+00
(PID.TID 0000.0001) %MON dynstat_uvel_min             =  -6.6712336155809E+00
(PID.TID 0000.0001) %MON dynstat_uvel_mean            =  -9.4588385047644E-03
(PID.TID 0000.0001) %MON dynstat_uvel_sd              =   7.8900910171566E-01
(PID.TID 0000.0001) %MON dynstat_uvel_del2            =   2.0003561724226E-02
(PID.TID 0000.0001) %MON dynstat_vvel_max             =   6.0010946439786E+00
(PID.TID 0000.0001) %MON dynstat_vvel_min             =  -6.4403623028283E+00
(PID.TID 0000.0001) %MON dynstat_vvel_mean            =   2.3738257179804E-02
(PID.TID 0000.0001) %MON dynstat_vvel_sd              =   8.2349785159844E-01
(PID.TID 0000.0001) %MON dynstat_vvel_del2            =   2.0072906043840E-02
(PID.TID 0000.0001) %MON dynstat_wvel_max             =   1.5746663053899E-01
(PID.TID 0000.0001) %MON dynstat_wvel_min             =  -1.6764298122388E-01
(PID.TID 0000.0001) %MON dynstat_wvel_mean            =  -6.6502157564346E-04
(PID.TID 0000.0001) %MON dynstat_wvel_sd              =   8.4980335599361E-03
(PID.TID 0000.0001) %MON dynstat_wvel_del2            =   1.2833553130087E-03
(PID.TID 0000.0001) %MON dynstat_theta_max            =   4.3802885071814E+02
(PID.TID 0000.0001) %MON dynstat_theta_min            =   2.8570128665820E+02
(PID.TID 0000.0001) %MON dynstat_theta_mean           =   3.3170214782631E+02
(PID.TID 0000.0001) %MON dynstat_theta_sd             =   4.7435285500805E+01
(PID.TID 0000.0001) %MON dynstat_theta_del2           =   1.7898155680817E-02
(PID.TID 0000.0001) %MON dynstat_salt_max             =   3.8410121196159E+00
(PID.TID 0000.0001) %MON dynstat_salt_min             =  -3.2292908030035E-03
(PID.TID 0000.0001) %MON dynstat_salt_mean            =   5.9656093942929E-02
(PID.TID 0000.0001) %MON dynstat_salt_sd              =   2.4550670374989E-01
(PID.TID 0000.0001) %MON dynstat_salt_del2            =   7.8894970386484E-03
(PID.TID 0000.0001) %MON advcfl_uvel_max              =   9.4043843326544E-03
(PID.TID 0000.0001) %MON advcfl_vvel_max              =   9.2410011568244E-03
(PID.TID 0000.0001) %MON advcfl_wvel_max              =   4.0491419281454E-03
(PID.TID 0000.0001) %MON advcfl_W_hf_max              =   1.4324905115768E-02
(PID.TID 0000.0001) %MON pe_b_mean                    =  -1.1106798165110E+00
(PID.TID 0000.0001) %MON ke_max                       =   2.6954145277924E+01
(PID.TID 0000.0001) %MON ke_mean                      =   6.4630508055824E-01
(PID.TID 0000.0001) %MON ke_vol                       =   4.9523908919848E+19
(PID.TID 0000.0001) %MON vort_r_min                   =  -2.7536325084269E-05
(PID.TID 0000.0001) %MON vort_r_max                   =   1.4904971789367E-05
(PID.TID 0000.0001) %MON vort_a_mean                  =   6.7059142261904E-08
(PID.TID 0000.0001) %MON vort_a_sd                    =   8.3738302111658E-05
(PID.TID 0000.0001) %MON vort_p_mean                  =   6.8806690257052E-08
(PID.TID 0000.0001) %MON vort_p_sd                    =   9.1899625450477E-05
(PID.TID 0000.0001) %MON surfExpan_theta_mean         =   6.2000404819937E-02
(PID.TID 0000.0001) %MON surfExpan_salt_mean          =  -3.0275633057287E-04
(PID.TID 0000.0001) %MON surfExpan_Heat_mean          =  -5.5121525839232E+00
(PID.TID 0000.0001) %MON En_Budget_T2PE_mean          =   1.0075358145824E+01
(PID.TID 0000.0001) // =======================================================
(PID.TID 0000.0001) // End MONITOR dynamic field statistics
(PID.TID 0000.0001) // =======================================================
(PID.TID 0000.0001) // =======================================================
(PID.TID 0000.0001) // Begin MONITOR Land statistics
(PID.TID 0000.0001) // =======================================================
(PID.TID 0000.0001) %MON land_time_sec                =   7.2000000000000E+03
(PID.TID 0000.0001) %MON land_SnwH_ave_G              =   1.5323234075146E-01
(PID.TID 0000.0001) %MON land_SnwH_ave_S              =   5.5904901476138E-01
(PID.TID 0000.0001) %MON land_SnwH_ave_T              =   0.0000000000000E+00
(PID.TID 0000.0001) %MON land_SnwH_ave_N              =   1.2391193505038E-01
(PID.TID 0000.0001) %MON land_SnwH_max_S              =   9.9999146274371E-01
(PID.TID 0000.0001) %MON land_SnwH_max_T              =   0.0000000000000E+00
(PID.TID 0000.0001) %MON land_SnwH_max_N              =   9.9999890873221E-01
(PID.TID 0000.0001) %MON land_TotEnerg_G              =  -6.3340964681938E+21
(PID.TID 0000.0001) %MON land_TotEnerg_S              =  -5.0010180606723E+21
(PID.TID 0000.0001) %MON land_TotEnerg_T              =   7.2879534111756E+21
(PID.TID 0000.0001) %MON land_TotEnerg_N              =  -8.6210318186970E+21
(PID.TID 0000.0001) %MON land_Tsrf_ave_G              =  -7.8575384674760E+00
(PID.TID 0000.0001) %MON land_Tsrf_ave_S              =  -7.1092321377822E+00
(PID.TID 0000.0001) %MON land_Tsrf_ave_T              =   1.1463507647317E+01
(PID.TID 0000.0001) %MON land_Tsrf_ave_N              =  -2.1002310854541E+01
(PID.TID 0000.0001) %MON land_Tsrf_min_S              =  -3.3875331855276E+01
(PID.TID 0000.0001) %MON land_Tsrf_min_T              =  -4.7856637607885E+00
(PID.TID 0000.0001) %MON land_Tsrf_min_N              =  -5.2014291355331E+01
(PID.TID 0000.0001) %MON land_Tsrf_max_S              =   2.1807444404538E+01
(PID.TID 0000.0001) %MON land_Tsrf_max_T              =   2.2770223002523E+01
(PID.TID 0000.0001) %MON land_Tsrf_max_N              =   9.9141857982854E+00
(PID.TID 0000.0001) %MON land_Tgr1_ave_G              =  -6.5766406659119E+00
(PID.TID 0000.0001) %MON land_Tgr1_ave_S              =  -6.7570375982005E+00
(PID.TID 0000.0001) %MON land_Tgr1_ave_T              =   1.1463507647317E+01
(PID.TID 0000.0001) %MON land_Tgr1_ave_N              =  -1.8564801492143E+01
(PID.TID 0000.0001) %MON land_Tgr1_min_S              =  -3.9174079643689E+01
(PID.TID 0000.0001) %MON land_Tgr1_min_T              =  -4.7856637607885E+00
(PID.TID 0000.0001) %MON land_Tgr1_min_N              =  -5.4807657274730E+01
(PID.TID 0000.0001) %MON land_Tgr1_max_S              =   2.1807444404538E+01
(PID.TID 0000.0001) %MON land_Tgr1_max_T              =   2.2770223002523E+01
(PID.TID 0000.0001) %MON land_Tgr1_max_N              =   9.9141857982854E+00
(PID.TID 0000.0001) %MON land_Tgr2_ave_G              =   4.2052779856168E+00
(PID.TID 0000.0001) %MON land_Tgr2_ave_S              =  -1.8728415954248E+01
(PID.TID 0000.0001) %MON land_Tgr2_ave_T              =   2.2011073510021E+01
(PID.TID 0000.0001) %MON land_Tgr2_ave_N              =  -2.4535802920009E-01
(PID.TID 0000.0001) %MON land_Tgr2_min_S              =  -6.4755368628148E+01
(PID.TID 0000.0001) %MON land_Tgr2_min_T              =  -9.7043901179592E+00
(PID.TID 0000.0001) %MON land_Tgr2_min_N              =  -4.0197451892934E+01
(PID.TID 0000.0001) %MON land_Tgr2_max_S              =   2.3360510159798E+01
(PID.TID 0000.0001) %MON land_Tgr2_max_T              =   3.1355532042216E+01
(PID.TID 0000.0001) %MON land_Tgr2_max_N              =   2.9826184538537E+01
(PID.TID 0000.0001) %MON land_grdW_ave_G              =   4.8683437069641E-01
(PID.TID 0000.0001) %MON land_grdW_ave_S              =   3.0859819638601E-01
(PID.TID 0000.0001) %MON land_grdW_ave_T              =   5.6437020944821E-01
(PID.TID 0000.0001) %MON land_grdW_ave_N              =   4.9287694680414E-01
(PID.TID 0000.0001) %MON land_grdW_min_S              =   2.6739957514643E-02
(PID.TID 0000.0001) %MON land_grdW_min_T              =   0.0000000000000E+00
(PID.TID 0000.0001) %MON land_grdW_min_N              =   0.0000000000000E+00
(PID.TID 0000.0001) // =======================================================
(PID.TID 0000.0001) // End MONITOR Land statistics
(PID.TID 0000.0001) // =======================================================
(PID.TID 0000.0001) // =======================================================
(PID.TID 0000.0001) // Begin MONITOR Therm.SeaIce statistics
(PID.TID 0000.0001) // =======================================================
(PID.TID 0000.0001) %MON thSI_time_sec                =   7.2000000000000E+03
(PID.TID 0000.0001) %MON thSI_Ice_Area_G              =   1.5786736139856E+11
(PID.TID 0000.0001) %MON thSI_Ice_Area_S              =   0.0000000000000E+00
(PID.TID 0000.0001) %MON thSI_Ice_Area_N              =   1.5786736139856E+11
(PID.TID 0000.0001) %MON thSI_IceH_ave_G              =   1.3359900511254E-01
(PID.TID 0000.0001) %MON thSI_IceH_ave_S              =   0.0000000000000E+00
(PID.TID 0000.0001) %MON thSI_IceH_ave_N              =   1.3359900511254E-01
(PID.TID 0000.0001) %MON thSI_IceH_max_S              =   0.0000000000000E+00
(PID.TID 0000.0001) %MON thSI_IceH_max_N              =   1.4236457501105E-01
(PID.TID 0000.0001) %MON thSI_SnwH_ave_G              =   0.0000000000000E+00
(PID.TID 0000.0001) %MON thSI_SnwH_ave_S              =   0.0000000000000E+00
(PID.TID 0000.0001) %MON thSI_SnwH_ave_N              =   0.0000000000000E+00
(PID.TID 0000.0001) %MON thSI_SnwH_max_S              =   0.0000000000000E+00
(PID.TID 0000.0001) %MON thSI_SnwH_max_N              =   0.0000000000000E+00
(PID.TID 0000.0001) %MON thSI_TotEnerg_G              =  -6.4665295420748E+18
(PID.TID 0000.0001) %MON thSI_Tsrf_ave_G              =  -7.7960307834922E+00
(PID.TID 0000.0001) %MON thSI_Tsrf_ave_S              =   0.0000000000000E+00
(PID.TID 0000.0001) %MON thSI_Tsrf_ave_N              =  -7.7960307834922E+00
(PID.TID 0000.0001) %MON thSI_Tsrf_min_S              =   0.0000000000000E+00
(PID.TID 0000.0001) %MON thSI_Tsrf_min_N              =  -7.8886675711429E+00
(PID.TID 0000.0001) %MON thSI_Tsrf_max_S              =   0.0000000000000E+00
(PID.TID 0000.0001) %MON thSI_Tsrf_max_N              =  -7.6242252088238E+00
(PID.TID 0000.0001) %MON thSI_Tic1_ave_G              =  -5.3286894430171E+00
(PID.TID 0000.0001) %MON thSI_Tic1_ave_S              =   0.0000000000000E+00
(PID.TID 0000.0001) %MON thSI_Tic1_ave_N              =  -5.3286894430171E+00
(PID.TID 0000.0001) %MON thSI_Tic1_min_S              =   0.0000000000000E+00
(PID.TID 0000.0001) %MON thSI_Tic1_min_N              =  -5.4144822086154E+00
(PID.TID 0000.0001) %MON thSI_Tic1_max_S              =   0.0000000000000E+00
(PID.TID 0000.0001) %MON thSI_Tic1_max_N              =  -5.2516808644781E+00
(PID.TID 0000.0001) %MON thSI_Tic2_ave_G              =  -2.6195800729097E+00
(PID.TID 0000.0001) %MON thSI_Tic2_ave_S              =   0.0000000000000E+00
(PID.TID 0000.0001) %MON thSI_Tic2_ave_N              =  -2.6195800729097E+00
(PID.TID 0000.0001) %MON thSI_Tic2_min_S              =   0.0000000000000E+00
(PID.TID 0000.0001) %MON thSI_Tic2_min_N              =  -2.7125378107715E+00
(PID.TID 0000.0001) %MON thSI_Tic2_max_S              =   0.0000000000000E+00
(PID.TID 0000.0001) %MON thSI_Tic2_max_N              =  -2.5381374542133E+00
(PID.TID 0000.0001) // =======================================================
(PID.TID 0000.0001) // End MONITOR Therm.SeaIce statistics
(PID.TID 0000.0001) // =======================================================
 cg2d: Sum(rhs),rhsMax =   9.45874489843845E-11  2.57209117921260E+04
(PID.TID 0000.0001)                    cg2d_init_res =    1.25788895768944E+04
(PID.TID 0000.0001)                       cg2d_iters =    16
(PID.TID 0000.0001)                         cg2d_res =    8.55898168219150E-11
(PID.TID 0000.0001) // =======================================================
(PID.TID 0000.0001) // Begin MONITOR dynamic field statistics
(PID.TID 0000.0001) // =======================================================
(PID.TID 0000.0001) %MON time_tsnumber                =                    17
(PID.TID 0000.0001) %MON time_secondsf                =   7.6500000000000E+03
(PID.TID 0000.0001) %MON dynstat_eta_max              =   4.9139315727470E+03
(PID.TID 0000.0001) %MON dynstat_eta_min              =  -1.2174899278505E+03
(PID.TID 0000.0001) %MON dynstat_eta_mean             =  -1.3254250169338E-14
(PID.TID 0000.0001) %MON dynstat_eta_sd               =   5.5762457101658E+02
(PID.TID 0000.0001) %MON dynstat_eta_del2             =   3.7423983948552E+01
(PID.TID 0000.0001) %MON dynstat_uvel_max             =   6.0144996253278E+00
(PID.TID 0000.0001) %MON dynstat_uvel_min             =  -6.6783518942084E+00
(PID.TID 0000.0001) %MON dynstat_uvel_mean            =  -9.1654739918429E-03
(PID.TID 0000.0001) %MON dynstat_uvel_sd              =   7.9569090925196E-01
(PID.TID 0000.0001) %MON dynstat_uvel_del2            =   2.0459470099613E-02
(PID.TID 0000.0001) %MON dynstat_vvel_max             =   5.3706813112293E+00
(PID.TID 0000.0001) %MON dynstat_vvel_min             =  -5.9473788495323E+00
(PID.TID 0000.0001) %MON dynstat_vvel_mean            =   2.5105893943525E-02
(PID.TID 0000.0001) %MON dynstat_vvel_sd              =   8.1457017018808E-01
(PID.TID 0000.0001) %MON dynstat_vvel_del2            =   2.0383654476516E-02
(PID.TID 0000.0001) %MON dynstat_wvel_max             =   1.6242278417918E-01
(PID.TID 0000.0001) %MON dynstat_wvel_min             =  -1.2803522918240E-01
(PID.TID 0000.0001) %MON dynstat_wvel_mean            =  -5.0691712512250E-04
(PID.TID 0000.0001) %MON dynstat_wvel_sd              =   8.2239493901511E-03
(PID.TID 0000.0001) %MON dynstat_wvel_del2            =   1.3165715646663E-03
(PID.TID 0000.0001) %MON dynstat_theta_max            =   4.3812493129028E+02
(PID.TID 0000.0001) %MON dynstat_theta_min            =   2.8546823528055E+02
(PID.TID 0000.0001) %MON dynstat_theta_mean           =   3.3170044791074E+02
(PID.TID 0000.0001) %MON dynstat_theta_sd             =   4.7437193187210E+01
(PID.TID 0000.0001) %MON dynstat_theta_del2           =   1.8744313412157E-02
(PID.TID 0000.0001) %MON dynstat_salt_max             =   3.9392880329992E+00
(PID.TID 0000.0001) %MON dynstat_salt_min             =  -3.5924855321995E-03
(PID.TID 0000.0001) %MON dynstat_salt_mean            =   6.3154250245267E-02
(PID.TID 0000.0001) %MON dynstat_salt_sd              =   2.5863398964346E-01
(PID.TID 0000.0001) %MON dynstat_salt_del2            =   8.2463756347569E-03
(PID.TID 0000.0001) %MON advcfl_uvel_max              =   9.4144189127422E-03
(PID.TID 0000.0001) %MON advcfl_vvel_max              =   8.4776769626775E-03
(PID.TID 0000.0001) %MON advcfl_wvel_max              =   3.7229221269294E-03
(PID.TID 0000.0001) %MON advcfl_W_hf_max              =   1.3147657291980E-02
(PID.TID 0000.0001) %MON pe_b_mean                    =  -1.1192707745672E+00
(PID.TID 0000.0001) %MON ke_max                       =   2.5191840764228E+01
(PID.TID 0000.0001) %MON ke_mean                      =   6.4431306771109E-01
(PID.TID 0000.0001) %MON ke_vol                       =   4.9523908919848E+19
(PID.TID 0000.0001) %MON vort_r_min                   =  -2.6319729150570E-05
(PID.TID 0000.0001) %MON vort_r_max                   =   1.3454605229471E-05
(PID.TID 0000.0001) %MON vort_a_mean                  =   6.7059142261950E-08
(PID.TID 0000.0001) %MON vort_a_sd                    =   8.3740978307328E-05
(PID.TID 0000.0001) %MON vort_p_mean                  =   6.8808334506050E-08
(PID.TID 0000.0001) %MON vort_p_sd                    =   9.1907433476152E-05
(PID.TID 0000.0001) %MON surfExpan_theta_mean         =   4.6322274151010E-02
(PID.TID 0000.0001) %MON surfExpan_salt_mean          =  -3.5131274184610E-04
(PID.TID 0000.0001) %MON surfExpan_Heat_mean          =  -4.2225447904064E+00
(PID.TID 0000.0001) %MON En_Budget_T2PE_mean          =   7.6367506635973E+00
(PID.TID 0000.0001) // =======================================================
(PID.TID 0000.0001) // End MONITOR dynamic field statistics
(PID.TID 0000.0001) // =======================================================
(PID.TID 0000.0001) // =======================================================
(PID.TID 0000.0001) // Begin MONITOR Land statistics
(PID.TID 0000.0001) // =======================================================
(PID.TID 0000.0001) %MON land_time_sec                =   7.6500000000000E+03
(PID.TID 0000.0001) %MON land_SnwH_ave_G              =   1.5323136377229E-01
(PID.TID 0000.0001) %MON land_SnwH_ave_S              =   5.5904813565786E-01
(PID.TID 0000.0001) %MON land_SnwH_ave_T              =   0.0000000000000E+00
(PID.TID 0000.0001) %MON land_SnwH_ave_N              =   1.2391027392300E-01
(PID.TID 0000.0001) %MON land_SnwH_max_S              =   9.9999089925325E-01
(PID.TID 0000.0001) %MON land_SnwH_max_T              =   0.0000000000000E+00
(PID.TID 0000.0001) %MON land_SnwH_max_N              =   9.9999884495555E-01
(PID.TID 0000.0001) %MON land_TotEnerg_G              =  -6.3366735764937E+21
(PID.TID 0000.0001) %MON land_TotEnerg_S              =  -5.0012399784241E+21
(PID.TID 0000.0001) %MON land_TotEnerg_T              =   7.2863148692202E+21
(PID.TID 0000.0001) %MON land_TotEnerg_N              =  -8.6217484672899E+21
(PID.TID 0000.0001) %MON land_Tsrf_ave_G              =  -7.9489776994332E+00
(PID.TID 0000.0001) %MON land_Tsrf_ave_S              =  -7.1876488348596E+00
(PID.TID 0000.0001) %MON land_Tsrf_ave_T              =   1.1274737730873E+01
(PID.TID 0000.0001) %MON land_Tsrf_ave_N              =  -2.1032979948811E+01
(PID.TID 0000.0001) %MON land_Tsrf_min_S              =  -3.3821861101705E+01
(PID.TID 0000.0001) %MON land_Tsrf_min_T              =  -4.6354636838237E+00
(PID.TID 0000.0001) %MON land_Tsrf_min_N              =  -5.2026247932692E+01
(PID.TID 0000.0001) %MON land_Tsrf_max_S              =   2.1565890406394E+01
(PID.TID 0000.0001) %MON land_Tsrf_max_T              =   2.2419492825018E+01
(PID.TID 0000.0001) %MON land_Tsrf_max_N              =   9.7172990216057E+00
(PID.TID 0000.0001) %MON land_Tgr1_ave_G              =  -6.6705070200600E+00
(PID.TID 0000.0001) %MON land_Tgr1_ave_S              =  -6.8276167489217E+00
(PID.TID 0000.0001) %MON land_Tgr1_ave_T              =   1.1274737730873E+01
(PID.TID 0000.0001) %MON land_Tgr1_ave_N              =  -1.8602848265356E+01
(PID.TID 0000.0001) %MON land_Tgr1_min_S              =  -3.9185206594701E+01
(PID.TID 0000.0001) %MON land_Tgr1_min_T              =  -4.6354636838237E+00
(PID.TID 0000.0001) %MON land_Tgr1_min_N              =  -5.4794985405502E+01
(PID.TID 0000.0001) %MON land_Tgr1_max_S              =   2.1565890406394E+01
(PID.TID 0000.0001) %MON land_Tgr1_max_T              =   2.2419492825018E+01
(PID.TID 0000.0001) %MON land_Tgr1_max_N              =   9.7172990216057E+00
(PID.TID 0000.0001) %MON land_Tgr2_ave_G              =   4.2051112567369E+00
(PID.TID 0000.0001) %MON land_Tgr2_ave_S              =  -1.8728216798378E+01
(PID.TID 0000.0001) %MON land_Tgr2_ave_T              =   2.2010898692697E+01
(PID.TID 0000.0001) %MON land_Tgr2_ave_N              =  -2.4563804763819E-01
(PID.TID 0000.0001) %MON land_Tgr2_min_S              =  -6.4754937487692E+01
(PID.TID 0000.0001) %MON land_Tgr2_min_T              =  -9.7043260704095E+00
(PID.TID 0000.0001) %MON land_Tgr2_min_N              =  -4.0197689312807E+01
(PID.TID 0000.0001) %MON land_Tgr2_max_S              =   2.3360469156093E+01
(PID.TID 0000.0001) %MON land_Tgr2_max_T              =   3.1355129974886E+01
(PID.TID 0000.0001) %MON land_Tgr2_max_N              =   2.9825703885802E+01
(PID.TID 0000.0001) %MON land_grdW_ave_G              =   4.8682507433451E-01
(PID.TID 0000.0001) %MON land_grdW_ave_S              =   3.0858953482667E-01
(PID.TID 0000.0001) %MON land_grdW_ave_T              =   5.6434715513495E-01
(PID.TID 0000.0001) %MON land_grdW_ave_N              =   4.9287663167145E-01
(PID.TID 0000.0001) %MON land_grdW_min_S              =   2.6822085508353E-02
(PID.TID 0000.0001) %MON land_grdW_min_T              =   0.0000000000000E+00
(PID.TID 0000.0001) %MON land_grdW_min_N              =   0.0000000000000E+00
(PID.TID 0000.0001) // =======================================================
(PID.TID 0000.0001) // End MONITOR Land statistics
(PID.TID 0000.0001) // =======================================================
(PID.TID 0000.0001) // =======================================================
(PID.TID 0000.0001) // Begin MONITOR Therm.SeaIce statistics
(PID.TID 0000.0001) // =======================================================
(PID.TID 0000.0001) %MON thSI_time_sec                =   7.6500000000000E+03
(PID.TID 0000.0001) %MON thSI_Ice_Area_G              =   1.5983770967357E+11
(PID.TID 0000.0001) %MON thSI_Ice_Area_S              =   0.0000000000000E+00
(PID.TID 0000.0001) %MON thSI_Ice_Area_N              =   1.5983770967357E+11
(PID.TID 0000.0001) %MON thSI_IceH_ave_G              =   1.3425249936646E-01
(PID.TID 0000.0001) %MON thSI_IceH_ave_S              =   0.0000000000000E+00
(PID.TID 0000.0001) %MON thSI_IceH_ave_N              =   1.3425249936646E-01
(PID.TID 0000.0001) %MON thSI_IceH_max_S              =   0.0000000000000E+00
(PID.TID 0000.0001) %MON thSI_IceH_max_N              =   1.4309623711197E-01
(PID.TID 0000.0001) %MON thSI_SnwH_ave_G              =   0.0000000000000E+00
(PID.TID 0000.0001) %MON thSI_SnwH_ave_S              =   0.0000000000000E+00
(PID.TID 0000.0001) %MON thSI_SnwH_ave_N              =   0.0000000000000E+00
(PID.TID 0000.0001) %MON thSI_SnwH_max_S              =   0.0000000000000E+00
(PID.TID 0000.0001) %MON thSI_SnwH_max_N              =   0.0000000000000E+00
(PID.TID 0000.0001) %MON thSI_TotEnerg_G              =  -6.5853538497804E+18
(PID.TID 0000.0001) %MON thSI_Tsrf_ave_G              =  -7.9671934173892E+00
(PID.TID 0000.0001) %MON thSI_Tsrf_ave_S              =   0.0000000000000E+00
(PID.TID 0000.0001) %MON thSI_Tsrf_ave_N              =  -7.9671934173892E+00
(PID.TID 0000.0001) %MON thSI_Tsrf_min_S              =   0.0000000000000E+00
(PID.TID 0000.0001) %MON thSI_Tsrf_min_N              =  -8.0621744292622E+00
(PID.TID 0000.0001) %MON thSI_Tsrf_max_S              =   0.0000000000000E+00
(PID.TID 0000.0001) %MON thSI_Tsrf_max_N              =  -7.7864380478728E+00
(PID.TID 0000.0001) %MON thSI_Tic1_ave_G              =  -5.4897872049762E+00
(PID.TID 0000.0001) %MON thSI_Tic1_ave_S              =   0.0000000000000E+00
(PID.TID 0000.0001) %MON thSI_Tic1_ave_N              =  -5.4897872049762E+00
(PID.TID 0000.0001) %MON thSI_Tic1_min_S              =   0.0000000000000E+00
(PID.TID 0000.0001) %MON thSI_Tic1_min_N              =  -5.5764253088377E+00
(PID.TID 0000.0001) %MON thSI_Tic1_max_S              =   0.0000000000000E+00
(PID.TID 0000.0001) %MON thSI_Tic1_max_N              =  -5.4115229055795E+00
(PID.TID 0000.0001) %MON thSI_Tic2_ave_G              =  -2.6717928848228E+00
(PID.TID 0000.0001) %MON thSI_Tic2_ave_S              =   0.0000000000000E+00
(PID.TID 0000.0001) %MON thSI_Tic2_ave_N              =  -2.6717928848228E+00
(PID.TID 0000.0001) %MON thSI_Tic2_min_S              =   0.0000000000000E+00
(PID.TID 0000.0001) %MON thSI_Tic2_min_N              =  -2.7685141350819E+00
(PID.TID 0000.0001) %MON thSI_Tic2_max_S              =   0.0000000000000E+00
(PID.TID 0000.0001) %MON thSI_Tic2_max_N              =  -2.5868273519692E+00
(PID.TID 0000.0001) // =======================================================
(PID.TID 0000.0001) // End MONITOR Therm.SeaIce statistics
(PID.TID 0000.0001) // =======================================================
 cg2d: Sum(rhs),rhsMax =   1.74622982740402E-10  2.59651744087296E+04
(PID.TID 0000.0001)                    cg2d_init_res =    1.22879271239155E+04
(PID.TID 0000.0001)                       cg2d_iters =    16
(PID.TID 0000.0001)                         cg2d_res =    8.45946714773977E-11
(PID.TID 0000.0001) // =======================================================
(PID.TID 0000.0001) // Begin MONITOR dynamic field statistics
(PID.TID 0000.0001) // =======================================================
(PID.TID 0000.0001) %MON time_tsnumber                =                    18
(PID.TID 0000.0001) %MON time_secondsf                =   8.1000000000000E+03
(PID.TID 0000.0001) %MON dynstat_eta_max              =   4.8630003323617E+03
(PID.TID 0000.0001) %MON dynstat_eta_min              =  -1.1321163667115E+03
(PID.TID 0000.0001) %MON dynstat_eta_mean             =  -1.2049318335762E-15
(PID.TID 0000.0001) %MON dynstat_eta_sd               =   5.6110998047045E+02
(PID.TID 0000.0001) %MON dynstat_eta_del2             =   3.7274033514500E+01
(PID.TID 0000.0001) %MON dynstat_uvel_max             =   6.0446785889110E+00
(PID.TID 0000.0001) %MON dynstat_uvel_min             =  -6.5303092315632E+00
(PID.TID 0000.0001) %MON dynstat_uvel_mean            =  -8.5351990345851E-03
(PID.TID 0000.0001) %MON dynstat_uvel_sd              =   8.0355965204586E-01
(PID.TID 0000.0001) %MON dynstat_uvel_del2            =   2.1017660167528E-02
(PID.TID 0000.0001) %MON dynstat_vvel_max             =   4.8027303438232E+00
(PID.TID 0000.0001) %MON dynstat_vvel_min             =  -5.8076574559477E+00
(PID.TID 0000.0001) %MON dynstat_vvel_mean            =   2.6299249863737E-02
(PID.TID 0000.0001) %MON dynstat_vvel_sd              =   8.0745742939505E-01
(PID.TID 0000.0001) %MON dynstat_vvel_del2            =   2.0749808112645E-02
(PID.TID 0000.0001) %MON dynstat_wvel_max             =   1.6941535385973E-01
(PID.TID 0000.0001) %MON dynstat_wvel_min             =  -1.0782204395080E-01
(PID.TID 0000.0001) %MON dynstat_wvel_mean            =  -3.5067053774536E-04
(PID.TID 0000.0001) %MON dynstat_wvel_sd              =   8.2341232627252E-03
(PID.TID 0000.0001) %MON dynstat_wvel_del2            =   1.3619745687660E-03
(PID.TID 0000.0001) %MON dynstat_theta_max            =   4.3819979072575E+02
(PID.TID 0000.0001) %MON dynstat_theta_min            =   2.8523701596876E+02
(PID.TID 0000.0001) %MON dynstat_theta_mean           =   3.3169870568354E+02
(PID.TID 0000.0001) %MON dynstat_theta_sd             =   4.7439126091134E+01
(PID.TID 0000.0001) %MON dynstat_theta_del2           =   1.9576902427296E-02
(PID.TID 0000.0001) %MON dynstat_salt_max             =   4.0301227541618E+00
(PID.TID 0000.0001) %MON dynstat_salt_min             =  -3.9764385986302E-03
(PID.TID 0000.0001) %MON dynstat_salt_mean            =   6.6635389869538E-02
(PID.TID 0000.0001) %MON dynstat_salt_sd              =   2.7159337713269E-01
(PID.TID 0000.0001) %MON dynstat_salt_del2            =   8.5916798947202E-03
(PID.TID 0000.0001) %MON advcfl_uvel_max              =   9.2057243627727E-03
(PID.TID 0000.0001) %MON advcfl_vvel_max              =   8.2785114362240E-03
(PID.TID 0000.0001) %MON advcfl_wvel_max              =   3.3295653991346E-03
(PID.TID 0000.0001) %MON advcfl_W_hf_max              =   1.2147254412177E-02
(PID.TID 0000.0001) %MON pe_b_mean                    =  -1.1296976941992E+00
(PID.TID 0000.0001) %MON ke_max                       =   2.3979589416380E+01
(PID.TID 0000.0001) %MON ke_mean                      =   6.4484264982980E-01
(PID.TID 0000.0001) %MON ke_vol                       =   4.9523908919847E+19
(PID.TID 0000.0001) %MON vort_r_min                   =  -2.4734902929187E-05
(PID.TID 0000.0001) %MON vort_r_max                   =   1.1599545640794E-05
(PID.TID 0000.0001) %MON vort_a_mean                  =   6.7059142262075E-08
(PID.TID 0000.0001) %MON vort_a_sd                    =   8.3743674350012E-05
(PID.TID 0000.0001) %MON vort_p_mean                  =   6.8809683348392E-08
(PID.TID 0000.0001) %MON vort_p_sd                    =   9.1910514782051E-05
(PID.TID 0000.0001) %MON surfExpan_theta_mean         =   3.0911538855497E-02
(PID.TID 0000.0001) %MON surfExpan_salt_mean          =  -4.0600166625630E-04
(PID.TID 0000.0001) %MON surfExpan_Heat_mean          =  -2.9471043569924E+00
(PID.TID 0000.0001) %MON En_Budget_T2PE_mean          =   5.2309572014456E+00
(PID.TID 0000.0001) // =======================================================
(PID.TID 0000.0001) // End MONITOR dynamic field statistics
(PID.TID 0000.0001) // =======================================================
(PID.TID 0000.0001) // =======================================================
(PID.TID 0000.0001) // Begin MONITOR Land statistics
(PID.TID 0000.0001) // =======================================================
(PID.TID 0000.0001) %MON land_time_sec                =   8.1000000000000E+03
(PID.TID 0000.0001) %MON land_SnwH_ave_G              =   1.5323039165671E-01
(PID.TID 0000.0001) %MON land_SnwH_ave_S              =   5.5904726334252E-01
(PID.TID 0000.0001) %MON land_SnwH_ave_T              =   0.0000000000000E+00
(PID.TID 0000.0001) %MON land_SnwH_ave_N              =   1.2390862028262E-01
(PID.TID 0000.0001) %MON land_SnwH_max_S              =   9.9999033302013E-01
(PID.TID 0000.0001) %MON land_SnwH_max_T              =   0.0000000000000E+00
(PID.TID 0000.0001) %MON land_SnwH_max_N              =   9.9999878127782E-01
(PID.TID 0000.0001) %MON land_TotEnerg_G              =  -6.3390521698255E+21
(PID.TID 0000.0001) %MON land_TotEnerg_S              =  -5.0014347668943E+21
(PID.TID 0000.0001) %MON land_TotEnerg_T              =   7.2848314767025E+21
(PID.TID 0000.0001) %MON land_TotEnerg_N              =  -8.6224488796337E+21
(PID.TID 0000.0001) %MON land_Tsrf_ave_G              =  -8.0301415687518E+00
(PID.TID 0000.0001) %MON land_Tsrf_ave_S              =  -7.2469946471689E+00
(PID.TID 0000.0001) %MON land_Tsrf_ave_T              =   1.1104229243901E+01
(PID.TID 0000.0001) %MON land_Tsrf_ave_N              =  -2.1061559754796E+01
(PID.TID 0000.0001) %MON land_Tsrf_min_S              =  -3.3780229171885E+01
(PID.TID 0000.0001) %MON land_Tsrf_min_T              =  -4.4898619987645E+00
(PID.TID 0000.0001) %MON land_Tsrf_min_N              =  -5.2035480312507E+01
(PID.TID 0000.0001) %MON land_Tsrf_max_S              =   2.1350711555921E+01
(PID.TID 0000.0001) %MON land_Tsrf_max_T              =   2.2102159885425E+01
(PID.TID 0000.0001) %MON land_Tsrf_max_N              =   9.5303841255528E+00
(PID.TID 0000.0001) %MON land_Tgr1_ave_G              =  -6.7558669983391E+00
(PID.TID 0000.0001) %MON land_Tgr1_ave_S              =  -6.8903661766737E+00
(PID.TID 0000.0001) %MON land_Tgr1_ave_T              =   1.1104229243901E+01
(PID.TID 0000.0001) %MON land_Tgr1_ave_N              =  -1.8638683298528E+01
(PID.TID 0000.0001) %MON land_Tgr1_min_S              =  -3.9196359417879E+01
(PID.TID 0000.0001) %MON land_Tgr1_min_T              =  -4.4898619987645E+00
(PID.TID 0000.0001) %MON land_Tgr1_min_N              =  -5.4782343455980E+01
(PID.TID 0000.0001) %MON land_Tgr1_max_S              =   2.1350711555921E+01
(PID.TID 0000.0001) %MON land_Tgr1_max_T              =   2.2102159885425E+01
(PID.TID 0000.0001) %MON land_Tgr1_max_N              =   9.5303841255528E+00
(PID.TID 0000.0001) %MON land_Tgr2_ave_G              =   4.2049431932816E+00
(PID.TID 0000.0001) %MON land_Tgr2_ave_S              =  -1.8728018638469E+01
(PID.TID 0000.0001) %MON land_Tgr2_ave_T              =   2.2010721280390E+01
(PID.TID 0000.0001) %MON land_Tgr2_ave_N              =  -2.4591866883337E-01
(PID.TID 0000.0001) %MON land_Tgr2_min_S              =  -6.4754506558639E+01
(PID.TID 0000.0001) %MON land_Tgr2_min_T              =  -9.7042601841264E+00
(PID.TID 0000.0001) %MON land_Tgr2_min_N              =  -4.0197926492544E+01
(PID.TID 0000.0001) %MON land_Tgr2_max_S              =   2.3360424143388E+01
(PID.TID 0000.0001) %MON land_Tgr2_max_T              =   3.1354723497738E+01
(PID.TID 0000.0001) %MON land_Tgr2_max_N              =   2.9825216694844E+01
(PID.TID 0000.0001) %MON land_grdW_ave_G              =   4.8681604755543E-01
(PID.TID 0000.0001) %MON land_grdW_ave_S              =   3.0858102811634E-01
(PID.TID 0000.0001) %MON land_grdW_ave_T              =   5.6432482487983E-01
(PID.TID 0000.0001) %MON land_grdW_ave_N              =   4.9287631985528E-01
(PID.TID 0000.0001) %MON land_grdW_min_S              =   2.6905457555439E-02
(PID.TID 0000.0001) %MON land_grdW_min_T              =   0.0000000000000E+00
(PID.TID 0000.0001) %MON land_grdW_min_N              =   0.0000000000000E+00
(PID.TID 0000.0001) // =======================================================
(PID.TID 0000.0001) // End MONITOR Land statistics
(PID.TID 0000.0001) // =======================================================
(PID.TID 0000.0001) // =======================================================
(PID.TID 0000.0001) // Begin MONITOR Therm.SeaIce statistics
(PID.TID 0000.0001) // =======================================================
(PID.TID 0000.0001) %MON thSI_time_sec                =   8.1000000000000E+03
(PID.TID 0000.0001) %MON thSI_Ice_Area_G              =   1.6178823119642E+11
(PID.TID 0000.0001) %MON thSI_Ice_Area_S              =   0.0000000000000E+00
(PID.TID 0000.0001) %MON thSI_Ice_Area_N              =   1.6178823119642E+11
(PID.TID 0000.0001) %MON thSI_IceH_ave_G              =   1.3491220848151E-01
(PID.TID 0000.0001) %MON thSI_IceH_ave_S              =   0.0000000000000E+00
(PID.TID 0000.0001) %MON thSI_IceH_ave_N              =   1.3491220848151E-01
(PID.TID 0000.0001) %MON thSI_IceH_max_S              =   0.0000000000000E+00
(PID.TID 0000.0001) %MON thSI_IceH_max_N              =   1.4383352319297E-01
(PID.TID 0000.0001) %MON thSI_SnwH_ave_G              =   0.0000000000000E+00
(PID.TID 0000.0001) %MON thSI_SnwH_ave_S              =   0.0000000000000E+00
(PID.TID 0000.0001) %MON thSI_SnwH_ave_N              =   0.0000000000000E+00
(PID.TID 0000.0001) %MON thSI_SnwH_max_S              =   0.0000000000000E+00
(PID.TID 0000.0001) %MON thSI_SnwH_max_N              =   0.0000000000000E+00
(PID.TID 0000.0001) %MON thSI_TotEnerg_G              =  -6.7041714470477E+18
(PID.TID 0000.0001) %MON thSI_Tsrf_ave_G              =  -8.1091138274326E+00
(PID.TID 0000.0001) %MON thSI_Tsrf_ave_S              =   0.0000000000000E+00
(PID.TID 0000.0001) %MON thSI_Tsrf_ave_N              =  -8.1091138274326E+00
(PID.TID 0000.0001) %MON thSI_Tsrf_min_S              =   0.0000000000000E+00
(PID.TID 0000.0001) %MON thSI_Tsrf_min_N              =  -8.2039276800171E+00
(PID.TID 0000.0001) %MON thSI_Tsrf_max_S              =   0.0000000000000E+00
(PID.TID 0000.0001) %MON thSI_Tsrf_max_N              =  -7.9266898107661E+00
(PID.TID 0000.0001) %MON thSI_Tic1_ave_G              =  -5.6518981083258E+00
(PID.TID 0000.0001) %MON thSI_Tic1_ave_S              =   0.0000000000000E+00
(PID.TID 0000.0001) %MON thSI_Tic1_ave_N              =  -5.6518981083258E+00
(PID.TID 0000.0001) %MON thSI_Tic1_min_S              =   0.0000000000000E+00
(PID.TID 0000.0001) %MON thSI_Tic1_min_N              =  -5.7345125929315E+00
(PID.TID 0000.0001) %MON thSI_Tic1_max_S              =   0.0000000000000E+00
(PID.TID 0000.0001) %MON thSI_Tic1_max_N              =  -5.5762633705131E+00
(PID.TID 0000.0001) %MON thSI_Tic2_ave_G              =  -2.7419500310887E+00
(PID.TID 0000.0001) %MON thSI_Tic2_ave_S              =   0.0000000000000E+00
(PID.TID 0000.0001) %MON thSI_Tic2_ave_N              =  -2.7419500310887E+00
(PID.TID 0000.0001) %MON thSI_Tic2_min_S              =   0.0000000000000E+00
(PID.TID 0000.0001) %MON thSI_Tic2_min_N              =  -2.8361794170146E+00
(PID.TID 0000.0001) %MON thSI_Tic2_max_S              =   0.0000000000000E+00
(PID.TID 0000.0001) %MON thSI_Tic2_max_N              =  -2.6583695444815E+00
(PID.TID 0000.0001) // =======================================================
(PID.TID 0000.0001) // End MONITOR Therm.SeaIce statistics
(PID.TID 0000.0001) // =======================================================
 cg2d: Sum(rhs),rhsMax =   7.27595761418343E-11  2.64106297427024E+04
(PID.TID 0000.0001)                    cg2d_init_res =    1.20933896517901E+04
(PID.TID 0000.0001)                       cg2d_iters =    16
(PID.TID 0000.0001)                         cg2d_res =    8.19778109115981E-11
(PID.TID 0000.0001) // =======================================================
(PID.TID 0000.0001) // Begin MONITOR dynamic field statistics
(PID.TID 0000.0001) // =======================================================
(PID.TID 0000.0001) %MON time_tsnumber                =                    19
(PID.TID 0000.0001) %MON time_secondsf                =   8.5500000000000E+03
(PID.TID 0000.0001) %MON dynstat_eta_max              =   4.7970804241167E+03
(PID.TID 0000.0001) %MON dynstat_eta_min              =  -1.0767502189051E+03
(PID.TID 0000.0001) %MON dynstat_eta_mean             =   0.0000000000000E+00
(PID.TID 0000.0001) %MON dynstat_eta_sd               =   5.6202605224179E+02
(PID.TID 0000.0001) %MON dynstat_eta_del2             =   3.7146530331486E+01
(PID.TID 0000.0001) %MON dynstat_uvel_max             =   6.0553331412774E+00
(PID.TID 0000.0001) %MON dynstat_uvel_min             =  -6.4870027579956E+00
(PID.TID 0000.0001) %MON dynstat_uvel_mean            =  -7.4997822236049E-03
(PID.TID 0000.0001) %MON dynstat_uvel_sd              =   8.1167073971086E-01
(PID.TID 0000.0001) %MON dynstat_uvel_del2            =   2.1557819590342E-02
(PID.TID 0000.0001) %MON dynstat_vvel_max             =   4.4235888487131E+00
(PID.TID 0000.0001) %MON dynstat_vvel_min             =  -5.6361223389897E+00
(PID.TID 0000.0001) %MON dynstat_vvel_mean            =   2.7281876089427E-02
(PID.TID 0000.0001) %MON dynstat_vvel_sd              =   8.0262617369944E-01
(PID.TID 0000.0001) %MON dynstat_vvel_del2            =   2.1135628363319E-02
(PID.TID 0000.0001) %MON dynstat_wvel_max             =   2.0689577095976E-01
(PID.TID 0000.0001) %MON dynstat_wvel_min             =  -9.7976194052198E-02
(PID.TID 0000.0001) %MON dynstat_wvel_mean            =  -1.9844476049502E-04
(PID.TID 0000.0001) %MON dynstat_wvel_sd              =   8.4754003910875E-03
(PID.TID 0000.0001) %MON dynstat_wvel_del2            =   1.4196855270963E-03
(PID.TID 0000.0001) %MON dynstat_theta_max            =   4.3825179433165E+02
(PID.TID 0000.0001) %MON dynstat_theta_min            =   2.8500749468331E+02
(PID.TID 0000.0001) %MON dynstat_theta_mean           =   3.3169692265143E+02
(PID.TID 0000.0001) %MON dynstat_theta_sd             =   4.7441080738809E+01
(PID.TID 0000.0001) %MON dynstat_theta_del2           =   2.0406169218045E-02
(PID.TID 0000.0001) %MON dynstat_salt_max             =   4.1142666755500E+00
(PID.TID 0000.0001) %MON dynstat_salt_min             =  -4.3775984149419E-03
(PID.TID 0000.0001) %MON dynstat_salt_mean            =   7.0100448231721E-02
(PID.TID 0000.0001) %MON dynstat_salt_sd              =   2.8440436326794E-01
(PID.TID 0000.0001) %MON dynstat_salt_del2            =   8.9326136852850E-03
(PID.TID 0000.0001) %MON advcfl_uvel_max              =   9.2524057294807E-03
(PID.TID 0000.0001) %MON advcfl_vvel_max              =   8.0339971138449E-03
(PID.TID 0000.0001) %MON advcfl_wvel_max              =   3.3855671611597E-03
(PID.TID 0000.0001) %MON advcfl_W_hf_max              =   1.3662046162939E-02
(PID.TID 0000.0001) %MON pe_b_mean                    =  -1.1416879913192E+00
(PID.TID 0000.0001) %MON ke_max                       =   2.2557390470032E+01
(PID.TID 0000.0001) %MON ke_mean                      =   6.4749156099862E-01
(PID.TID 0000.0001) %MON ke_vol                       =   4.9523908919847E+19
(PID.TID 0000.0001) %MON vort_r_min                   =  -2.3244830809971E-05
(PID.TID 0000.0001) %MON vort_r_max                   =   9.4071586899442E-06
(PID.TID 0000.0001) %MON vort_a_mean                  =   6.7059142262012E-08
(PID.TID 0000.0001) %MON vort_a_sd                    =   8.3746382711134E-05
(PID.TID 0000.0001) %MON vort_p_mean                  =   6.8810731106999E-08
(PID.TID 0000.0001) %MON vort_p_sd                    =   9.1908799055937E-05
(PID.TID 0000.0001) %MON surfExpan_theta_mean         =   1.5975672377282E-02
(PID.TID 0000.0001) %MON surfExpan_salt_mean          =  -4.6734281608738E-04
(PID.TID 0000.0001) %MON surfExpan_Heat_mean          =  -1.7047339074037E+00
(PID.TID 0000.0001) %MON En_Budget_T2PE_mean          =   2.8919677731045E+00
(PID.TID 0000.0001) // =======================================================
(PID.TID 0000.0001) // End MONITOR dynamic field statistics
(PID.TID 0000.0001) // =======================================================
(PID.TID 0000.0001) // =======================================================
(PID.TID 0000.0001) // Begin MONITOR Land statistics
(PID.TID 0000.0001) // =======================================================
(PID.TID 0000.0001) %MON land_time_sec                =   8.5500000000000E+03
(PID.TID 0000.0001) %MON land_SnwH_ave_G              =   1.5322942272999E-01
(PID.TID 0000.0001) %MON land_SnwH_ave_S              =   5.5904639460917E-01
(PID.TID 0000.0001) %MON land_SnwH_ave_T              =   0.0000000000000E+00
(PID.TID 0000.0001) %MON land_SnwH_ave_N              =   1.2390697183303E-01
(PID.TID 0000.0001) %MON land_SnwH_max_S              =   9.9998976596234E-01
(PID.TID 0000.0001) %MON land_SnwH_max_T              =   0.0000000000000E+00
(PID.TID 0000.0001) %MON land_SnwH_max_N              =   9.9999871768160E-01
(PID.TID 0000.0001) %MON land_TotEnerg_G              =  -6.3412528292029E+21
(PID.TID 0000.0001) %MON land_TotEnerg_S              =  -5.0016052463578E+21
(PID.TID 0000.0001) %MON land_TotEnerg_T              =   7.2834861481389E+21
(PID.TID 0000.0001) %MON land_TotEnerg_N              =  -8.6231337309839E+21
(PID.TID 0000.0001) %MON land_Tsrf_ave_G              =  -8.1022587712168E+00
(PID.TID 0000.0001) %MON land_Tsrf_ave_S              =  -7.2883954238022E+00
(PID.TID 0000.0001) %MON land_Tsrf_ave_T              =   1.0949907377344E+01
(PID.TID 0000.0001) %MON land_Tsrf_ave_N              =  -2.1088747321559E+01
(PID.TID 0000.0001) %MON land_Tsrf_min_S              =  -3.3755723673984E+01
(PID.TID 0000.0001) %MON land_Tsrf_min_T              =  -4.3486714703415E+00
(PID.TID 0000.0001) %MON land_Tsrf_min_N              =  -5.2043077924224E+01
(PID.TID 0000.0001) %MON land_Tsrf_max_S              =   2.1159268985626E+01
(PID.TID 0000.0001) %MON land_Tsrf_max_T              =   2.1815652696691E+01
(PID.TID 0000.0001) %MON land_Tsrf_max_N              =   9.3531672791567E+00
(PID.TID 0000.0001) %MON land_Tgr1_ave_G              =  -6.8338134707266E+00
(PID.TID 0000.0001) %MON land_Tgr1_ave_S              =  -6.9461018555452E+00
(PID.TID 0000.0001) %MON land_Tgr1_ave_T              =   1.0949907377344E+01
(PID.TID 0000.0001) %MON land_Tgr1_ave_N              =  -1.8672833574935E+01
(PID.TID 0000.0001) %MON land_Tgr1_min_S              =  -3.9207527209956E+01
(PID.TID 0000.0001) %MON land_Tgr1_min_T              =  -4.3486714703415E+00
(PID.TID 0000.0001) %MON land_Tgr1_min_N              =  -5.4769729785231E+01
(PID.TID 0000.0001) %MON land_Tgr1_max_S              =   2.1159268985626E+01
(PID.TID 0000.0001) %MON land_Tgr1_max_T              =   2.1815652696691E+01
(PID.TID 0000.0001) %MON land_Tgr1_max_N              =   9.3531672791567E+00
(PID.TID 0000.0001) %MON land_Tgr2_ave_G              =   4.2047739163015E+00
(PID.TID 0000.0001) %MON land_Tgr2_ave_S              =  -1.8727821363583E+01
(PID.TID 0000.0001) %MON land_Tgr2_ave_T              =   2.2010541530359E+01
(PID.TID 0000.0001) %MON land_Tgr2_ave_N              =  -2.4619985941033E-01
(PID.TID 0000.0001) %MON land_Tgr2_min_S              =  -6.4754075840248E+01
(PID.TID 0000.0001) %MON land_Tgr2_min_T              =  -9.7041925148870E+00
(PID.TID 0000.0001) %MON land_Tgr2_min_N              =  -4.0198163433045E+01
(PID.TID 0000.0001) %MON land_Tgr2_max_S              =   2.3360375526161E+01
(PID.TID 0000.0001) %MON land_Tgr2_max_T              =   3.1354312901858E+01
(PID.TID 0000.0001) %MON land_Tgr2_max_N              =   2.9824723203169E+01
(PID.TID 0000.0001) %MON land_grdW_ave_G              =   4.8680726208701E-01
(PID.TID 0000.0001) %MON land_grdW_ave_S              =   3.0857266195486E-01
(PID.TID 0000.0001) %MON land_grdW_ave_T              =   5.6430314081324E-01
(PID.TID 0000.0001) %MON land_grdW_ave_N              =   4.9287601167078E-01
(PID.TID 0000.0001) %MON land_grdW_min_S              =   2.6989851890188E-02
(PID.TID 0000.0001) %MON land_grdW_min_T              =   0.0000000000000E+00
(PID.TID 0000.0001) %MON land_grdW_min_N              =   0.0000000000000E+00
(PID.TID 0000.0001) // =======================================================
(PID.TID 0000.0001) // End MONITOR Land statistics
(PID.TID 0000.0001) // =======================================================
(PID.TID 0000.0001) // =======================================================
(PID.TID 0000.0001) // Begin MONITOR Therm.SeaIce statistics
(PID.TID 0000.0001) // =======================================================
(PID.TID 0000.0001) %MON thSI_time_sec                =   8.5500000000000E+03
(PID.TID 0000.0001) %MON thSI_Ice_Area_G              =   1.6371927926370E+11
(PID.TID 0000.0001) %MON thSI_Ice_Area_S              =   0.0000000000000E+00
(PID.TID 0000.0001) %MON thSI_Ice_Area_N              =   1.6371927926370E+11
(PID.TID 0000.0001) %MON thSI_IceH_ave_G              =   1.3557752084095E-01
(PID.TID 0000.0001) %MON thSI_IceH_ave_S              =   0.0000000000000E+00
(PID.TID 0000.0001) %MON thSI_IceH_ave_N              =   1.3557752084095E-01
(PID.TID 0000.0001) %MON thSI_IceH_max_S              =   0.0000000000000E+00
(PID.TID 0000.0001) %MON thSI_IceH_max_N              =   1.4457590436244E-01
(PID.TID 0000.0001) %MON thSI_SnwH_ave_G              =   0.0000000000000E+00
(PID.TID 0000.0001) %MON thSI_SnwH_ave_S              =   0.0000000000000E+00
(PID.TID 0000.0001) %MON thSI_SnwH_ave_N              =   0.0000000000000E+00
(PID.TID 0000.0001) %MON thSI_SnwH_max_S              =   0.0000000000000E+00
(PID.TID 0000.0001) %MON thSI_SnwH_max_N              =   0.0000000000000E+00
(PID.TID 0000.0001) %MON thSI_TotEnerg_G              =  -6.8229833577548E+18
(PID.TID 0000.0001) %MON thSI_Tsrf_ave_G              =  -8.2412717519885E+00
(PID.TID 0000.0001) %MON thSI_Tsrf_ave_S              =   0.0000000000000E+00
(PID.TID 0000.0001) %MON thSI_Tsrf_ave_N              =  -8.2412717519885E+00
(PID.TID 0000.0001) %MON thSI_Tsrf_min_S              =   0.0000000000000E+00
(PID.TID 0000.0001) %MON thSI_Tsrf_min_N              =  -8.3365232268973E+00
(PID.TID 0000.0001) %MON thSI_Tsrf_max_S              =   0.0000000000000E+00
(PID.TID 0000.0001) %MON thSI_Tsrf_max_N              =  -8.0551883307119E+00
(PID.TID 0000.0001) %MON thSI_Tic1_ave_G              =  -5.8031846461079E+00
(PID.TID 0000.0001) %MON thSI_Tic1_ave_S              =   0.0000000000000E+00
(PID.TID 0000.0001) %MON thSI_Tic1_ave_N              =  -5.8031846461079E+00
(PID.TID 0000.0001) %MON thSI_Tic1_min_S              =   0.0000000000000E+00
(PID.TID 0000.0001) %MON thSI_Tic1_min_N              =  -5.8805119028090E+00
(PID.TID 0000.0001) %MON thSI_Tic1_max_S              =   0.0000000000000E+00
(PID.TID 0000.0001) %MON thSI_Tic1_max_N              =  -5.7313131498002E+00
(PID.TID 0000.0001) %MON thSI_Tic2_ave_G              =  -2.8061999377629E+00
(PID.TID 0000.0001) %MON thSI_Tic2_ave_S              =   0.0000000000000E+00
(PID.TID 0000.0001) %MON thSI_Tic2_ave_N              =  -2.8061999377629E+00
(PID.TID 0000.0001) %MON thSI_Tic2_min_S              =   0.0000000000000E+00
(PID.TID 0000.0001) %MON thSI_Tic2_min_N              =  -2.8976566248449E+00
(PID.TID 0000.0001) %MON thSI_Tic2_max_S              =   0.0000000000000E+00
(PID.TID 0000.0001) %MON thSI_Tic2_max_N              =  -2.7243331985487E+00
(PID.TID 0000.0001) // =======================================================
(PID.TID 0000.0001) // End MONITOR Therm.SeaIce statistics
(PID.TID 0000.0001) // =======================================================
 cg2d: Sum(rhs),rhsMax =  -3.34694050252438E-10  2.65220212492844E+04
(PID.TID 0000.0001)                    cg2d_init_res =    1.19479578976794E+04
(PID.TID 0000.0001)                       cg2d_iters =    16
(PID.TID 0000.0001)                         cg2d_res =    7.99997276110985E-11
(PID.TID 0000.0001) // =======================================================
(PID.TID 0000.0001) // Begin MONITOR dynamic field statistics
(PID.TID 0000.0001) // =======================================================
(PID.TID 0000.0001) %MON time_tsnumber                =                    20
(PID.TID 0000.0001) %MON time_secondsf                =   9.0000000000000E+03
(PID.TID 0000.0001) %MON dynstat_eta_max              =   4.6847863852019E+03
(PID.TID 0000.0001) %MON dynstat_eta_min              =  -1.0139510299615E+03
(PID.TID 0000.0001) %MON dynstat_eta_mean             =   4.8197273343047E-15
(PID.TID 0000.0001) %MON dynstat_eta_sd               =   5.6056286161878E+02
(PID.TID 0000.0001) %MON dynstat_eta_del2             =   3.7011198963923E+01
(PID.TID 0000.0001) %MON dynstat_uvel_max             =   6.0501945594730E+00
(PID.TID 0000.0001) %MON dynstat_uvel_min             =  -6.4772534021092E+00
(PID.TID 0000.0001) %MON dynstat_uvel_mean            =  -5.9958689215206E-03
(PID.TID 0000.0001) %MON dynstat_uvel_sd              =   8.1914830146914E-01
(PID.TID 0000.0001) %MON dynstat_uvel_del2            =   2.2086512632796E-02
(PID.TID 0000.0001) %MON dynstat_vvel_max             =   4.3789796091857E+00
(PID.TID 0000.0001) %MON dynstat_vvel_min             =  -5.6942321704717E+00
(PID.TID 0000.0001) %MON dynstat_vvel_mean            =   2.8023168299445E-02
(PID.TID 0000.0001) %MON dynstat_vvel_sd              =   8.0017804506305E-01
(PID.TID 0000.0001) %MON dynstat_vvel_del2            =   2.1514437568651E-02
(PID.TID 0000.0001) %MON dynstat_wvel_max             =   2.4379212851484E-01
(PID.TID 0000.0001) %MON dynstat_wvel_min             =  -9.7665725450405E-02
(PID.TID 0000.0001) %MON dynstat_wvel_mean            =  -5.2916485750026E-05
(PID.TID 0000.0001) %MON dynstat_wvel_sd              =   8.8578217904207E-03
(PID.TID 0000.0001) %MON dynstat_wvel_del2            =   1.4830342377007E-03
(PID.TID 0000.0001) %MON dynstat_theta_max            =   4.3827968933367E+02
(PID.TID 0000.0001) %MON dynstat_theta_min            =   2.8477952914106E+02
(PID.TID 0000.0001) %MON dynstat_theta_mean           =   3.3169509947139E+02
(PID.TID 0000.0001) %MON dynstat_theta_sd             =   4.7443054230387E+01
(PID.TID 0000.0001) %MON dynstat_theta_del2           =   2.1248633512221E-02
(PID.TID 0000.0001) %MON dynstat_salt_max             =   4.1923173963484E+00
(PID.TID 0000.0001) %MON dynstat_salt_min             =  -3.0734223136700E-03
(PID.TID 0000.0001) %MON dynstat_salt_mean            =   7.3550210012595E-02
(PID.TID 0000.0001) %MON dynstat_salt_sd              =   2.9707437092405E-01
(PID.TID 0000.0001) %MON dynstat_salt_del2            =   9.2669195024041E-03
(PID.TID 0000.0001) %MON advcfl_uvel_max              =   9.2385002326546E-03
(PID.TID 0000.0001) %MON advcfl_vvel_max              =   8.1088086370384E-03
(PID.TID 0000.0001) %MON advcfl_wvel_max              =   3.9893257393338E-03
(PID.TID 0000.0001) %MON advcfl_W_hf_max              =   1.5018489998325E-02
(PID.TID 0000.0001) %MON pe_b_mean                    =  -1.1546880171767E+00
(PID.TID 0000.0001) %MON ke_max                       =   2.1095711026097E+01
(PID.TID 0000.0001) %MON ke_mean                      =   6.5159998920676E-01
(PID.TID 0000.0001) %MON ke_vol                       =   4.9523908919847E+19
(PID.TID 0000.0001) %MON vort_r_min                   =  -2.2017811966537E-05
(PID.TID 0000.0001) %MON vort_r_max                   =   7.1408206574075E-06
(PID.TID 0000.0001) %MON vort_a_mean                  =   6.7059142262095E-08
(PID.TID 0000.0001) %MON vort_a_sd                    =   8.3749093604141E-05
(PID.TID 0000.0001) %MON vort_p_mean                  =   6.8811474227627E-08
(PID.TID 0000.0001) %MON vort_p_sd                    =   9.1902392383103E-05
(PID.TID 0000.0001) %MON surfExpan_theta_mean         =   1.7683237273594E-03
(PID.TID 0000.0001) %MON surfExpan_salt_mean          =  -5.3563164485597E-04
(PID.TID 0000.0001) %MON surfExpan_Heat_mean          =  -5.1814616234034E-01
(PID.TID 0000.0001) %MON En_Budget_T2PE_mean          =   6.6113341082847E-01
(PID.TID 0000.0001) // =======================================================
(PID.TID 0000.0001) // End MONITOR dynamic field statistics
(PID.TID 0000.0001) // =======================================================
(PID.TID 0000.0001) // =======================================================
(PID.TID 0000.0001) // Begin MONITOR Land statistics
(PID.TID 0000.0001) // =======================================================
(PID.TID 0000.0001) %MON land_time_sec                =   9.0000000000000E+03
(PID.TID 0000.0001) %MON land_SnwH_ave_G              =   1.5322845644111E-01
(PID.TID 0000.0001) %MON land_SnwH_ave_S              =   5.5904552662173E-01
(PID.TID 0000.0001) %MON land_SnwH_ave_T              =   0.0000000000000E+00
(PID.TID 0000.0001) %MON land_SnwH_ave_N              =   1.2390532839645E-01
(PID.TID 0000.0001) %MON land_SnwH_max_S              =   9.9998919972124E-01
(PID.TID 0000.0001) %MON land_SnwH_max_T              =   0.0000000000000E+00
(PID.TID 0000.0001) %MON land_SnwH_max_N              =   9.9999865413241E-01
(PID.TID 0000.0001) %MON land_TotEnerg_G              =  -6.3432931294588E+21
(PID.TID 0000.0001) %MON land_TotEnerg_S              =  -5.0017534072570E+21
(PID.TID 0000.0001) %MON land_TotEnerg_T              =   7.2822639383679E+21
(PID.TID 0000.0001) %MON land_TotEnerg_N              =  -8.6238036605697E+21
(PID.TID 0000.0001) %MON land_Tsrf_ave_G              =  -8.1663209974983E+00
(PID.TID 0000.0001) %MON land_Tsrf_ave_S              =  -7.3142241739086E+00
(PID.TID 0000.0001) %MON land_Tsrf_ave_T              =   1.0810271863648E+01
(PID.TID 0000.0001) %MON land_Tsrf_ave_N              =  -2.1114746635789E+01
(PID.TID 0000.0001) %MON land_Tsrf_min_S              =  -3.3745768182557E+01
(PID.TID 0000.0001) %MON land_Tsrf_min_T              =  -4.2117268191358E+00
(PID.TID 0000.0001) %MON land_Tsrf_min_N              =  -5.2046985421763E+01
(PID.TID 0000.0001) %MON land_Tsrf_max_S              =   2.0989200182737E+01
(PID.TID 0000.0001) %MON land_Tsrf_max_T              =   2.1557184922929E+01
(PID.TID 0000.0001) %MON land_Tsrf_max_N              =   9.1853888631541E+00
(PID.TID 0000.0001) %MON land_Tgr1_ave_G              =  -6.9050149090347E+00
(PID.TID 0000.0001) %MON land_Tgr1_ave_S              =  -6.9953477126896E+00
(PID.TID 0000.0001) %MON land_Tgr1_ave_T              =   1.0810271863648E+01
(PID.TID 0000.0001) %MON land_Tgr1_ave_N              =  -1.8705459007063E+01
(PID.TID 0000.0001) %MON land_Tgr1_min_S              =  -3.9218693260783E+01
(PID.TID 0000.0001) %MON land_Tgr1_min_T              =  -4.2117268191358E+00
(PID.TID 0000.0001) %MON land_Tgr1_min_N              =  -5.4757140753728E+01
(PID.TID 0000.0001) %MON land_Tgr1_max_S              =   2.0989200182737E+01
(PID.TID 0000.0001) %MON land_Tgr1_max_T              =   2.1557184922929E+01
(PID.TID 0000.0001) %MON land_Tgr1_max_N              =   9.1853888631541E+00
(PID.TID 0000.0001) %MON land_Tgr2_ave_G              =   4.2046035369709E+00
(PID.TID 0000.0001) %MON land_Tgr2_ave_S              =  -1.8727624871096E+01
(PID.TID 0000.0001) %MON land_Tgr2_ave_T              =   2.2010359678429E+01
(PID.TID 0000.0001) %MON land_Tgr2_ave_N              =  -2.4648158865861E-01
(PID.TID 0000.0001) %MON land_Tgr2_min_S              =  -6.4753645332017E+01
(PID.TID 0000.0001) %MON land_Tgr2_min_T              =  -9.7041231163781E+00
(PID.TID 0000.0001) %MON land_Tgr2_min_N              =  -4.0198400135072E+01
(PID.TID 0000.0001) %MON land_Tgr2_max_S              =   2.3360323667458E+01
(PID.TID 0000.0001) %MON land_Tgr2_max_T              =   3.1353898459822E+01
(PID.TID 0000.0001) %MON land_Tgr2_max_N              =   2.9824223640604E+01
(PID.TID 0000.0001) %MON land_grdW_ave_G              =   4.8679869384652E-01
(PID.TID 0000.0001) %MON land_grdW_ave_S              =   3.0856443001448E-01
(PID.TID 0000.0001) %MON land_grdW_ave_T              =   5.6428203473650E-01
(PID.TID 0000.0001) %MON land_grdW_ave_N              =   4.9287570673488E-01
(PID.TID 0000.0001) %MON land_grdW_min_S              =   2.7075067673202E-02
(PID.TID 0000.0001) %MON land_grdW_min_T              =   0.0000000000000E+00
(PID.TID 0000.0001) %MON land_grdW_min_N              =   0.0000000000000E+00
(PID.TID 0000.0001) // =======================================================
(PID.TID 0000.0001) // End MONITOR Land statistics
(PID.TID 0000.0001) // =======================================================
(PID.TID 0000.0001) // =======================================================
(PID.TID 0000.0001) // Begin MONITOR Therm.SeaIce statistics
(PID.TID 0000.0001) // =======================================================
(PID.TID 0000.0001) %MON thSI_time_sec                =   9.0000000000000E+03
(PID.TID 0000.0001) %MON thSI_Ice_Area_G              =   1.6563119665961E+11
(PID.TID 0000.0001) %MON thSI_Ice_Area_S              =   0.0000000000000E+00
(PID.TID 0000.0001) %MON thSI_Ice_Area_N              =   1.6563119665961E+11
(PID.TID 0000.0001) %MON thSI_IceH_ave_G              =   1.3624789732187E-01
(PID.TID 0000.0001) %MON thSI_IceH_ave_S              =   0.0000000000000E+00
(PID.TID 0000.0001) %MON thSI_IceH_ave_N              =   1.3624789732187E-01
(PID.TID 0000.0001) %MON thSI_IceH_max_S              =   0.0000000000000E+00
(PID.TID 0000.0001) %MON thSI_IceH_max_N              =   1.4532291323082E-01
(PID.TID 0000.0001) %MON thSI_SnwH_ave_G              =   0.0000000000000E+00
(PID.TID 0000.0001) %MON thSI_SnwH_ave_S              =   0.0000000000000E+00
(PID.TID 0000.0001) %MON thSI_SnwH_ave_N              =   0.0000000000000E+00
(PID.TID 0000.0001) %MON thSI_SnwH_max_S              =   0.0000000000000E+00
(PID.TID 0000.0001) %MON thSI_SnwH_max_N              =   0.0000000000000E+00
(PID.TID 0000.0001) %MON thSI_TotEnerg_G              =  -6.9417911052753E+18
(PID.TID 0000.0001) %MON thSI_Tsrf_ave_G              =  -8.3641383354155E+00
(PID.TID 0000.0001) %MON thSI_Tsrf_ave_S              =   0.0000000000000E+00
(PID.TID 0000.0001) %MON thSI_Tsrf_ave_N              =  -8.3641383354155E+00
(PID.TID 0000.0001) %MON thSI_Tsrf_min_S              =   0.0000000000000E+00
(PID.TID 0000.0001) %MON thSI_Tsrf_min_N              =  -8.4604468377271E+00
(PID.TID 0000.0001) %MON thSI_Tsrf_max_S              =   0.0000000000000E+00
(PID.TID 0000.0001) %MON thSI_Tsrf_max_N              =  -8.1726290860866E+00
(PID.TID 0000.0001) %MON thSI_Tic1_ave_G              =  -5.9440592782904E+00
(PID.TID 0000.0001) %MON thSI_Tic1_ave_S              =   0.0000000000000E+00
(PID.TID 0000.0001) %MON thSI_Tic1_ave_N              =  -5.9440592782904E+00
(PID.TID 0000.0001) %MON thSI_Tic1_min_S              =   0.0000000000000E+00
(PID.TID 0000.0001) %MON thSI_Tic1_min_N              =  -6.0150829562302E+00
(PID.TID 0000.0001) %MON thSI_Tic1_max_S              =   0.0000000000000E+00
(PID.TID 0000.0001) %MON thSI_Tic1_max_N              =  -5.8768979084595E+00
(PID.TID 0000.0001) %MON thSI_Tic2_ave_G              =  -2.8652427020795E+00
(PID.TID 0000.0001) %MON thSI_Tic2_ave_S              =   0.0000000000000E+00
(PID.TID 0000.0001) %MON thSI_Tic2_ave_N              =  -2.8652427020795E+00
(PID.TID 0000.0001) %MON thSI_Tic2_min_S              =   0.0000000000000E+00
(PID.TID 0000.0001) %MON thSI_Tic2_min_N              =  -2.9537016948319E+00
(PID.TID 0000.0001) %MON thSI_Tic2_max_S              =   0.0000000000000E+00
(PID.TID 0000.0001) %MON thSI_Tic2_max_N              =  -2.7853618173875E+00
(PID.TID 0000.0001) // =======================================================
(PID.TID 0000.0001) // End MONITOR Therm.SeaIce statistics
(PID.TID 0000.0001) // =======================================================
 cg2d: Sum(rhs),rhsMax =   2.03726813197136E-10  2.63263227445416E+04
(PID.TID 0000.0001)                    cg2d_init_res =    1.18259124038635E+04
(PID.TID 0000.0001)                       cg2d_iters =    16
(PID.TID 0000.0001)                         cg2d_res =    7.62687920213864E-11
(PID.TID 0000.0001) // =======================================================
(PID.TID 0000.0001) // Begin MONITOR dynamic field statistics
(PID.TID 0000.0001) // =======================================================
(PID.TID 0000.0001) %MON time_tsnumber                =                    21
(PID.TID 0000.0001) %MON time_secondsf                =   9.4500000000000E+03
(PID.TID 0000.0001) %MON dynstat_eta_max              =   4.5783905961855E+03
(PID.TID 0000.0001) %MON dynstat_eta_min              =  -9.7195190930255E+02
(PID.TID 0000.0001) %MON dynstat_eta_mean             =  -2.6508500338676E-14
(PID.TID 0000.0001) %MON dynstat_eta_sd               =   5.5693870578078E+02
(PID.TID 0000.0001) %MON dynstat_eta_del2             =   3.6905481678633E+01
(PID.TID 0000.0001) %MON dynstat_uvel_max             =   6.0307044308084E+00
(PID.TID 0000.0001) %MON dynstat_uvel_min             =  -6.3851303978781E+00
(PID.TID 0000.0001) %MON dynstat_uvel_mean            =  -3.9694140088788E-03
(PID.TID 0000.0001) %MON dynstat_uvel_sd              =   8.2529916693818E-01
(PID.TID 0000.0001) %MON dynstat_uvel_del2            =   2.2611104677054E-02
(PID.TID 0000.0001) %MON dynstat_vvel_max             =   4.6177972712588E+00
(PID.TID 0000.0001) %MON dynstat_vvel_min             =  -5.7352956778506E+00
(PID.TID 0000.0001) %MON dynstat_vvel_mean            =   2.8501993164010E-02
(PID.TID 0000.0001) %MON dynstat_vvel_sd              =   7.9992035695816E-01
(PID.TID 0000.0001) %MON dynstat_vvel_del2            =   2.1835288166777E-02
(PID.TID 0000.0001) %MON dynstat_wvel_max             =   2.7078425154266E-01
(PID.TID 0000.0001) %MON dynstat_wvel_min             =  -1.1111244872587E-01
(PID.TID 0000.0001) %MON dynstat_wvel_mean            =   8.2945543448711E-05
(PID.TID 0000.0001) %MON dynstat_wvel_sd              =   9.2895195446830E-03
(PID.TID 0000.0001) %MON dynstat_wvel_del2            =   1.5489049227203E-03
(PID.TID 0000.0001) %MON dynstat_theta_max            =   4.3828272809617E+02
(PID.TID 0000.0001) %MON dynstat_theta_min            =   2.8455300583077E+02
(PID.TID 0000.0001) %MON dynstat_theta_mean           =   3.3169323631573E+02
(PID.TID 0000.0001) %MON dynstat_theta_sd             =   4.7445044001714E+01
(PID.TID 0000.0001) %MON dynstat_theta_del2           =   2.2096897955575E-02
(PID.TID 0000.0001) %MON dynstat_salt_max             =   4.2647346511565E+00
(PID.TID 0000.0001) %MON dynstat_salt_min             =  -4.6829501292689E-03
(PID.TID 0000.0001) %MON dynstat_salt_mean            =   7.6985509707084E-02
(PID.TID 0000.0001) %MON dynstat_salt_sd              =   3.0961070851991E-01
(PID.TID 0000.0001) %MON dynstat_salt_del2            =   9.5959587802570E-03
(PID.TID 0000.0001) %MON advcfl_uvel_max              =   9.1071052812474E-03
(PID.TID 0000.0001) %MON advcfl_vvel_max              =   8.1672846726711E-03
(PID.TID 0000.0001) %MON advcfl_wvel_max              =   4.4310150252435E-03
(PID.TID 0000.0001) %MON advcfl_W_hf_max              =   1.5898381507586E-02
(PID.TID 0000.0001) %MON pe_b_mean                    =  -1.1680285187326E+00
(PID.TID 0000.0001) %MON ke_max                       =   1.9723368319355E+01
(PID.TID 0000.0001) %MON ke_mean                      =   6.5641560024336E-01
(PID.TID 0000.0001) %MON ke_vol                       =   4.9523908919847E+19
(PID.TID 0000.0001) %MON vort_r_min                   =  -2.0936566830774E-05
(PID.TID 0000.0001) %MON vort_r_max                   =   7.2860331403709E-06
(PID.TID 0000.0001) %MON vort_a_mean                  =   6.7059142262100E-08
(PID.TID 0000.0001) %MON vort_a_sd                    =   8.3751795970963E-05
(PID.TID 0000.0001) %MON vort_p_mean                  =   6.8811913759644E-08
(PID.TID 0000.0001) %MON vort_p_sd                    =   9.1891583996920E-05
(PID.TID 0000.0001) %MON surfExpan_theta_mean         =  -1.1429432182581E-02
(PID.TID 0000.0001) %MON surfExpan_salt_mean          =  -6.1088775821168E-04
(PID.TID 0000.0001) %MON surfExpan_Heat_mean          =   5.8788124366485E-01
(PID.TID 0000.0001) %MON En_Budget_T2PE_mean          =  -1.4160161354734E+00
(PID.TID 0000.0001) // =======================================================
(PID.TID 0000.0001) // End MONITOR dynamic field statistics
(PID.TID 0000.0001) // =======================================================
(PID.TID 0000.0001) // =======================================================
(PID.TID 0000.0001) // Begin MONITOR Land statistics
(PID.TID 0000.0001) // =======================================================
(PID.TID 0000.0001) %MON land_time_sec                =   9.4500000000000E+03
(PID.TID 0000.0001) %MON land_SnwH_ave_G              =   1.5322749235680E-01
(PID.TID 0000.0001) %MON land_SnwH_ave_S              =   5.5904465726554E-01
(PID.TID 0000.0001) %MON land_SnwH_ave_T              =   0.0000000000000E+00
(PID.TID 0000.0001) %MON land_SnwH_ave_N              =   1.2390368979578E-01
(PID.TID 0000.0001) %MON land_SnwH_max_S              =   9.9998863513053E-01
(PID.TID 0000.0001) %MON land_SnwH_max_T              =   0.0000000000000E+00
(PID.TID 0000.0001) %MON land_SnwH_max_N              =   9.9999859062973E-01
(PID.TID 0000.0001) %MON land_TotEnerg_G              =  -6.3451907178636E+21
(PID.TID 0000.0001) %MON land_TotEnerg_S              =  -5.0018818582763E+21
(PID.TID 0000.0001) %MON land_TotEnerg_T              =   7.2811504202700E+21
(PID.TID 0000.0001) %MON land_TotEnerg_N              =  -8.6244592798574E+21
(PID.TID 0000.0001) %MON land_Tsrf_ave_G              =  -8.2234351665561E+00
(PID.TID 0000.0001) %MON land_Tsrf_ave_S              =  -7.3282185227623E+00
(PID.TID 0000.0001) %MON land_Tsrf_ave_T              =   1.0683433665990E+01
(PID.TID 0000.0001) %MON land_Tsrf_ave_N              =  -2.1139288956037E+01
(PID.TID 0000.0001) %MON land_Tsrf_min_S              =  -3.3743803293258E+01
(PID.TID 0000.0001) %MON land_Tsrf_min_T              =  -4.0788839191124E+00
(PID.TID 0000.0001) %MON land_Tsrf_min_N              =  -5.2051569013582E+01
(PID.TID 0000.0001) %MON land_Tsrf_max_S              =   2.0838378936029E+01
(PID.TID 0000.0001) %MON land_Tsrf_max_T              =   2.1324231679637E+01
(PID.TID 0000.0001) %MON land_Tsrf_max_N              =   9.0267629281002E+00
(PID.TID 0000.0001) %MON land_Tgr1_ave_G              =  -6.9701307525787E+00
(PID.TID 0000.0001) %MON land_Tgr1_ave_S              =  -7.0389036033454E+00
(PID.TID 0000.0001) %MON land_Tgr1_ave_T              =   1.0683433665990E+01
(PID.TID 0000.0001) %MON land_Tgr1_ave_N              =  -1.8736352395103E+01
(PID.TID 0000.0001) %MON land_Tgr1_min_S              =  -3.9229839883422E+01
(PID.TID 0000.0001) %MON land_Tgr1_min_T              =  -4.0788839191124E+00
(PID.TID 0000.0001) %MON land_Tgr1_min_N              =  -5.4744576979267E+01
(PID.TID 0000.0001) %MON land_Tgr1_max_S              =   2.0838378936029E+01
(PID.TID 0000.0001) %MON land_Tgr1_max_T              =   2.1324231679637E+01
(PID.TID 0000.0001) %MON land_Tgr1_max_N              =   9.0267629281002E+00
(PID.TID 0000.0001) %MON land_Tgr2_ave_G              =   4.2044321530361E+00
(PID.TID 0000.0001) %MON land_Tgr2_ave_S              =  -1.8727429071118E+01
(PID.TID 0000.0001) %MON land_Tgr2_ave_T              =   2.2010175929676E+01
(PID.TID 0000.0001) %MON land_Tgr2_ave_N              =  -2.4676382795507E-01
(PID.TID 0000.0001) %MON land_Tgr2_min_S              =  -6.4753215033571E+01
(PID.TID 0000.0001) %MON land_Tgr2_min_T              =  -9.7040520404637E+00
(PID.TID 0000.0001) %MON land_Tgr2_min_N              =  -4.0198636599262E+01
(PID.TID 0000.0001) %MON land_Tgr2_max_S              =   2.3360268893497E+01
(PID.TID 0000.0001) %MON land_Tgr2_max_T              =   3.1353480417906E+01
(PID.TID 0000.0001) %MON land_Tgr2_max_N              =   2.9823718229885E+01
(PID.TID 0000.0001) %MON land_grdW_ave_G              =   4.8679031635473E-01
(PID.TID 0000.0001) %MON land_grdW_ave_S              =   3.0855631548330E-01
(PID.TID 0000.0001) %MON land_grdW_ave_T              =   5.6426143634572E-01
(PID.TID 0000.0001) %MON land_grdW_ave_N              =   4.9287540469722E-01
(PID.TID 0000.0001) %MON land_grdW_min_S              =   2.7160924691729E-02
(PID.TID 0000.0001) %MON land_grdW_min_T              =   0.0000000000000E+00
(PID.TID 0000.0001) %MON land_grdW_min_N              =   0.0000000000000E+00
(PID.TID 0000.0001) // =======================================================
(PID.TID 0000.0001) // End MONITOR Land statistics
(PID.TID 0000.0001) // =======================================================
(PID.TID 0000.0001) // =======================================================
(PID.TID 0000.0001) // Begin MONITOR Therm.SeaIce statistics
(PID.TID 0000.0001) // =======================================================
(PID.TID 0000.0001) %MON thSI_time_sec                =   9.4500000000000E+03
(PID.TID 0000.0001) %MON thSI_Ice_Area_G              =   1.6752431604034E+11
(PID.TID 0000.0001) %MON thSI_Ice_Area_S              =   0.0000000000000E+00
(PID.TID 0000.0001) %MON thSI_Ice_Area_N              =   1.6752431604034E+11
(PID.TID 0000.0001) %MON thSI_IceH_ave_G              =   1.3692285716445E-01
(PID.TID 0000.0001) %MON thSI_IceH_ave_S              =   0.0000000000000E+00
(PID.TID 0000.0001) %MON thSI_IceH_ave_N              =   1.3692285716445E-01
(PID.TID 0000.0001) %MON thSI_IceH_max_S              =   0.0000000000000E+00
(PID.TID 0000.0001) %MON thSI_IceH_max_N              =   1.4607413192734E-01
(PID.TID 0000.0001) %MON thSI_SnwH_ave_G              =   0.0000000000000E+00
(PID.TID 0000.0001) %MON thSI_SnwH_ave_S              =   0.0000000000000E+00
(PID.TID 0000.0001) %MON thSI_SnwH_ave_N              =   0.0000000000000E+00
(PID.TID 0000.0001) %MON thSI_SnwH_max_S              =   0.0000000000000E+00
(PID.TID 0000.0001) %MON thSI_SnwH_max_N              =   0.0000000000000E+00
(PID.TID 0000.0001) %MON thSI_TotEnerg_G              =  -7.0605965530649E+18
(PID.TID 0000.0001) %MON thSI_Tsrf_ave_G              =  -8.4782395366284E+00
(PID.TID 0000.0001) %MON thSI_Tsrf_ave_S              =   0.0000000000000E+00
(PID.TID 0000.0001) %MON thSI_Tsrf_ave_N              =  -8.4782395366284E+00
(PID.TID 0000.0001) %MON thSI_Tsrf_min_S              =   0.0000000000000E+00
(PID.TID 0000.0001) %MON thSI_Tsrf_min_N              =  -8.5762288126270E+00
(PID.TID 0000.0001) %MON thSI_Tsrf_max_S              =   0.0000000000000E+00
(PID.TID 0000.0001) %MON thSI_Tsrf_max_N              =  -8.2797793460321E+00
(PID.TID 0000.0001) %MON thSI_Tic1_ave_G              =  -6.0750224094922E+00
(PID.TID 0000.0001) %MON thSI_Tic1_ave_S              =   0.0000000000000E+00
(PID.TID 0000.0001) %MON thSI_Tic1_ave_N              =  -6.0750224094922E+00
(PID.TID 0000.0001) %MON thSI_Tic1_min_S              =   0.0000000000000E+00
(PID.TID 0000.0001) %MON thSI_Tic1_min_N              =  -6.1389547704623E+00
(PID.TID 0000.0001) %MON thSI_Tic1_max_S              =   0.0000000000000E+00
(PID.TID 0000.0001) %MON thSI_Tic1_max_N              =  -6.0133416727119E+00
(PID.TID 0000.0001) %MON thSI_Tic2_ave_G              =  -2.9196349985683E+00
(PID.TID 0000.0001) %MON thSI_Tic2_ave_S              =   0.0000000000000E+00
(PID.TID 0000.0001) %MON thSI_Tic2_ave_N              =  -2.9196349985683E+00
(PID.TID 0000.0001) %MON thSI_Tic2_min_S              =   0.0000000000000E+00
(PID.TID 0000.0001) %MON thSI_Tic2_min_N              =  -3.0049168159337E+00
(PID.TID 0000.0001) %MON thSI_Tic2_max_S              =   0.0000000000000E+00
(PID.TID 0000.0001) %MON thSI_Tic2_max_N              =  -2.8419667743761E+00
(PID.TID 0000.0001) // =======================================================
(PID.TID 0000.0001) // End MONITOR Therm.SeaIce statistics
(PID.TID 0000.0001) // =======================================================
 cg2d: Sum(rhs),rhsMax =  -3.78349795937538E-10  2.58668296397354E+04
(PID.TID 0000.0001)                    cg2d_init_res =    1.17164397536543E+04
(PID.TID 0000.0001)                       cg2d_iters =    16
(PID.TID 0000.0001)                         cg2d_res =    7.28607340605353E-11
(PID.TID 0000.0001) // =======================================================
(PID.TID 0000.0001) // Begin MONITOR dynamic field statistics
(PID.TID 0000.0001) // =======================================================
(PID.TID 0000.0001) %MON time_tsnumber                =                    22
(PID.TID 0000.0001) %MON time_secondsf                =   9.9000000000000E+03
(PID.TID 0000.0001) %MON dynstat_eta_max              =   4.4521007285702E+03
(PID.TID 0000.0001) %MON dynstat_eta_min              =  -9.2978538772039E+02
(PID.TID 0000.0001) %MON dynstat_eta_mean             =   2.5705212449625E-14
(PID.TID 0000.0001) %MON dynstat_eta_sd               =   5.5139702969502E+02
(PID.TID 0000.0001) %MON dynstat_eta_del2             =   3.6803277377830E+01
(PID.TID 0000.0001) %MON dynstat_uvel_max             =   5.9964713515033E+00
(PID.TID 0000.0001) %MON dynstat_uvel_min             =  -6.2276444472881E+00
(PID.TID 0000.0001) %MON dynstat_uvel_mean            =  -1.3793970244795E-03
(PID.TID 0000.0001) %MON dynstat_uvel_sd              =   8.2965602707218E-01
(PID.TID 0000.0001) %MON dynstat_uvel_del2            =   2.3112621938578E-02
(PID.TID 0000.0001) %MON dynstat_vvel_max             =   4.8152691669668E+00
(PID.TID 0000.0001) %MON dynstat_vvel_min             =  -5.9157918709844E+00
(PID.TID 0000.0001) %MON dynstat_vvel_mean            =   2.8709509123072E-02
(PID.TID 0000.0001) %MON dynstat_vvel_sd              =   8.0145161437403E-01
(PID.TID 0000.0001) %MON dynstat_vvel_del2            =   2.2192353987543E-02
(PID.TID 0000.0001) %MON dynstat_wvel_max             =   2.8667288335184E-01
(PID.TID 0000.0001) %MON dynstat_wvel_min             =  -1.2214553626145E-01
(PID.TID 0000.0001) %MON dynstat_wvel_mean            =   2.0617834457316E-04
(PID.TID 0000.0001) %MON dynstat_wvel_sd              =   9.6989765755782E-03
(PID.TID 0000.0001) %MON dynstat_wvel_del2            =   1.6139185435759E-03
(PID.TID 0000.0001) %MON dynstat_theta_max            =   4.3826084377546E+02
(PID.TID 0000.0001) %MON dynstat_theta_min            =   2.8432784066378E+02
(PID.TID 0000.0001) %MON dynstat_theta_mean           =   3.3169133313118E+02
(PID.TID 0000.0001) %MON dynstat_theta_sd             =   4.7447047713229E+01
(PID.TID 0000.0001) %MON dynstat_theta_del2           =   2.2944048724978E-02
(PID.TID 0000.0001) %MON dynstat_salt_max             =   4.3321491836412E+00
(PID.TID 0000.0001) %MON dynstat_salt_min             =  -6.3600508049992E-03
(PID.TID 0000.0001) %MON dynstat_salt_mean            =   8.0407055974628E-02
(PID.TID 0000.0001) %MON dynstat_salt_sd              =   3.2201900548550E-01
(PID.TID 0000.0001) %MON dynstat_salt_del2            =   9.9222716492391E-03
(PID.TID 0000.0001) %MON advcfl_uvel_max              =   8.8824832229701E-03
(PID.TID 0000.0001) %MON advcfl_vvel_max              =   8.4326513796213E-03
(PID.TID 0000.0001) %MON advcfl_wvel_max              =   4.6910108184846E-03
(PID.TID 0000.0001) %MON advcfl_W_hf_max              =   1.6268776284470E-02
(PID.TID 0000.0001) %MON pe_b_mean                    =  -1.1810428042898E+00
(PID.TID 0000.0001) %MON ke_max                       =   1.8546521693183E+01
(PID.TID 0000.0001) %MON ke_mean                      =   6.6120989319870E-01
(PID.TID 0000.0001) %MON ke_vol                       =   4.9523908919847E+19
(PID.TID 0000.0001) %MON vort_r_min                   =  -2.1360228574668E-05
(PID.TID 0000.0001) %MON vort_r_max                   =   7.7661440991447E-06
(PID.TID 0000.0001) %MON vort_a_mean                  =   6.7059142262088E-08
(PID.TID 0000.0001) %MON vort_a_sd                    =   8.3754478716932E-05
(PID.TID 0000.0001) %MON vort_p_mean                  =   6.8812057102969E-08
(PID.TID 0000.0001) %MON vort_p_sd                    =   9.1876828655836E-05
(PID.TID 0000.0001) %MON surfExpan_theta_mean         =  -2.3336186352442E-02
(PID.TID 0000.0001) %MON surfExpan_salt_mean          =  -6.9281920733661E-04
(PID.TID 0000.0001) %MON surfExpan_Heat_mean          =   1.5888714932121E+00
(PID.TID 0000.0001) %MON En_Budget_T2PE_mean          =  -3.2941898633232E+00
(PID.TID 0000.0001) // =======================================================
(PID.TID 0000.0001) // End MONITOR dynamic field statistics
(PID.TID 0000.0001) // =======================================================
(PID.TID 0000.0001) // =======================================================
(PID.TID 0000.0001) // Begin MONITOR Land statistics
(PID.TID 0000.0001) // =======================================================
(PID.TID 0000.0001) %MON land_time_sec                =   9.9000000000000E+03
(PID.TID 0000.0001) %MON land_SnwH_ave_G              =   1.5322653016515E-01
(PID.TID 0000.0001) %MON land_SnwH_ave_S              =   5.5904378525185E-01
(PID.TID 0000.0001) %MON land_SnwH_ave_T              =   0.0000000000000E+00
(PID.TID 0000.0001) %MON land_SnwH_ave_N              =   1.2390205582766E-01
(PID.TID 0000.0001) %MON land_SnwH_max_S              =   9.9998807226633E-01
(PID.TID 0000.0001) %MON land_SnwH_max_T              =   0.0000000000000E+00
(PID.TID 0000.0001) %MON land_SnwH_max_N              =   9.9999852714833E-01
(PID.TID 0000.0001) %MON land_TotEnerg_G              =  -6.3469605773838E+21
(PID.TID 0000.0001) %MON land_TotEnerg_S              =  -5.0019927895800E+21
(PID.TID 0000.0001) %MON land_TotEnerg_T              =   7.2801334335208E+21
(PID.TID 0000.0001) %MON land_TotEnerg_N              =  -8.6251012213246E+21
(PID.TID 0000.0001) %MON land_Tsrf_ave_G              =  -8.2747464170764E+00
(PID.TID 0000.0001) %MON land_Tsrf_ave_S              =  -7.3341990880551E+00
(PID.TID 0000.0001) %MON land_Tsrf_ave_T              =   1.0567947020731E+01
(PID.TID 0000.0001) %MON land_Tsrf_ave_N              =  -2.1162450763401E+01
(PID.TID 0000.0001) %MON land_Tsrf_min_S              =  -3.3743602783626E+01
(PID.TID 0000.0001) %MON land_Tsrf_min_T              =  -3.9500181541920E+00
(PID.TID 0000.0001) %MON land_Tsrf_min_N              =  -5.2054045259289E+01
(PID.TID 0000.0001) %MON land_Tsrf_max_S              =   2.0704897938253E+01
(PID.TID 0000.0001) %MON land_Tsrf_max_T              =   2.1114511493542E+01
(PID.TID 0000.0001) %MON land_Tsrf_max_N              =   8.8769947200240E+00
(PID.TID 0000.0001) %MON land_Tgr1_ave_G              =  -7.0298370487324E+00
(PID.TID 0000.0001) %MON land_Tgr1_ave_S              =  -7.0773965462017E+00
(PID.TID 0000.0001) %MON land_Tgr1_ave_T              =   1.0567947020731E+01
(PID.TID 0000.0001) %MON land_Tgr1_ave_N              =  -1.8765691697151E+01
(PID.TID 0000.0001) %MON land_Tgr1_min_S              =  -3.9240952845227E+01
(PID.TID 0000.0001) %MON land_Tgr1_min_T              =  -3.9500181541920E+00
(PID.TID 0000.0001) %MON land_Tgr1_min_N              =  -5.4732036368408E+01
(PID.TID 0000.0001) %MON land_Tgr1_max_S              =   2.0704897938253E+01
(PID.TID 0000.0001) %MON land_Tgr1_max_T              =   2.1114511493542E+01
(PID.TID 0000.0001) %MON land_Tgr1_max_N              =   8.8769947200240E+00
(PID.TID 0000.0001) %MON land_Tgr2_ave_G              =   4.2042598554524E+00
(PID.TID 0000.0001) %MON land_Tgr2_ave_S              =  -1.8727233883574E+01
(PID.TID 0000.0001) %MON land_Tgr2_ave_T              =   2.2009990464996E+01
(PID.TID 0000.0001) %MON land_Tgr2_ave_N              =  -2.4704654287578E-01
(PID.TID 0000.0001) %MON land_Tgr2_min_S              =  -6.4752784944568E+01
(PID.TID 0000.0001) %MON land_Tgr2_min_T              =  -9.7039793374314E+00
(PID.TID 0000.0001) %MON land_Tgr2_min_N              =  -4.0198872826156E+01
(PID.TID 0000.0001) %MON land_Tgr2_max_S              =   2.3360211497539E+01
(PID.TID 0000.0001) %MON land_Tgr2_max_T              =   3.1353059004044E+01
(PID.TID 0000.0001) %MON land_Tgr2_max_N              =   2.9823207187135E+01
(PID.TID 0000.0001) %MON land_grdW_ave_G              =   4.8678210779459E-01
(PID.TID 0000.0001) %MON land_grdW_ave_S              =   3.0854830543977E-01
(PID.TID 0000.0001) %MON land_grdW_ave_T              =   5.6424128726908E-01
(PID.TID 0000.0001) %MON land_grdW_ave_N              =   4.9287510526525E-01
(PID.TID 0000.0001) %MON land_grdW_min_S              =   2.7247261623003E-02
(PID.TID 0000.0001) %MON land_grdW_min_T              =   0.0000000000000E+00
(PID.TID 0000.0001) %MON land_grdW_min_N              =   0.0000000000000E+00
(PID.TID 0000.0001) // =======================================================
(PID.TID 0000.0001) // End MONITOR Land statistics
(PID.TID 0000.0001) // =======================================================
(PID.TID 0000.0001) // =======================================================
(PID.TID 0000.0001) // Begin MONITOR Therm.SeaIce statistics
(PID.TID 0000.0001) // =======================================================
(PID.TID 0000.0001) %MON thSI_time_sec                =   9.9000000000000E+03
(PID.TID 0000.0001) %MON thSI_Ice_Area_G              =   1.6939896034210E+11
(PID.TID 0000.0001) %MON thSI_Ice_Area_S              =   0.0000000000000E+00
(PID.TID 0000.0001) %MON thSI_Ice_Area_N              =   1.6939896034210E+11
(PID.TID 0000.0001) %MON thSI_IceH_ave_G              =   1.3760196784250E-01
(PID.TID 0000.0001) %MON thSI_IceH_ave_S              =   0.0000000000000E+00
(PID.TID 0000.0001) %MON thSI_IceH_ave_N              =   1.3760196784250E-01
(PID.TID 0000.0001) %MON thSI_IceH_max_S              =   0.0000000000000E+00
(PID.TID 0000.0001) %MON thSI_IceH_max_N              =   1.4682918337203E-01
(PID.TID 0000.0001) %MON thSI_SnwH_ave_G              =   0.0000000000000E+00
(PID.TID 0000.0001) %MON thSI_SnwH_ave_S              =   0.0000000000000E+00
(PID.TID 0000.0001) %MON thSI_SnwH_ave_N              =   0.0000000000000E+00
(PID.TID 0000.0001) %MON thSI_SnwH_max_S              =   0.0000000000000E+00
(PID.TID 0000.0001) %MON thSI_SnwH_max_N              =   0.0000000000000E+00
(PID.TID 0000.0001) %MON thSI_TotEnerg_G              =  -7.1794017504475E+18
(PID.TID 0000.0001) %MON thSI_Tsrf_ave_G              =  -8.5841207650670E+00
(PID.TID 0000.0001) %MON thSI_Tsrf_ave_S              =   0.0000000000000E+00
(PID.TID 0000.0001) %MON thSI_Tsrf_ave_N              =  -8.5841207650670E+00
(PID.TID 0000.0001) %MON thSI_Tsrf_min_S              =   0.0000000000000E+00
(PID.TID 0000.0001) %MON thSI_Tsrf_min_N              =  -8.6859825035368E+00
(PID.TID 0000.0001) %MON thSI_Tsrf_max_S              =   0.0000000000000E+00
(PID.TID 0000.0001) %MON thSI_Tsrf_max_N              =  -8.3774270122910E+00
(PID.TID 0000.0001) %MON thSI_Tic1_ave_G              =  -6.1966245435282E+00
(PID.TID 0000.0001) %MON thSI_Tic1_ave_S              =   0.0000000000000E+00
(PID.TID 0000.0001) %MON thSI_Tic1_ave_N              =  -6.1966245435282E+00
(PID.TID 0000.0001) %MON thSI_Tic1_min_S              =   0.0000000000000E+00
(PID.TID 0000.0001) %MON thSI_Tic1_min_N              =  -6.2528802377196E+00
(PID.TID 0000.0001) %MON thSI_Tic1_max_S              =   0.0000000000000E+00
(PID.TID 0000.0001) %MON thSI_Tic1_max_N              =  -6.1410357398919E+00
(PID.TID 0000.0001) %MON thSI_Tic2_ave_G              =  -2.9698323550670E+00
(PID.TID 0000.0001) %MON thSI_Tic2_ave_S              =   0.0000000000000E+00
(PID.TID 0000.0001) %MON thSI_Tic2_ave_N              =  -2.9698323550670E+00
(PID.TID 0000.0001) %MON thSI_Tic2_min_S              =   0.0000000000000E+00
(PID.TID 0000.0001) %MON thSI_Tic2_min_N              =  -3.0517975636231E+00
(PID.TID 0000.0001) %MON thSI_Tic2_max_S              =   0.0000000000000E+00
(PID.TID 0000.0001) %MON thSI_Tic2_max_N              =  -2.8945647941486E+00
(PID.TID 0000.0001) // =======================================================
(PID.TID 0000.0001) // End MONITOR Therm.SeaIce statistics
(PID.TID 0000.0001) // =======================================================
 cg2d: Sum(rhs),rhsMax =   2.91038304567337E-11  2.51984834440090E+04
(PID.TID 0000.0001)                    cg2d_init_res =    1.16151532155378E+04
(PID.TID 0000.0001)                       cg2d_iters =    16
(PID.TID 0000.0001)                         cg2d_res =    7.28078474891911E-11
(PID.TID 0000.0001) // =======================================================
(PID.TID 0000.0001) // Begin MONITOR dynamic field statistics
(PID.TID 0000.0001) // =======================================================
(PID.TID 0000.0001) %MON time_tsnumber                =                    23
(PID.TID 0000.0001) %MON time_secondsf                =   1.0350000000000E+04
(PID.TID 0000.0001) %MON dynstat_eta_max              =   4.2866303184725E+03
(PID.TID 0000.0001) %MON dynstat_eta_min              =  -8.9149835090037E+02
(PID.TID 0000.0001) %MON dynstat_eta_mean             =  -2.7311788227727E-14
(PID.TID 0000.0001) %MON dynstat_eta_sd               =   5.4420539194287E+02
(PID.TID 0000.0001) %MON dynstat_eta_del2             =   3.6715205824357E+01
(PID.TID 0000.0001) %MON dynstat_uvel_max             =   5.9459568913632E+00
(PID.TID 0000.0001) %MON dynstat_uvel_min             =  -6.0228415581878E+00
(PID.TID 0000.0001) %MON dynstat_uvel_mean            =   1.7995426347735E-03
(PID.TID 0000.0001) %MON dynstat_uvel_sd              =   8.3197202317516E-01
(PID.TID 0000.0001) %MON dynstat_uvel_del2            =   2.3600292084155E-02
(PID.TID 0000.0001) %MON dynstat_vvel_max             =   4.9554070182117E+00
(PID.TID 0000.0001) %MON dynstat_vvel_min             =  -6.1186061553496E+00
(PID.TID 0000.0001) %MON dynstat_vvel_mean            =   2.8650776334493E-02
(PID.TID 0000.0001) %MON dynstat_vvel_sd              =   8.0425022881631E-01
(PID.TID 0000.0001) %MON dynstat_vvel_del2            =   2.2622143141525E-02
(PID.TID 0000.0001) %MON dynstat_wvel_max             =   2.9107830345358E-01
(PID.TID 0000.0001) %MON dynstat_wvel_min             =  -1.3034789078208E-01
(PID.TID 0000.0001) %MON dynstat_wvel_mean            =   3.1413769895082E-04
(PID.TID 0000.0001) %MON dynstat_wvel_sd              =   1.0041507691526E-02
(PID.TID 0000.0001) %MON dynstat_wvel_del2            =   1.6749327095845E-03
(PID.TID 0000.0001) %MON dynstat_theta_max            =   4.3821481782793E+02
(PID.TID 0000.0001) %MON dynstat_theta_min            =   2.8410401449577E+02
(PID.TID 0000.0001) %MON dynstat_theta_mean           =   3.3168938976424E+02
(PID.TID 0000.0001) %MON dynstat_theta_sd             =   4.7449063401031E+01
(PID.TID 0000.0001) %MON dynstat_theta_del2           =   2.3799296815698E-02
(PID.TID 0000.0001) %MON dynstat_salt_max             =   4.3951093410357E+00
(PID.TID 0000.0001) %MON dynstat_salt_min             =  -8.1029943128483E-03
(PID.TID 0000.0001) %MON dynstat_salt_mean            =   8.3815428246474E-02
(PID.TID 0000.0001) %MON dynstat_salt_sd              =   3.3430221484301E-01
(PID.TID 0000.0001) %MON dynstat_salt_del2            =   1.0247198246243E-02
(PID.TID 0000.0001) %MON advcfl_uvel_max              =   8.5903730612794E-03
(PID.TID 0000.0001) %MON advcfl_vvel_max              =   8.7217525164019E-03
(PID.TID 0000.0001) %MON advcfl_wvel_max              =   4.7630995110586E-03
(PID.TID 0000.0001) %MON advcfl_W_hf_max              =   1.6129704198827E-02
(PID.TID 0000.0001) %MON pe_b_mean                    =  -1.1931424729450E+00
(PID.TID 0000.0001) %MON ke_max                       =   1.7691780051342E+01
(PID.TID 0000.0001) %MON ke_mean                      =   6.6535111320930E-01
(PID.TID 0000.0001) %MON ke_vol                       =   4.9523908919848E+19
(PID.TID 0000.0001) %MON vort_r_min                   =  -2.2173463287422E-05
(PID.TID 0000.0001) %MON vort_r_max                   =   8.2459304589077E-06
(PID.TID 0000.0001) %MON vort_a_mean                  =   6.7059142262083E-08
(PID.TID 0000.0001) %MON vort_a_sd                    =   8.3757131804743E-05
(PID.TID 0000.0001) %MON vort_p_mean                  =   6.8811918795546E-08
(PID.TID 0000.0001) %MON vort_p_sd                    =   9.1858711151050E-05
(PID.TID 0000.0001) %MON surfExpan_theta_mean         =  -3.3699980803491E-02
(PID.TID 0000.0001) %MON surfExpan_salt_mean          =  -7.8080866661626E-04
(PID.TID 0000.0001) %MON surfExpan_Heat_mean          =   2.4631651099915E+00
(PID.TID 0000.0001) %MON En_Budget_T2PE_mean          =  -4.9330845792400E+00
(PID.TID 0000.0001) // =======================================================
(PID.TID 0000.0001) // End MONITOR dynamic field statistics
(PID.TID 0000.0001) // =======================================================
(PID.TID 0000.0001) // =======================================================
(PID.TID 0000.0001) // Begin MONITOR Land statistics
(PID.TID 0000.0001) // =======================================================
(PID.TID 0000.0001) %MON land_time_sec                =   1.0350000000000E+04
(PID.TID 0000.0001) %MON land_SnwH_ave_G              =   1.5322556970555E-01
(PID.TID 0000.0001) %MON land_SnwH_ave_S              =   5.5904291015550E-01
(PID.TID 0000.0001) %MON land_SnwH_ave_T              =   0.0000000000000E+00
(PID.TID 0000.0001) %MON land_SnwH_ave_N              =   1.2390042631006E-01
(PID.TID 0000.0001) %MON land_SnwH_max_S              =   9.9998751079123E-01
(PID.TID 0000.0001) %MON land_SnwH_max_T              =   0.0000000000000E+00
(PID.TID 0000.0001) %MON land_SnwH_max_N              =   9.9999846366054E-01
(PID.TID 0000.0001) %MON land_TotEnerg_G              =  -6.3486151366527E+21
(PID.TID 0000.0001) %MON land_TotEnerg_S              =  -5.0020880400574E+21
(PID.TID 0000.0001) %MON land_TotEnerg_T              =   7.2792029541141E+21
(PID.TID 0000.0001) %MON land_TotEnerg_N              =  -8.6257300507093E+21
(PID.TID 0000.0001) %MON land_Tsrf_ave_G              =  -8.3210570592618E+00
(PID.TID 0000.0001) %MON land_Tsrf_ave_S              =  -7.3357043441439E+00
(PID.TID 0000.0001) %MON land_Tsrf_ave_T              =   1.0462668369230E+01
(PID.TID 0000.0001) %MON land_Tsrf_ave_N              =  -2.1183918897431E+01
(PID.TID 0000.0001) %MON land_Tsrf_min_S              =  -3.3741504751731E+01
(PID.TID 0000.0001) %MON land_Tsrf_min_T              =  -3.8250222716657E+00
(PID.TID 0000.0001) %MON land_Tsrf_min_N              =  -5.2054205506464E+01
(PID.TID 0000.0001) %MON land_Tsrf_max_S              =   2.0587048778428E+01
(PID.TID 0000.0001) %MON land_Tsrf_max_T              =   2.0925946438075E+01
(PID.TID 0000.0001) %MON land_Tsrf_max_N              =   8.7357802951168E+00
(PID.TID 0000.0001) %MON land_Tgr1_ave_G              =  -7.0845123071716E+00
(PID.TID 0000.0001) %MON land_Tgr1_ave_S              =  -7.1113514443454E+00
(PID.TID 0000.0001) %MON land_Tgr1_ave_T              =   1.0462668369230E+01
(PID.TID 0000.0001) %MON land_Tgr1_ave_N              =  -1.8793297056552E+01
(PID.TID 0000.0001) %MON land_Tgr1_min_S              =  -3.9252023840994E+01
(PID.TID 0000.0001) %MON land_Tgr1_min_T              =  -3.8250222716657E+00
(PID.TID 0000.0001) %MON land_Tgr1_min_N              =  -5.4719516627976E+01
(PID.TID 0000.0001) %MON land_Tgr1_max_S              =   2.0587048778428E+01
(PID.TID 0000.0001) %MON land_Tgr1_max_T              =   2.0925946438075E+01
(PID.TID 0000.0001) %MON land_Tgr1_max_N              =   8.7357802951168E+00
(PID.TID 0000.0001) %MON land_Tgr2_ave_G              =   4.2040867310187E+00
(PID.TID 0000.0001) %MON land_Tgr2_ave_S              =  -1.8727039236647E+01
(PID.TID 0000.0001) %MON land_Tgr2_ave_T              =   2.2009803447695E+01
(PID.TID 0000.0001) %MON land_Tgr2_ave_N              =  -2.4732969284993E-01
(PID.TID 0000.0001) %MON land_Tgr2_min_S              =  -6.4752355064633E+01
(PID.TID 0000.0001) %MON land_Tgr2_min_T              =  -9.7039050562117E+00
(PID.TID 0000.0001) %MON land_Tgr2_min_N              =  -4.0199108816239E+01
(PID.TID 0000.0001) %MON land_Tgr2_max_S              =   2.3360151743471E+01
(PID.TID 0000.0001) %MON land_Tgr2_max_T              =   3.1352634429862E+01
(PID.TID 0000.0001) %MON land_Tgr2_max_N              =   2.9822690722199E+01
(PID.TID 0000.0001) %MON land_grdW_ave_G              =   4.8677405062858E-01
(PID.TID 0000.0001) %MON land_grdW_ave_S              =   3.0854038972382E-01
(PID.TID 0000.0001) %MON land_grdW_ave_T              =   5.6422154058519E-01
(PID.TID 0000.0001) %MON land_grdW_ave_N              =   4.9287480812996E-01
(PID.TID 0000.0001) %MON land_grdW_min_S              =   2.7333934571442E-02
(PID.TID 0000.0001) %MON land_grdW_min_T              =   0.0000000000000E+00
(PID.TID 0000.0001) %MON land_grdW_min_N              =   0.0000000000000E+00
(PID.TID 0000.0001) // =======================================================
(PID.TID 0000.0001) // End MONITOR Land statistics
(PID.TID 0000.0001) // =======================================================
(PID.TID 0000.0001) // =======================================================
(PID.TID 0000.0001) // Begin MONITOR Therm.SeaIce statistics
(PID.TID 0000.0001) // =======================================================
(PID.TID 0000.0001) %MON thSI_time_sec                =   1.0350000000000E+04
(PID.TID 0000.0001) %MON thSI_Ice_Area_G              =   1.7125544321492E+11
(PID.TID 0000.0001) %MON thSI_Ice_Area_S              =   0.0000000000000E+00
(PID.TID 0000.0001) %MON thSI_Ice_Area_N              =   1.7125544321492E+11
(PID.TID 0000.0001) %MON thSI_IceH_ave_G              =   1.3828483764995E-01
(PID.TID 0000.0001) %MON thSI_IceH_ave_S              =   0.0000000000000E+00
(PID.TID 0000.0001) %MON thSI_IceH_ave_N              =   1.3828483764995E-01
(PID.TID 0000.0001) %MON thSI_IceH_max_S              =   0.0000000000000E+00
(PID.TID 0000.0001) %MON thSI_IceH_max_N              =   1.4758772486413E-01
(PID.TID 0000.0001) %MON thSI_SnwH_ave_G              =   0.0000000000000E+00
(PID.TID 0000.0001) %MON thSI_SnwH_ave_S              =   0.0000000000000E+00
(PID.TID 0000.0001) %MON thSI_SnwH_ave_N              =   0.0000000000000E+00
(PID.TID 0000.0001) %MON thSI_SnwH_max_S              =   0.0000000000000E+00
(PID.TID 0000.0001) %MON thSI_SnwH_max_N              =   0.0000000000000E+00
(PID.TID 0000.0001) %MON thSI_TotEnerg_G              =  -7.2982087501243E+18
(PID.TID 0000.0001) %MON thSI_Tsrf_ave_G              =  -8.6823112798553E+00
(PID.TID 0000.0001) %MON thSI_Tsrf_ave_S              =   0.0000000000000E+00
(PID.TID 0000.0001) %MON thSI_Tsrf_ave_N              =  -8.6823112798553E+00
(PID.TID 0000.0001) %MON thSI_Tsrf_min_S              =   0.0000000000000E+00
(PID.TID 0000.0001) %MON thSI_Tsrf_min_N              =  -8.7897591129824E+00
(PID.TID 0000.0001) %MON thSI_Tsrf_max_S              =   0.0000000000000E+00
(PID.TID 0000.0001) %MON thSI_Tsrf_max_N              =  -8.4663423864747E+00
(PID.TID 0000.0001) %MON thSI_Tic1_ave_G              =  -6.3094364866919E+00
(PID.TID 0000.0001) %MON thSI_Tic1_ave_S              =   0.0000000000000E+00
(PID.TID 0000.0001) %MON thSI_Tic1_ave_N              =  -6.3094364866919E+00
(PID.TID 0000.0001) %MON thSI_Tic1_min_S              =   0.0000000000000E+00
(PID.TID 0000.0001) %MON thSI_Tic1_min_N              =  -6.3575998701220E+00
(PID.TID 0000.0001) %MON thSI_Tic1_max_S              =   0.0000000000000E+00
(PID.TID 0000.0001) %MON thSI_Tic1_max_N              =  -6.2582404676028E+00
(PID.TID 0000.0001) %MON thSI_Tic2_ave_G              =  -3.0162174873247E+00
(PID.TID 0000.0001) %MON thSI_Tic2_ave_S              =   0.0000000000000E+00
(PID.TID 0000.0001) %MON thSI_Tic2_ave_N              =  -3.0162174873247E+00
(PID.TID 0000.0001) %MON thSI_Tic2_min_S              =   0.0000000000000E+00
(PID.TID 0000.0001) %MON thSI_Tic2_min_N              =  -3.0947627975273E+00
(PID.TID 0000.0001) %MON thSI_Tic2_max_S              =   0.0000000000000E+00
(PID.TID 0000.0001) %MON thSI_Tic2_max_N              =  -2.9435041350683E+00
(PID.TID 0000.0001) // =======================================================
(PID.TID 0000.0001) // End MONITOR Therm.SeaIce statistics
(PID.TID 0000.0001) // =======================================================
 cg2d: Sum(rhs),rhsMax =  -1.74622982740402E-10  2.43822726532407E+04
(PID.TID 0000.0001)                    cg2d_init_res =    1.15191866550750E+04
(PID.TID 0000.0001)                       cg2d_iters =    16
(PID.TID 0000.0001)                         cg2d_res =    7.36142568326757E-11
(PID.TID 0000.0001) // =======================================================
(PID.TID 0000.0001) // Begin MONITOR dynamic field statistics
(PID.TID 0000.0001) // =======================================================
(PID.TID 0000.0001) %MON time_tsnumber                =                    24
(PID.TID 0000.0001) %MON time_secondsf                =   1.0800000000000E+04
(PID.TID 0000.0001) %MON dynstat_eta_max              =   4.1097799058265E+03
(PID.TID 0000.0001) %MON dynstat_eta_min              =  -8.5393579562602E+02
(PID.TID 0000.0001) %MON dynstat_eta_mean             =  -6.7476182680265E-14
(PID.TID 0000.0001) %MON dynstat_eta_sd               =   5.3565338866410E+02
(PID.TID 0000.0001) %MON dynstat_eta_del2             =   3.6618529111913E+01
(PID.TID 0000.0001) %MON dynstat_uvel_max             =   5.8772808843013E+00
(PID.TID 0000.0001) %MON dynstat_uvel_min             =  -6.0396402543344E+00
(PID.TID 0000.0001) %MON dynstat_uvel_mean            =   5.5755892259740E-03
(PID.TID 0000.0001) %MON dynstat_uvel_sd              =   8.3219047152978E-01
(PID.TID 0000.0001) %MON dynstat_uvel_del2            =   2.4099488463891E-02
(PID.TID 0000.0001) %MON dynstat_vvel_max             =   5.0443709556503E+00
(PID.TID 0000.0001) %MON dynstat_vvel_min             =  -6.2510692096278E+00
(PID.TID 0000.0001) %MON dynstat_vvel_mean            =   2.8345115972507E-02
(PID.TID 0000.0001) %MON dynstat_vvel_sd              =   8.0775038658489E-01
(PID.TID 0000.0001) %MON dynstat_vvel_del2            =   2.3090001260380E-02
(PID.TID 0000.0001) %MON dynstat_wvel_max             =   2.8446708307551E-01
(PID.TID 0000.0001) %MON dynstat_wvel_min             =  -1.3545231055099E-01
(PID.TID 0000.0001) %MON dynstat_wvel_mean            =   4.0477221516478E-04
(PID.TID 0000.0001) %MON dynstat_wvel_sd              =   1.0296482496851E-02
(PID.TID 0000.0001) %MON dynstat_wvel_del2            =   1.7346877685224E-03
(PID.TID 0000.0001) %MON dynstat_theta_max            =   4.3814636414141E+02
(PID.TID 0000.0001) %MON dynstat_theta_min            =   2.8388152617913E+02
(PID.TID 0000.0001) %MON dynstat_theta_mean           =   3.3168740638064E+02
(PID.TID 0000.0001) %MON dynstat_theta_sd             =   4.7451089339449E+01
(PID.TID 0000.0001) %MON dynstat_theta_del2           =   2.4670475928225E-02
(PID.TID 0000.0001) %MON dynstat_salt_max             =   4.4540953814414E+00
(PID.TID 0000.0001) %MON dynstat_salt_min             =  -9.9106550411649E-03
(PID.TID 0000.0001) %MON dynstat_salt_mean            =   8.7211185013804E-02
(PID.TID 0000.0001) %MON dynstat_salt_sd              =   3.4646441395268E-01
(PID.TID 0000.0001) %MON dynstat_salt_del2            =   1.0573940844184E-02
(PID.TID 0000.0001) %MON advcfl_uvel_max              =   8.4269136883567E-03
(PID.TID 0000.0001) %MON advcfl_vvel_max              =   8.9105716604436E-03
(PID.TID 0000.0001) %MON advcfl_wvel_max              =   4.6549159048719E-03
(PID.TID 0000.0001) %MON advcfl_W_hf_max              =   1.6230386160027E-02
(PID.TID 0000.0001) %MON pe_b_mean                    =  -1.2038571749719E+00
(PID.TID 0000.0001) %MON ke_max                       =   1.8331724654536E+01
(PID.TID 0000.0001) %MON ke_mean                      =   6.6834071127555E-01
(PID.TID 0000.0001) %MON ke_vol                       =   4.9523908919847E+19
(PID.TID 0000.0001) %MON vort_r_min                   =  -2.2565212687466E-05
(PID.TID 0000.0001) %MON vort_r_max                   =   8.7261470059743E-06
(PID.TID 0000.0001) %MON vort_a_mean                  =   6.7059142262011E-08
(PID.TID 0000.0001) %MON vort_a_sd                    =   8.3759746961333E-05
(PID.TID 0000.0001) %MON vort_p_mean                  =   6.8811520342256E-08
(PID.TID 0000.0001) %MON vort_p_sd                    =   9.1837900435694E-05
(PID.TID 0000.0001) %MON surfExpan_theta_mean         =  -4.2325430441417E-02
(PID.TID 0000.0001) %MON surfExpan_salt_mean          =  -8.7391735152572E-04
(PID.TID 0000.0001) %MON surfExpan_Heat_mean          =   3.1941324432002E+00
(PID.TID 0000.0001) %MON En_Budget_T2PE_mean          =  -6.3016090261014E+00
(PID.TID 0000.0001) // =======================================================
(PID.TID 0000.0001) // End MONITOR dynamic field statistics
(PID.TID 0000.0001) // =======================================================
(PID.TID 0000.0001) // =======================================================
(PID.TID 0000.0001) // Begin MONITOR Land statistics
(PID.TID 0000.0001) // =======================================================
(PID.TID 0000.0001) %MON land_time_sec                =   1.0800000000000E+04
(PID.TID 0000.0001) %MON land_SnwH_ave_G              =   1.5322461094250E-01
(PID.TID 0000.0001) %MON land_SnwH_ave_S              =   5.5904203230474E-01
(PID.TID 0000.0001) %MON land_SnwH_ave_T              =   0.0000000000000E+00
(PID.TID 0000.0001) %MON land_SnwH_ave_N              =   1.2389880106578E-01
(PID.TID 0000.0001) %MON land_SnwH_max_S              =   9.9998695027198E-01
(PID.TID 0000.0001) %MON land_SnwH_max_T              =   0.0000000000000E+00
(PID.TID 0000.0001) %MON land_SnwH_max_N              =   9.9999840014098E-01
(PID.TID 0000.0001) %MON land_TotEnerg_G              =  -6.3501662958507E+21
(PID.TID 0000.0001) %MON land_TotEnerg_S              =  -5.0021693002476E+21
(PID.TID 0000.0001) %MON land_TotEnerg_T              =   7.2783495069928E+21
(PID.TID 0000.0001) %MON land_TotEnerg_N              =  -8.6263465025959E+21
(PID.TID 0000.0001) %MON land_Tsrf_ave_G              =  -8.3630746546533E+00
(PID.TID 0000.0001) %MON land_Tsrf_ave_S              =  -7.3356278168200E+00
(PID.TID 0000.0001) %MON land_Tsrf_ave_T              =   1.0366229197088E+01
(PID.TID 0000.0001) %MON land_Tsrf_ave_N              =  -2.1203250441304E+01
(PID.TID 0000.0001) %MON land_Tsrf_min_S              =  -3.3736287470519E+01
(PID.TID 0000.0001) %MON land_Tsrf_min_T              =  -3.7038040341870E+00
(PID.TID 0000.0001) %MON land_Tsrf_min_N              =  -5.2052221239799E+01
(PID.TID 0000.0001) %MON land_Tsrf_max_S              =   2.0483301614485E+01
(PID.TID 0000.0001) %MON land_Tsrf_max_T              =   2.0756649901754E+01
(PID.TID 0000.0001) %MON land_Tsrf_max_N              =   8.6028073594259E+00
(PID.TID 0000.0001) %MON land_Tgr1_ave_G              =  -7.1345182208817E+00
(PID.TID 0000.0001) %MON land_Tgr1_ave_S              =  -7.1412563236490E+00
(PID.TID 0000.0001) %MON land_Tgr1_ave_T              =   1.0366229197088E+01
(PID.TID 0000.0001) %MON land_Tgr1_ave_N              =  -1.8818816858944E+01
(PID.TID 0000.0001) %MON land_Tgr1_min_S              =  -3.9263050407377E+01
(PID.TID 0000.0001) %MON land_Tgr1_min_T              =  -3.7038040341870E+00
(PID.TID 0000.0001) %MON land_Tgr1_min_N              =  -5.4707015635528E+01
(PID.TID 0000.0001) %MON land_Tgr1_max_S              =   2.0483301614485E+01
(PID.TID 0000.0001) %MON land_Tgr1_max_T              =   2.0756649901754E+01
(PID.TID 0000.0001) %MON land_Tgr1_max_N              =   8.6028073594259E+00
(PID.TID 0000.0001) %MON land_Tgr2_ave_G              =   4.2039128687594E+00
(PID.TID 0000.0001) %MON land_Tgr2_ave_S              =  -1.8726845066220E+01
(PID.TID 0000.0001) %MON land_Tgr2_ave_T              =   2.2009615054570E+01
(PID.TID 0000.0001) %MON land_Tgr2_ave_N              =  -2.4761323938485E-01
(PID.TID 0000.0001) %MON land_Tgr2_min_S              =  -6.4751925393343E+01
(PID.TID 0000.0001) %MON land_Tgr2_min_T              =  -9.7038292445680E+00
(PID.TID 0000.0001) %MON land_Tgr2_min_N              =  -4.0199344569979E+01
(PID.TID 0000.0001) %MON land_Tgr2_max_S              =   2.3360089869000E+01
(PID.TID 0000.0001) %MON land_Tgr2_max_T              =   3.1352206892400E+01
(PID.TID 0000.0001) %MON land_Tgr2_max_N              =   2.9822169038822E+01
(PID.TID 0000.0001) %MON land_grdW_ave_G              =   4.8676612787114E-01
(PID.TID 0000.0001) %MON land_grdW_ave_S              =   3.0853255904890E-01
(PID.TID 0000.0001) %MON land_grdW_ave_T              =   5.6420215061043E-01
(PID.TID 0000.0001) %MON land_grdW_ave_N              =   4.9287451297199E-01
(PID.TID 0000.0001) %MON land_grdW_min_S              =   2.7420815874094E-02
(PID.TID 0000.0001) %MON land_grdW_min_T              =   0.0000000000000E+00
(PID.TID 0000.0001) %MON land_grdW_min_N              =   0.0000000000000E+00
(PID.TID 0000.0001) // =======================================================
(PID.TID 0000.0001) // End MONITOR Land statistics
(PID.TID 0000.0001) // =======================================================
(PID.TID 0000.0001) // =======================================================
(PID.TID 0000.0001) // Begin MONITOR Therm.SeaIce statistics
(PID.TID 0000.0001) // =======================================================
(PID.TID 0000.0001) %MON thSI_time_sec                =   1.0800000000000E+04
(PID.TID 0000.0001) %MON thSI_Ice_Area_G              =   1.7309406946969E+11
(PID.TID 0000.0001) %MON thSI_Ice_Area_S              =   0.0000000000000E+00
(PID.TID 0000.0001) %MON thSI_Ice_Area_N              =   1.7309406946969E+11
(PID.TID 0000.0001) %MON thSI_IceH_ave_G              =   1.3897111012771E-01
(PID.TID 0000.0001) %MON thSI_IceH_ave_S              =   0.0000000000000E+00
(PID.TID 0000.0001) %MON thSI_IceH_ave_N              =   1.3897111012771E-01
(PID.TID 0000.0001) %MON thSI_IceH_max_S              =   0.0000000000000E+00
(PID.TID 0000.0001) %MON thSI_IceH_max_N              =   1.4834944329787E-01
(PID.TID 0000.0001) %MON thSI_SnwH_ave_G              =   0.0000000000000E+00
(PID.TID 0000.0001) %MON thSI_SnwH_ave_S              =   0.0000000000000E+00
(PID.TID 0000.0001) %MON thSI_SnwH_ave_N              =   0.0000000000000E+00
(PID.TID 0000.0001) %MON thSI_SnwH_max_S              =   0.0000000000000E+00
(PID.TID 0000.0001) %MON thSI_SnwH_max_N              =   0.0000000000000E+00
(PID.TID 0000.0001) %MON thSI_TotEnerg_G              =  -7.4170194478479E+18
(PID.TID 0000.0001) %MON thSI_Tsrf_ave_G              =  -8.7733073711864E+00
(PID.TID 0000.0001) %MON thSI_Tsrf_ave_S              =   0.0000000000000E+00
(PID.TID 0000.0001) %MON thSI_Tsrf_ave_N              =  -8.7733073711864E+00
(PID.TID 0000.0001) %MON thSI_Tsrf_min_S              =   0.0000000000000E+00
(PID.TID 0000.0001) %MON thSI_Tsrf_min_N              =  -8.8866700328465E+00
(PID.TID 0000.0001) %MON thSI_Tsrf_max_S              =   0.0000000000000E+00
(PID.TID 0000.0001) %MON thSI_Tsrf_max_N              =  -8.5472584410128E+00
(PID.TID 0000.0001) %MON thSI_Tic1_ave_G              =  -6.4140274596381E+00
(PID.TID 0000.0001) %MON thSI_Tic1_ave_S              =   0.0000000000000E+00
(PID.TID 0000.0001) %MON thSI_Tic1_ave_N              =  -6.4140274596381E+00
(PID.TID 0000.0001) %MON thSI_Tic1_min_S              =   0.0000000000000E+00
(PID.TID 0000.0001) %MON thSI_Tic1_min_N              =  -6.4542369917515E+00
(PID.TID 0000.0001) %MON thSI_Tic1_max_S              =   0.0000000000000E+00
(PID.TID 0000.0001) %MON thSI_Tic1_max_N              =  -6.3631545535339E+00
(PID.TID 0000.0001) %MON thSI_Tic2_ave_G              =  -3.0591192287012E+00
(PID.TID 0000.0001) %MON thSI_Tic2_ave_S              =   0.0000000000000E+00
(PID.TID 0000.0001) %MON thSI_Tic2_ave_N              =  -3.0591192287012E+00
(PID.TID 0000.0001) %MON thSI_Tic2_min_S              =   0.0000000000000E+00
(PID.TID 0000.0001) %MON thSI_Tic2_min_N              =  -3.1341736441339E+00
(PID.TID 0000.0001) %MON thSI_Tic2_max_S              =   0.0000000000000E+00
(PID.TID 0000.0001) %MON thSI_Tic2_max_N              =  -2.9890827268249E+00
(PID.TID 0000.0001) // =======================================================
(PID.TID 0000.0001) // End MONITOR Therm.SeaIce statistics
(PID.TID 0000.0001) // =======================================================
 cg2d: Sum(rhs),rhsMax =  -1.22236087918282E-09  2.34795507381098E+04
(PID.TID 0000.0001)                    cg2d_init_res =    1.14257810676505E+04
(PID.TID 0000.0001)                       cg2d_iters =    16
(PID.TID 0000.0001)                         cg2d_res =    7.30948622030242E-11
(PID.TID 0000.0001) // =======================================================
(PID.TID 0000.0001) // Begin MONITOR dynamic field statistics
(PID.TID 0000.0001) // =======================================================
(PID.TID 0000.0001) %MON time_tsnumber                =                    25
(PID.TID 0000.0001) %MON time_secondsf                =   1.1250000000000E+04
(PID.TID 0000.0001) %MON dynstat_eta_max              =   3.9642000524145E+03
(PID.TID 0000.0001) %MON dynstat_eta_min              =  -8.1774798065708E+02
(PID.TID 0000.0001) %MON dynstat_eta_mean             =   4.8197273343047E-15
(PID.TID 0000.0001) %MON dynstat_eta_sd               =   5.2604828434860E+02
(PID.TID 0000.0001) %MON dynstat_eta_del2             =   3.6521135988575E+01
(PID.TID 0000.0001) %MON dynstat_uvel_max             =   5.7890021195670E+00
(PID.TID 0000.0001) %MON dynstat_uvel_min             =  -5.9513796137427E+00
(PID.TID 0000.0001) %MON dynstat_uvel_mean            =   9.9393393394765E-03
(PID.TID 0000.0001) %MON dynstat_uvel_sd              =   8.3040527430994E-01
(PID.TID 0000.0001) %MON dynstat_uvel_del2            =   2.4598878054618E-02
(PID.TID 0000.0001) %MON dynstat_vvel_max             =   5.1525227447441E+00
(PID.TID 0000.0001) %MON dynstat_vvel_min             =  -6.3103590334917E+00
(PID.TID 0000.0001) %MON dynstat_vvel_mean            =   2.7825252197726E-02
(PID.TID 0000.0001) %MON dynstat_vvel_sd              =   8.1139564305782E-01
(PID.TID 0000.0001) %MON dynstat_vvel_del2            =   2.3635985362256E-02
(PID.TID 0000.0001) %MON dynstat_wvel_max             =   2.6806446436485E-01
(PID.TID 0000.0001) %MON dynstat_wvel_min             =  -1.3734407130955E-01
(PID.TID 0000.0001) %MON dynstat_wvel_mean            =   4.7681320663832E-04
(PID.TID 0000.0001) %MON dynstat_wvel_sd              =   1.0460976523965E-02
(PID.TID 0000.0001) %MON dynstat_wvel_del2            =   1.7944592317192E-03
(PID.TID 0000.0001) %MON dynstat_theta_max            =   4.3805817704513E+02
(PID.TID 0000.0001) %MON dynstat_theta_min            =   2.8366038714034E+02
(PID.TID 0000.0001) %MON dynstat_theta_mean           =   3.3168538202011E+02
(PID.TID 0000.0001) %MON dynstat_theta_sd             =   4.7453125350561E+01
(PID.TID 0000.0001) %MON dynstat_theta_del2           =   2.5550832561727E-02
(PID.TID 0000.0001) %MON dynstat_salt_max             =   4.5095321534862E+00
(PID.TID 0000.0001) %MON dynstat_salt_min             =  -1.1782328333064E-02
(PID.TID 0000.0001) %MON dynstat_salt_mean            =   9.0593441273831E-02
(PID.TID 0000.0001) %MON dynstat_salt_sd              =   3.5850444187722E-01
(PID.TID 0000.0001) %MON dynstat_salt_del2            =   1.0899595006075E-02
(PID.TID 0000.0001) %MON advcfl_uvel_max              =   8.3037664860360E-03
(PID.TID 0000.0001) %MON advcfl_vvel_max              =   8.9950861981263E-03
(PID.TID 0000.0001) %MON advcfl_wvel_max              =   4.3865094168794E-03
(PID.TID 0000.0001) %MON advcfl_W_hf_max              =   1.6732122379678E-02
(PID.TID 0000.0001) %MON pe_b_mean                    =  -1.2128454861800E+00
(PID.TID 0000.0001) %MON ke_max                       =   1.8671198028162E+01
(PID.TID 0000.0001) %MON ke_mean                      =   6.6982086662312E-01
(PID.TID 0000.0001) %MON ke_vol                       =   4.9523908919847E+19
(PID.TID 0000.0001) %MON vort_r_min                   =  -2.2558007633823E-05
(PID.TID 0000.0001) %MON vort_r_max                   =   9.2083424326622E-06
(PID.TID 0000.0001) %MON vort_a_mean                  =   6.7059142262142E-08
(PID.TID 0000.0001) %MON vort_a_sd                    =   8.3762317906257E-05
(PID.TID 0000.0001) %MON vort_p_mean                  =   6.8810889247206E-08
(PID.TID 0000.0001) %MON vort_p_sd                    =   9.1815101232414E-05
(PID.TID 0000.0001) %MON surfExpan_theta_mean         =  -4.9093437547391E-02
(PID.TID 0000.0001) %MON surfExpan_salt_mean          =  -9.7089928360712E-04
(PID.TID 0000.0001) %MON surfExpan_Heat_mean          =   3.7716929319672E+00
(PID.TID 0000.0001) %MON En_Budget_T2PE_mean          =  -7.3808463114457E+00
(PID.TID 0000.0001) // =======================================================
(PID.TID 0000.0001) // End MONITOR dynamic field statistics
(PID.TID 0000.0001) // =======================================================
(PID.TID 0000.0001) // =======================================================
(PID.TID 0000.0001) // Begin MONITOR Land statistics
(PID.TID 0000.0001) // =======================================================
(PID.TID 0000.0001) %MON land_time_sec                =   1.1250000000000E+04
(PID.TID 0000.0001) %MON land_SnwH_ave_G              =   1.5322365387889E-01
(PID.TID 0000.0001) %MON land_SnwH_ave_S              =   5.5904115254810E-01
(PID.TID 0000.0001) %MON land_SnwH_ave_T              =   0.0000000000000E+00
(PID.TID 0000.0001) %MON land_SnwH_ave_N              =   1.2389717982534E-01
(PID.TID 0000.0001) %MON land_SnwH_max_S              =   9.9998639032557E-01
(PID.TID 0000.0001) %MON land_SnwH_max_T              =   0.0000000000000E+00
(PID.TID 0000.0001) %MON land_SnwH_max_N              =   9.9999833657076E-01
(PID.TID 0000.0001) %MON land_TotEnerg_G              =  -6.3516236161497E+21
(PID.TID 0000.0001) %MON land_TotEnerg_S              =  -5.0022380259432E+21
(PID.TID 0000.0001) %MON land_TotEnerg_T              =   7.2775654641360E+21
(PID.TID 0000.0001) %MON land_TotEnerg_N              =  -8.6269510543425E+21
(PID.TID 0000.0001) %MON land_Tsrf_ave_G              =  -8.4015700844790E+00
(PID.TID 0000.0001) %MON land_Tsrf_ave_S              =  -7.3357926533855E+00
(PID.TID 0000.0001) %MON land_Tsrf_ave_T              =   1.0278028829139E+01
(PID.TID 0000.0001) %MON land_Tsrf_ave_N              =  -2.1220988586150E+01
(PID.TID 0000.0001) %MON land_Tsrf_min_S              =  -3.3727927872289E+01
(PID.TID 0000.0001) %MON land_Tsrf_min_T              =  -3.5862838772026E+00
(PID.TID 0000.0001) %MON land_Tsrf_min_N              =  -5.2048606912118E+01
(PID.TID 0000.0001) %MON land_Tsrf_max_S              =   2.0392285865673E+01
(PID.TID 0000.0001) %MON land_Tsrf_max_T              =   2.0604899772672E+01
(PID.TID 0000.0001) %MON land_Tsrf_max_N              =   8.4777575419062E+00
(PID.TID 0000.0001) %MON land_Tgr1_ave_G              =  -7.1803929865454E+00
(PID.TID 0000.0001) %MON land_Tgr1_ave_S              =  -7.1675353007791E+00
(PID.TID 0000.0001) %MON land_Tgr1_ave_T              =   1.0278028829139E+01
(PID.TID 0000.0001) %MON land_Tgr1_ave_N              =  -1.8842784586578E+01
(PID.TID 0000.0001) %MON land_Tgr1_min_S              =  -3.9274033978969E+01
(PID.TID 0000.0001) %MON land_Tgr1_min_T              =  -3.5862838772026E+00
(PID.TID 0000.0001) %MON land_Tgr1_min_N              =  -5.4694531773021E+01
(PID.TID 0000.0001) %MON land_Tgr1_max_S              =   2.0392285865673E+01
(PID.TID 0000.0001) %MON land_Tgr1_max_T              =   2.0604899772672E+01
(PID.TID 0000.0001) %MON land_Tgr1_max_N              =   8.4777575419062E+00
(PID.TID 0000.0001) %MON land_Tgr2_ave_G              =   4.2037383195920E+00
(PID.TID 0000.0001) %MON land_Tgr2_ave_S              =  -1.8726651314916E+01
(PID.TID 0000.0001) %MON land_Tgr2_ave_T              =   2.2009425373362E+01
(PID.TID 0000.0001) %MON land_Tgr2_ave_N              =  -2.4789715824971E-01
(PID.TID 0000.0001) %MON land_Tgr2_min_S              =  -6.4751495930224E+01
(PID.TID 0000.0001) %MON land_Tgr2_min_T              =  -9.7037519492568E+00
(PID.TID 0000.0001) %MON land_Tgr2_min_N              =  -4.0199580087871E+01
(PID.TID 0000.0001) %MON land_Tgr2_max_S              =   2.3360026088496E+01
(PID.TID 0000.0001) %MON land_Tgr2_max_T              =   3.1351776575251E+01
(PID.TID 0000.0001) %MON land_Tgr2_max_N              =   2.9821642334698E+01
(PID.TID 0000.0001) %MON land_grdW_ave_G              =   4.8675832599056E-01
(PID.TID 0000.0001) %MON land_grdW_ave_S              =   3.0852480611527E-01
(PID.TID 0000.0001) %MON land_grdW_ave_T              =   5.6418308094549E-01
(PID.TID 0000.0001) %MON land_grdW_ave_N              =   4.9287421950834E-01
(PID.TID 0000.0001) %MON land_grdW_min_S              =   2.7507793184205E-02
(PID.TID 0000.0001) %MON land_grdW_min_T              =   0.0000000000000E+00
(PID.TID 0000.0001) %MON land_grdW_min_N              =   0.0000000000000E+00
(PID.TID 0000.0001) // =======================================================
(PID.TID 0000.0001) // End MONITOR Land statistics
(PID.TID 0000.0001) // =======================================================
(PID.TID 0000.0001) // =======================================================
(PID.TID 0000.0001) // Begin MONITOR Therm.SeaIce statistics
(PID.TID 0000.0001) // =======================================================
(PID.TID 0000.0001) %MON thSI_time_sec                =   1.1250000000000E+04
(PID.TID 0000.0001) %MON thSI_Ice_Area_G              =   1.7309406946969E+11
(PID.TID 0000.0001) %MON thSI_Ice_Area_S              =   0.0000000000000E+00
(PID.TID 0000.0001) %MON thSI_Ice_Area_N              =   1.7309406946969E+11
(PID.TID 0000.0001) %MON thSI_IceH_ave_G              =   1.3909112795051E-01
(PID.TID 0000.0001) %MON thSI_IceH_ave_S              =   0.0000000000000E+00
(PID.TID 0000.0001) %MON thSI_IceH_ave_N              =   1.3909112795051E-01
(PID.TID 0000.0001) %MON thSI_IceH_max_S              =   0.0000000000000E+00
(PID.TID 0000.0001) %MON thSI_IceH_max_N              =   1.4845706857895E-01
(PID.TID 0000.0001) %MON thSI_SnwH_ave_G              =   0.0000000000000E+00
(PID.TID 0000.0001) %MON thSI_SnwH_ave_S              =   0.0000000000000E+00
(PID.TID 0000.0001) %MON thSI_SnwH_ave_N              =   0.0000000000000E+00
(PID.TID 0000.0001) %MON thSI_SnwH_max_S              =   0.0000000000000E+00
(PID.TID 0000.0001) %MON thSI_SnwH_max_N              =   0.0000000000000E+00
(PID.TID 0000.0001) %MON thSI_TotEnerg_G              =  -7.4274579834277E+18
(PID.TID 0000.0001) %MON thSI_Tsrf_ave_G              =  -8.8578295748607E+00
(PID.TID 0000.0001) %MON thSI_Tsrf_ave_S              =   0.0000000000000E+00
(PID.TID 0000.0001) %MON thSI_Tsrf_ave_N              =  -8.8578295748607E+00
(PID.TID 0000.0001) %MON thSI_Tsrf_min_S              =   0.0000000000000E+00
(PID.TID 0000.0001) %MON thSI_Tsrf_min_N              =  -8.9771509906968E+00
(PID.TID 0000.0001) %MON thSI_Tsrf_max_S              =   0.0000000000000E+00
(PID.TID 0000.0001) %MON thSI_Tsrf_max_N              =  -8.6208662390443E+00
(PID.TID 0000.0001) %MON thSI_Tic1_ave_G              =  -6.5109525664981E+00
(PID.TID 0000.0001) %MON thSI_Tic1_ave_S              =   0.0000000000000E+00
(PID.TID 0000.0001) %MON thSI_Tic1_ave_N              =  -6.5109525664981E+00
(PID.TID 0000.0001) %MON thSI_Tic1_min_S              =   0.0000000000000E+00
(PID.TID 0000.0001) %MON thSI_Tic1_min_N              =  -6.5523454347285E+00
(PID.TID 0000.0001) %MON thSI_Tic1_max_S              =   0.0000000000000E+00
(PID.TID 0000.0001) %MON thSI_Tic1_max_N              =  -6.4601024835880E+00
(PID.TID 0000.0001) %MON thSI_Tic2_ave_G              =  -3.0988435525373E+00
(PID.TID 0000.0001) %MON thSI_Tic2_ave_S              =   0.0000000000000E+00
(PID.TID 0000.0001) %MON thSI_Tic2_ave_N              =  -3.0988435525373E+00
(PID.TID 0000.0001) %MON thSI_Tic2_min_S              =   0.0000000000000E+00
(PID.TID 0000.0001) %MON thSI_Tic2_min_N              =  -3.1704081098488E+00
(PID.TID 0000.0001) %MON thSI_Tic2_max_S              =   0.0000000000000E+00
(PID.TID 0000.0001) %MON thSI_Tic2_max_N              =  -3.0316517992761E+00
(PID.TID 0000.0001) // =======================================================
(PID.TID 0000.0001) // End MONITOR Therm.SeaIce statistics
(PID.TID 0000.0001) // =======================================================
 cg2d: Sum(rhs),rhsMax =   5.82076609134674E-11  2.25470233822001E+04
(PID.TID 0000.0001)                    cg2d_init_res =    1.13321527426064E+04
(PID.TID 0000.0001)                       cg2d_iters =    16
(PID.TID 0000.0001)                         cg2d_res =    7.22744306986851E-11
(PID.TID 0000.0001) // =======================================================
(PID.TID 0000.0001) // Begin MONITOR dynamic field statistics
(PID.TID 0000.0001) // =======================================================
(PID.TID 0000.0001) %MON time_tsnumber                =                    26
(PID.TID 0000.0001) %MON time_secondsf                =   1.1700000000000E+04
(PID.TID 0000.0001) %MON dynstat_eta_max              =   3.8000634053854E+03
(PID.TID 0000.0001) %MON dynstat_eta_min              =  -7.8491624520204E+02
(PID.TID 0000.0001) %MON dynstat_eta_mean             =  -3.5344667118234E-14
(PID.TID 0000.0001) %MON dynstat_eta_sd               =   5.1570830303033E+02
(PID.TID 0000.0001) %MON dynstat_eta_del2             =   3.6419903244298E+01
(PID.TID 0000.0001) %MON dynstat_uvel_max             =   5.6807387012021E+00
(PID.TID 0000.0001) %MON dynstat_uvel_min             =  -5.7765521505410E+00
(PID.TID 0000.0001) %MON dynstat_uvel_mean            =   1.4864220513977E-02
(PID.TID 0000.0001) %MON dynstat_uvel_sd              =   8.2681917829273E-01
(PID.TID 0000.0001) %MON dynstat_uvel_del2            =   2.5096808246657E-02
(PID.TID 0000.0001) %MON dynstat_vvel_max             =   5.2123677657146E+00
(PID.TID 0000.0001) %MON dynstat_vvel_min             =  -6.2986508022426E+00
(PID.TID 0000.0001) %MON dynstat_vvel_mean            =   2.7135571787520E-02
(PID.TID 0000.0001) %MON dynstat_vvel_sd              =   8.1467207218146E-01
(PID.TID 0000.0001) %MON dynstat_vvel_del2            =   2.4245382062849E-02
(PID.TID 0000.0001) %MON dynstat_wvel_max             =   2.4367396597587E-01
(PID.TID 0000.0001) %MON dynstat_wvel_min             =  -1.3606013647808E-01
(PID.TID 0000.0001) %MON dynstat_wvel_mean            =   5.2986238939909E-04
(PID.TID 0000.0001) %MON dynstat_wvel_sd              =   1.0542848311830E-02
(PID.TID 0000.0001) %MON dynstat_wvel_del2            =   1.8492214465598E-03
(PID.TID 0000.0001) %MON dynstat_theta_max            =   4.3803813974973E+02
(PID.TID 0000.0001) %MON dynstat_theta_min            =   2.8344060262365E+02
(PID.TID 0000.0001) %MON dynstat_theta_mean           =   3.3168331921553E+02
(PID.TID 0000.0001) %MON dynstat_theta_sd             =   4.7455169221831E+01
(PID.TID 0000.0001) %MON dynstat_theta_del2           =   2.6444414401993E-02
(PID.TID 0000.0001) %MON dynstat_salt_max             =   4.5617869056934E+00
(PID.TID 0000.0001) %MON dynstat_salt_min             =  -1.3717576489449E-02
(PID.TID 0000.0001) %MON dynstat_salt_mean            =   9.3963947304484E-02
(PID.TID 0000.0001) %MON dynstat_salt_sd              =   3.7043352638904E-01
(PID.TID 0000.0001) %MON dynstat_salt_del2            =   1.1225329885424E-02
(PID.TID 0000.0001) %MON advcfl_uvel_max              =   8.0896822177535E-03
(PID.TID 0000.0001) %MON advcfl_vvel_max              =   8.9783967278831E-03
(PID.TID 0000.0001) %MON advcfl_wvel_max              =   3.9873921705143E-03
(PID.TID 0000.0001) %MON advcfl_W_hf_max              =   1.6879885442266E-02
(PID.TID 0000.0001) %MON pe_b_mean                    =  -1.2198861767390E+00
(PID.TID 0000.0001) %MON ke_max                       =   1.8625582099586E+01
(PID.TID 0000.0001) %MON ke_mean                      =   6.6956265867440E-01
(PID.TID 0000.0001) %MON ke_vol                       =   4.9523908919847E+19
(PID.TID 0000.0001) %MON vort_r_min                   =  -2.2189695061256E-05
(PID.TID 0000.0001) %MON vort_r_max                   =   9.6949554993526E-06
(PID.TID 0000.0001) %MON vort_a_mean                  =   6.7059142262181E-08
(PID.TID 0000.0001) %MON vort_a_sd                    =   8.3764840150351E-05
(PID.TID 0000.0001) %MON vort_p_mean                  =   6.8810057515201E-08
(PID.TID 0000.0001) %MON vort_p_sd                    =   9.1791009501551E-05
(PID.TID 0000.0001) %MON surfExpan_theta_mean         =  -5.3971244769960E-02
(PID.TID 0000.0001) %MON surfExpan_salt_mean          =  -1.0702718987157E-03
(PID.TID 0000.0001) %MON surfExpan_Heat_mean          =   4.1929742166422E+00
(PID.TID 0000.0001) %MON En_Budget_T2PE_mean          =  -8.1654332972421E+00
(PID.TID 0000.0001) // =======================================================
(PID.TID 0000.0001) // End MONITOR dynamic field statistics
(PID.TID 0000.0001) // =======================================================
(PID.TID 0000.0001) // =======================================================
(PID.TID 0000.0001) // Begin MONITOR Land statistics
(PID.TID 0000.0001) // =======================================================
(PID.TID 0000.0001) %MON land_time_sec                =   1.1700000000000E+04
(PID.TID 0000.0001) %MON land_SnwH_ave_G              =   1.5322269861178E-01
(PID.TID 0000.0001) %MON land_SnwH_ave_S              =   5.5904027213992E-01
(PID.TID 0000.0001) %MON land_SnwH_ave_T              =   0.0000000000000E+00
(PID.TID 0000.0001) %MON land_SnwH_ave_N              =   1.2389556237517E-01
(PID.TID 0000.0001) %MON land_SnwH_max_S              =   9.9998583062398E-01
(PID.TID 0000.0001) %MON land_SnwH_max_T              =   0.0000000000000E+00
(PID.TID 0000.0001) %MON land_SnwH_max_N              =   9.9999827293968E-01
(PID.TID 0000.0001) %MON land_TotEnerg_G              =  -6.3529963004666E+21
(PID.TID 0000.0001) %MON land_TotEnerg_S              =  -5.0022956254358E+21
(PID.TID 0000.0001) %MON land_TotEnerg_T              =   7.2768435751428E+21
(PID.TID 0000.0001) %MON land_TotEnerg_N              =  -8.6275442501736E+21
(PID.TID 0000.0001) %MON land_Tsrf_ave_G              =  -8.4370741776854E+00
(PID.TID 0000.0001) %MON land_Tsrf_ave_S              =  -7.3375623731020E+00
(PID.TID 0000.0001) %MON land_Tsrf_ave_T              =   1.0197246731615E+01
(PID.TID 0000.0001) %MON land_Tsrf_ave_N              =  -2.1237200584890E+01
(PID.TID 0000.0001) %MON land_Tsrf_min_S              =  -3.3716552154244E+01
(PID.TID 0000.0001) %MON land_Tsrf_min_T              =  -3.4723943309669E+00
(PID.TID 0000.0001) %MON land_Tsrf_min_N              =  -5.2044049997510E+01
(PID.TID 0000.0001) %MON land_Tsrf_max_S              =   2.0312770363717E+01
(PID.TID 0000.0001) %MON land_Tsrf_max_T              =   2.0469125471264E+01
(PID.TID 0000.0001) %MON land_Tsrf_max_N              =   8.3603096562483E+00
(PID.TID 0000.0001) %MON land_Tgr1_ave_G              =  -7.2224734881710E+00
(PID.TID 0000.0001) %MON land_Tgr1_ave_S              =  -7.1905853043548E+00
(PID.TID 0000.0001) %MON land_Tgr1_ave_T              =   1.0197246731615E+01
(PID.TID 0000.0001) %MON land_Tgr1_ave_N              =  -1.8865194678270E+01
(PID.TID 0000.0001) %MON land_Tgr1_min_S              =  -3.9284977408282E+01
(PID.TID 0000.0001) %MON land_Tgr1_min_T              =  -3.4723943309669E+00
(PID.TID 0000.0001) %MON land_Tgr1_min_N              =  -5.4682064094451E+01
(PID.TID 0000.0001) %MON land_Tgr1_max_S              =   2.0312770363717E+01
(PID.TID 0000.0001) %MON land_Tgr1_max_T              =   2.0469125471264E+01
(PID.TID 0000.0001) %MON land_Tgr1_max_N              =   8.3603096562483E+00
(PID.TID 0000.0001) %MON land_Tgr2_ave_G              =   4.2035631508286E+00
(PID.TID 0000.0001) %MON land_Tgr2_ave_S              =  -1.8726457931523E+01
(PID.TID 0000.0001) %MON land_Tgr2_ave_T              =   2.2009234530045E+01
(PID.TID 0000.0001) %MON land_Tgr2_ave_N              =  -2.4818141608069E-01
(PID.TID 0000.0001) %MON land_Tgr2_min_S              =  -6.4751066674753E+01
(PID.TID 0000.0001) %MON land_Tgr2_min_T              =  -9.7036732161801E+00
(PID.TID 0000.0001) %MON land_Tgr2_min_N              =  -4.0199815370465E+01
(PID.TID 0000.0001) %MON land_Tgr2_max_S              =   2.3359960595488E+01
(PID.TID 0000.0001) %MON land_Tgr2_max_T              =   3.1351343650571E+01
(PID.TID 0000.0001) %MON land_Tgr2_max_N              =   2.9821110801426E+01
(PID.TID 0000.0001) %MON land_grdW_ave_G              =   4.8675063203413E-01
(PID.TID 0000.0001) %MON land_grdW_ave_S              =   3.0851712187658E-01
(PID.TID 0000.0001) %MON land_grdW_ave_T              =   5.6416429774475E-01
(PID.TID 0000.0001) %MON land_grdW_ave_N              =   4.9287392747074E-01
(PID.TID 0000.0001) %MON land_grdW_min_S              =   2.7594768717761E-02
(PID.TID 0000.0001) %MON land_grdW_min_T              =   0.0000000000000E+00
(PID.TID 0000.0001) %MON land_grdW_min_N              =   0.0000000000000E+00
(PID.TID 0000.0001) // =======================================================
(PID.TID 0000.0001) // End MONITOR Land statistics
(PID.TID 0000.0001) // =======================================================
(PID.TID 0000.0001) // =======================================================
(PID.TID 0000.0001) // Begin MONITOR Therm.SeaIce statistics
(PID.TID 0000.0001) // =======================================================
(PID.TID 0000.0001) %MON thSI_time_sec                =   1.1700000000000E+04
(PID.TID 0000.0001) %MON thSI_Ice_Area_G              =   1.7309406946969E+11
(PID.TID 0000.0001) %MON thSI_Ice_Area_S              =   0.0000000000000E+00
(PID.TID 0000.0001) %MON thSI_Ice_Area_N              =   1.7309406946969E+11
(PID.TID 0000.0001) %MON thSI_IceH_ave_G              =   1.3921508162444E-01
(PID.TID 0000.0001) %MON thSI_IceH_ave_S              =   0.0000000000000E+00
(PID.TID 0000.0001) %MON thSI_IceH_ave_N              =   1.3921508162444E-01
(PID.TID 0000.0001) %MON thSI_IceH_max_S              =   0.0000000000000E+00
(PID.TID 0000.0001) %MON thSI_IceH_max_N              =   1.4856870012169E-01
(PID.TID 0000.0001) %MON thSI_SnwH_ave_G              =   0.0000000000000E+00
(PID.TID 0000.0001) %MON thSI_SnwH_ave_S              =   0.0000000000000E+00
(PID.TID 0000.0001) %MON thSI_SnwH_ave_N              =   0.0000000000000E+00
(PID.TID 0000.0001) %MON thSI_SnwH_max_S              =   0.0000000000000E+00
(PID.TID 0000.0001) %MON thSI_SnwH_max_N              =   0.0000000000000E+00
(PID.TID 0000.0001) %MON thSI_TotEnerg_G              =  -7.4377936340323E+18
(PID.TID 0000.0001) %MON thSI_Tsrf_ave_G              =  -8.9335691208853E+00
(PID.TID 0000.0001) %MON thSI_Tsrf_ave_S              =   0.0000000000000E+00
(PID.TID 0000.0001) %MON thSI_Tsrf_ave_N              =  -8.9335691208853E+00
(PID.TID 0000.0001) %MON thSI_Tsrf_min_S              =   0.0000000000000E+00
(PID.TID 0000.0001) %MON thSI_Tsrf_min_N              =  -9.0586103711371E+00
(PID.TID 0000.0001) %MON thSI_Tsrf_max_S              =   0.0000000000000E+00
(PID.TID 0000.0001) %MON thSI_Tsrf_max_N              =  -8.6859008559401E+00
(PID.TID 0000.0001) %MON thSI_Tic1_ave_G              =  -6.6078453651319E+00
(PID.TID 0000.0001) %MON thSI_Tic1_ave_S              =   0.0000000000000E+00
(PID.TID 0000.0001) %MON thSI_Tic1_ave_N              =  -6.6078453651319E+00
(PID.TID 0000.0001) %MON thSI_Tic1_min_S              =   0.0000000000000E+00
(PID.TID 0000.0001) %MON thSI_Tic1_min_N              =  -6.6508808777686E+00
(PID.TID 0000.0001) %MON thSI_Tic1_max_S              =   0.0000000000000E+00
(PID.TID 0000.0001) %MON thSI_Tic1_max_N              =  -6.5562959350782E+00
(PID.TID 0000.0001) %MON thSI_Tic2_ave_G              =  -3.1456851965699E+00
(PID.TID 0000.0001) %MON thSI_Tic2_ave_S              =   0.0000000000000E+00
(PID.TID 0000.0001) %MON thSI_Tic2_ave_N              =  -3.1456851965699E+00
(PID.TID 0000.0001) %MON thSI_Tic2_min_S              =   0.0000000000000E+00
(PID.TID 0000.0001) %MON thSI_Tic2_min_N              =  -3.2129986243403E+00
(PID.TID 0000.0001) %MON thSI_Tic2_max_S              =   0.0000000000000E+00
(PID.TID 0000.0001) %MON thSI_Tic2_max_N              =  -3.0819532829398E+00
(PID.TID 0000.0001) // =======================================================
(PID.TID 0000.0001) // End MONITOR Therm.SeaIce statistics
(PID.TID 0000.0001) // =======================================================
 cg2d: Sum(rhs),rhsMax =   4.07453626394272E-10  2.16329271636094E+04
(PID.TID 0000.0001)                    cg2d_init_res =    1.12351996176679E+04
(PID.TID 0000.0001)                       cg2d_iters =    16
(PID.TID 0000.0001)                         cg2d_res =    7.19112911662845E-11
(PID.TID 0000.0001) // =======================================================
(PID.TID 0000.0001) // Begin MONITOR dynamic field statistics
(PID.TID 0000.0001) // =======================================================
(PID.TID 0000.0001) %MON time_tsnumber                =                    27
(PID.TID 0000.0001) %MON time_secondsf                =   1.2150000000000E+04
(PID.TID 0000.0001) %MON dynstat_eta_max              =   3.6284625680610E+03
(PID.TID 0000.0001) %MON dynstat_eta_min              =  -7.6402985621538E+02
(PID.TID 0000.0001) %MON dynstat_eta_mean             =   6.4263031124062E-15
(PID.TID 0000.0001) %MON dynstat_eta_sd               =   5.0495388483637E+02
(PID.TID 0000.0001) %MON dynstat_eta_del2             =   3.6322950050356E+01
(PID.TID 0000.0001) %MON dynstat_uvel_max             =   5.5535333254427E+00
(PID.TID 0000.0001) %MON dynstat_uvel_min             =  -5.7195442773421E+00
(PID.TID 0000.0001) %MON dynstat_uvel_mean            =   2.0307612631403E-02
(PID.TID 0000.0001) %MON dynstat_uvel_sd              =   8.2170293624378E-01
(PID.TID 0000.0001) %MON dynstat_uvel_del2            =   2.5591522641079E-02
(PID.TID 0000.0001) %MON dynstat_vvel_max             =   5.2269114241501E+00
(PID.TID 0000.0001) %MON dynstat_vvel_min             =  -6.2225122631237E+00
(PID.TID 0000.0001) %MON dynstat_vvel_mean            =   2.6329716407249E-02
(PID.TID 0000.0001) %MON dynstat_vvel_sd              =   8.1712989692826E-01
(PID.TID 0000.0001) %MON dynstat_vvel_del2            =   2.4927445199017E-02
(PID.TID 0000.0001) %MON dynstat_wvel_max             =   2.4602031270983E-01
(PID.TID 0000.0001) %MON dynstat_wvel_min             =  -1.3178406727908E-01
(PID.TID 0000.0001) %MON dynstat_wvel_mean            =   5.6436958709724E-04
(PID.TID 0000.0001) %MON dynstat_wvel_sd              =   1.0554743615855E-02
(PID.TID 0000.0001) %MON dynstat_wvel_del2            =   1.9013552573462E-03
(PID.TID 0000.0001) %MON dynstat_theta_max            =   4.3805764547711E+02
(PID.TID 0000.0001) %MON dynstat_theta_min            =   2.8322214220939E+02
(PID.TID 0000.0001) %MON dynstat_theta_mean           =   3.3168121954786E+02
(PID.TID 0000.0001) %MON dynstat_theta_sd             =   4.7457220268501E+01
(PID.TID 0000.0001) %MON dynstat_theta_del2           =   2.7358069530888E-02
(PID.TID 0000.0001) %MON dynstat_salt_max             =   4.6112099441323E+00
(PID.TID 0000.0001) %MON dynstat_salt_min             =  -1.5716150891503E-02
(PID.TID 0000.0001) %MON dynstat_salt_mean            =   9.7323065178404E-02
(PID.TID 0000.0001) %MON dynstat_salt_sd              =   3.8225355917118E-01
(PID.TID 0000.0001) %MON dynstat_salt_del2            =   1.1549370887452E-02
(PID.TID 0000.0001) %MON advcfl_uvel_max              =   7.9858487844161E-03
(PID.TID 0000.0001) %MON advcfl_vvel_max              =   8.8698652293204E-03
(PID.TID 0000.0001) %MON advcfl_wvel_max              =   4.0257869352518E-03
(PID.TID 0000.0001) %MON advcfl_W_hf_max              =   1.6724933949063E-02
(PID.TID 0000.0001) %MON pe_b_mean                    =  -1.2248608219821E+00
(PID.TID 0000.0001) %MON ke_max                       =   1.8389834594337E+01
(PID.TID 0000.0001) %MON ke_mean                      =   6.6744620145553E-01
(PID.TID 0000.0001) %MON ke_vol                       =   4.9523908919847E+19
(PID.TID 0000.0001) %MON vort_r_min                   =  -2.1511481310638E-05
(PID.TID 0000.0001) %MON vort_r_max                   =   1.0189213463551E-05
(PID.TID 0000.0001) %MON vort_a_mean                  =   6.7059142262005E-08
(PID.TID 0000.0001) %MON vort_a_sd                    =   8.3767310491718E-05
(PID.TID 0000.0001) %MON vort_p_mean                  =   6.8809059906202E-08
(PID.TID 0000.0001) %MON vort_p_sd                    =   9.1766276170935E-05
(PID.TID 0000.0001) %MON surfExpan_theta_mean         =  -5.7011354246965E-02
(PID.TID 0000.0001) %MON surfExpan_salt_mean          =  -1.1703612649867E-03
(PID.TID 0000.0001) %MON surfExpan_Heat_mean          =   4.4620768559961E+00
(PID.TID 0000.0001) %MON En_Budget_T2PE_mean          =  -8.6632225233652E+00
(PID.TID 0000.0001) // =======================================================
(PID.TID 0000.0001) // End MONITOR dynamic field statistics
(PID.TID 0000.0001) // =======================================================
(PID.TID 0000.0001) // =======================================================
(PID.TID 0000.0001) // Begin MONITOR Land statistics
(PID.TID 0000.0001) // =======================================================
(PID.TID 0000.0001) %MON land_time_sec                =   1.2150000000000E+04
(PID.TID 0000.0001) %MON land_SnwH_ave_G              =   1.5322174529671E-01
(PID.TID 0000.0001) %MON land_SnwH_ave_S              =   5.5903939247872E-01
(PID.TID 0000.0001) %MON land_SnwH_ave_T              =   0.0000000000000E+00
(PID.TID 0000.0001) %MON land_SnwH_ave_N              =   1.2389394857146E-01
(PID.TID 0000.0001) %MON land_SnwH_max_S              =   9.9998527085434E-01
(PID.TID 0000.0001) %MON land_SnwH_max_T              =   0.0000000000000E+00
(PID.TID 0000.0001) %MON land_SnwH_max_N              =   9.9999820924592E-01
(PID.TID 0000.0001) %MON land_TotEnerg_G              =  -6.3542924711049E+21
(PID.TID 0000.0001) %MON land_TotEnerg_S              =  -5.0023433380261E+21
(PID.TID 0000.0001) %MON land_TotEnerg_T              =   7.2761774648623E+21
(PID.TID 0000.0001) %MON land_TotEnerg_N              =  -8.6281265979411E+21
(PID.TID 0000.0001) %MON land_Tsrf_ave_G              =  -8.4698134807388E+00
(PID.TID 0000.0001) %MON land_Tsrf_ave_S              =  -7.3413301347967E+00
(PID.TID 0000.0001) %MON land_Tsrf_ave_T              =   1.0123573647475E+01
(PID.TID 0000.0001) %MON land_Tsrf_ave_N              =  -2.1252003704267E+01
(PID.TID 0000.0001) %MON land_Tsrf_min_S              =  -3.3702096273287E+01
(PID.TID 0000.0001) %MON land_Tsrf_min_T              =  -3.3620755753442E+00
(PID.TID 0000.0001) %MON land_Tsrf_min_N              =  -5.2039198347539E+01
(PID.TID 0000.0001) %MON land_Tsrf_max_S              =   2.0243652897620E+01
(PID.TID 0000.0001) %MON land_Tsrf_max_T              =   2.0347890257842E+01
(PID.TID 0000.0001) %MON land_Tsrf_max_N              =   8.2501440468179E+00
(PID.TID 0000.0001) %MON land_Tgr1_ave_G              =  -7.2609594701810E+00
(PID.TID 0000.0001) %MON land_Tgr1_ave_S              =  -7.2107644475125E+00
(PID.TID 0000.0001) %MON land_Tgr1_ave_T              =   1.0123573647475E+01
(PID.TID 0000.0001) %MON land_Tgr1_ave_N              =  -1.8886122375291E+01
(PID.TID 0000.0001) %MON land_Tgr1_min_S              =  -3.9295883046673E+01
(PID.TID 0000.0001) %MON land_Tgr1_min_T              =  -3.3620755753442E+00
(PID.TID 0000.0001) %MON land_Tgr1_min_N              =  -5.4669612286176E+01
(PID.TID 0000.0001) %MON land_Tgr1_max_S              =   2.0243652897620E+01
(PID.TID 0000.0001) %MON land_Tgr1_max_T              =   2.0347890257842E+01
(PID.TID 0000.0001) %MON land_Tgr1_max_N              =   8.2501440468179E+00
(PID.TID 0000.0001) %MON land_Tgr2_ave_G              =   4.2033874251556E+00
(PID.TID 0000.0001) %MON land_Tgr2_ave_S              =  -1.8726264870460E+01
(PID.TID 0000.0001) %MON land_Tgr2_ave_T              =   2.2009042644781E+01
(PID.TID 0000.0001) %MON land_Tgr2_ave_N              =  -2.4846598302513E-01
(PID.TID 0000.0001) %MON land_Tgr2_min_S              =  -6.4750637626359E+01
(PID.TID 0000.0001) %MON land_Tgr2_min_T              =  -9.7035930904824E+00
(PID.TID 0000.0001) %MON land_Tgr2_min_N              =  -4.0200050418400E+01
(PID.TID 0000.0001) %MON land_Tgr2_max_S              =   2.3359893564846E+01
(PID.TID 0000.0001) %MON land_Tgr2_max_T              =   3.1350908280182E+01
(PID.TID 0000.0001) %MON land_Tgr2_max_N              =   2.9820574624409E+01
(PID.TID 0000.0001) %MON land_grdW_ave_G              =   4.8674303477614E-01
(PID.TID 0000.0001) %MON land_grdW_ave_S              =   3.0850949961461E-01
(PID.TID 0000.0001) %MON land_grdW_ave_T              =   5.6414577117479E-01
(PID.TID 0000.0001) %MON land_grdW_ave_N              =   4.9287363659702E-01
(PID.TID 0000.0001) %MON land_grdW_min_S              =   2.7681658404908E-02
(PID.TID 0000.0001) %MON land_grdW_min_T              =   0.0000000000000E+00
(PID.TID 0000.0001) %MON land_grdW_min_N              =   0.0000000000000E+00
(PID.TID 0000.0001) // =======================================================
(PID.TID 0000.0001) // End MONITOR Land statistics
(PID.TID 0000.0001) // =======================================================
(PID.TID 0000.0001) // =======================================================
(PID.TID 0000.0001) // Begin MONITOR Therm.SeaIce statistics
(PID.TID 0000.0001) // =======================================================
(PID.TID 0000.0001) %MON thSI_time_sec                =   1.2150000000000E+04
(PID.TID 0000.0001) %MON thSI_Ice_Area_G              =   1.7309406946969E+11
(PID.TID 0000.0001) %MON thSI_Ice_Area_S              =   0.0000000000000E+00
(PID.TID 0000.0001) %MON thSI_Ice_Area_N              =   1.7309406946969E+11
(PID.TID 0000.0001) %MON thSI_IceH_ave_G              =   1.3934260606967E-01
(PID.TID 0000.0001) %MON thSI_IceH_ave_S              =   0.0000000000000E+00
(PID.TID 0000.0001) %MON thSI_IceH_ave_N              =   1.3934260606967E-01
(PID.TID 0000.0001) %MON thSI_IceH_max_S              =   0.0000000000000E+00
(PID.TID 0000.0001) %MON thSI_IceH_max_N              =   1.4868401730632E-01
(PID.TID 0000.0001) %MON thSI_SnwH_ave_G              =   0.0000000000000E+00
(PID.TID 0000.0001) %MON thSI_SnwH_ave_S              =   0.0000000000000E+00
(PID.TID 0000.0001) %MON thSI_SnwH_ave_N              =   0.0000000000000E+00
(PID.TID 0000.0001) %MON thSI_SnwH_max_S              =   0.0000000000000E+00
(PID.TID 0000.0001) %MON thSI_SnwH_max_N              =   0.0000000000000E+00
(PID.TID 0000.0001) %MON thSI_TotEnerg_G              =  -7.4480305339348E+18
(PID.TID 0000.0001) %MON thSI_Tsrf_ave_G              =  -9.0032216220411E+00
(PID.TID 0000.0001) %MON thSI_Tsrf_ave_S              =   0.0000000000000E+00
(PID.TID 0000.0001) %MON thSI_Tsrf_ave_N              =  -9.0032216220411E+00
(PID.TID 0000.0001) %MON thSI_Tsrf_min_S              =   0.0000000000000E+00
(PID.TID 0000.0001) %MON thSI_Tsrf_min_N              =  -9.1344044548531E+00
(PID.TID 0000.0001) %MON thSI_Tsrf_max_S              =   0.0000000000000E+00
(PID.TID 0000.0001) %MON thSI_Tsrf_max_N              =  -8.7444092092051E+00
(PID.TID 0000.0001) %MON thSI_Tic1_ave_G              =  -6.6977185412034E+00
(PID.TID 0000.0001) %MON thSI_Tic1_ave_S              =   0.0000000000000E+00
(PID.TID 0000.0001) %MON thSI_Tic1_ave_N              =  -6.6977185412034E+00
(PID.TID 0000.0001) %MON thSI_Tic1_min_S              =   0.0000000000000E+00
(PID.TID 0000.0001) %MON thSI_Tic1_min_N              =  -6.7425529278605E+00
(PID.TID 0000.0001) %MON thSI_Tic1_max_S              =   0.0000000000000E+00
(PID.TID 0000.0001) %MON thSI_Tic1_max_N              =  -6.6451750869945E+00
(PID.TID 0000.0001) %MON thSI_Tic2_ave_G              =  -3.1884686669563E+00
(PID.TID 0000.0001) %MON thSI_Tic2_ave_S              =   0.0000000000000E+00
(PID.TID 0000.0001) %MON thSI_Tic2_ave_N              =  -3.1884686669563E+00
(PID.TID 0000.0001) %MON thSI_Tic2_min_S              =   0.0000000000000E+00
(PID.TID 0000.0001) %MON thSI_Tic2_min_N              =  -3.2513233230188E+00
(PID.TID 0000.0001) %MON thSI_Tic2_max_S              =   0.0000000000000E+00
(PID.TID 0000.0001) %MON thSI_Tic2_max_N              =  -3.1284173309944E+00
(PID.TID 0000.0001) // =======================================================
(PID.TID 0000.0001) // End MONITOR Therm.SeaIce statistics
(PID.TID 0000.0001) // =======================================================
 cg2d: Sum(rhs),rhsMax =   3.49245965480804E-10  2.07746723265112E+04
(PID.TID 0000.0001)                    cg2d_init_res =    1.11311082557018E+04
(PID.TID 0000.0001)                       cg2d_iters =    16
(PID.TID 0000.0001)                         cg2d_res =    7.10553889869189E-11
(PID.TID 0000.0001) // =======================================================
(PID.TID 0000.0001) // Begin MONITOR dynamic field statistics
(PID.TID 0000.0001) // =======================================================
(PID.TID 0000.0001) %MON time_tsnumber                =                    28
(PID.TID 0000.0001) %MON time_secondsf                =   1.2600000000000E+04
(PID.TID 0000.0001) %MON dynstat_eta_max              =   3.4590485914016E+03
(PID.TID 0000.0001) %MON dynstat_eta_min              =  -7.6200392385740E+02
(PID.TID 0000.0001) %MON dynstat_eta_mean             =  -1.2852606224812E-14
(PID.TID 0000.0001) %MON dynstat_eta_sd               =   4.9409730713505E+02
(PID.TID 0000.0001) %MON dynstat_eta_del2             =   3.6238586954971E+01
(PID.TID 0000.0001) %MON dynstat_uvel_max             =   5.4099246882879E+00
(PID.TID 0000.0001) %MON dynstat_uvel_min             =  -5.6728719082401E+00
(PID.TID 0000.0001) %MON dynstat_uvel_mean            =   2.6212315839328E-02
(PID.TID 0000.0001) %MON dynstat_uvel_sd              =   8.1535759031359E-01
(PID.TID 0000.0001) %MON dynstat_uvel_del2            =   2.6113824557783E-02
(PID.TID 0000.0001) %MON dynstat_vvel_max             =   5.2315770366890E+00
(PID.TID 0000.0001) %MON dynstat_vvel_min             =  -6.0919450414113E+00
(PID.TID 0000.0001) %MON dynstat_vvel_mean            =   2.5467972249774E-02
(PID.TID 0000.0001) %MON dynstat_vvel_sd              =   8.1840164688242E-01
(PID.TID 0000.0001) %MON dynstat_vvel_del2            =   2.5608799646721E-02
(PID.TID 0000.0001) %MON dynstat_wvel_max             =   2.4438446312049E-01
(PID.TID 0000.0001) %MON dynstat_wvel_min             =  -1.2483455739164E-01
(PID.TID 0000.0001) %MON dynstat_wvel_mean            =   5.8153008035649E-04
(PID.TID 0000.0001) %MON dynstat_wvel_sd              =   1.0509820882315E-02
(PID.TID 0000.0001) %MON dynstat_wvel_del2            =   1.9480512681688E-03
(PID.TID 0000.0001) %MON dynstat_theta_max            =   4.3810082955637E+02
(PID.TID 0000.0001) %MON dynstat_theta_min            =   2.8300496743586E+02
(PID.TID 0000.0001) %MON dynstat_theta_mean           =   3.3167908499208E+02
(PID.TID 0000.0001) %MON dynstat_theta_sd             =   4.7459278142030E+01
(PID.TID 0000.0001) %MON dynstat_theta_del2           =   2.8268464058690E-02
(PID.TID 0000.0001) %MON dynstat_salt_max             =   4.6578241733443E+00
(PID.TID 0000.0001) %MON dynstat_salt_min             =  -1.7777818184912E-02
(PID.TID 0000.0001) %MON dynstat_salt_mean            =   1.0067112679687E-01
(PID.TID 0000.0001) %MON dynstat_salt_sd              =   3.9396749303127E-01
(PID.TID 0000.0001) %MON dynstat_salt_del2            =   1.1870320601413E-02
(PID.TID 0000.0001) %MON advcfl_uvel_max              =   7.9206830187561E-03
(PID.TID 0000.0001) %MON advcfl_vvel_max              =   8.7010913976136E-03
(PID.TID 0000.0001) %MON advcfl_wvel_max              =   3.9990184874262E-03
(PID.TID 0000.0001) %MON advcfl_W_hf_max              =   1.7588781388085E-02
(PID.TID 0000.0001) %MON pe_b_mean                    =  -1.2277372650863E+00
(PID.TID 0000.0001) %MON ke_max                       =   1.7927735390164E+01
(PID.TID 0000.0001) %MON ke_mean                      =   6.6344210031650E-01
(PID.TID 0000.0001) %MON ke_vol                       =   4.9523908919847E+19
(PID.TID 0000.0001) %MON vort_r_min                   =  -2.0773984427504E-05
(PID.TID 0000.0001) %MON vort_r_max                   =   1.0694922143863E-05
(PID.TID 0000.0001) %MON vort_a_mean                  =   6.7059142261974E-08
(PID.TID 0000.0001) %MON vort_a_sd                    =   8.3769726375372E-05
(PID.TID 0000.0001) %MON vort_p_mean                  =   6.8807932203372E-08
(PID.TID 0000.0001) %MON vort_p_sd                    =   9.1741481421335E-05
(PID.TID 0000.0001) %MON surfExpan_theta_mean         =  -5.8341774686233E-02
(PID.TID 0000.0001) %MON surfExpan_salt_mean          =  -1.2693764166432E-03
(PID.TID 0000.0001) %MON surfExpan_Heat_mean          =   4.5891834567510E+00
(PID.TID 0000.0001) %MON En_Budget_T2PE_mean          =  -8.8936619820176E+00
(PID.TID 0000.0001) // =======================================================
(PID.TID 0000.0001) // End MONITOR dynamic field statistics
(PID.TID 0000.0001) // =======================================================
(PID.TID 0000.0001) // =======================================================
(PID.TID 0000.0001) // Begin MONITOR Land statistics
(PID.TID 0000.0001) // =======================================================
(PID.TID 0000.0001) %MON land_time_sec                =   1.2600000000000E+04
(PID.TID 0000.0001) %MON land_SnwH_ave_G              =   1.5322079409330E-01
(PID.TID 0000.0001) %MON land_SnwH_ave_S              =   5.5903851493810E-01
(PID.TID 0000.0001) %MON land_SnwH_ave_T              =   0.0000000000000E+00
(PID.TID 0000.0001) %MON land_SnwH_ave_N              =   1.2389233828663E-01
(PID.TID 0000.0001) %MON land_SnwH_max_S              =   9.9998471070159E-01
(PID.TID 0000.0001) %MON land_SnwH_max_T              =   0.0000000000000E+00
(PID.TID 0000.0001) %MON land_SnwH_max_N              =   9.9999814549358E-01
(PID.TID 0000.0001) %MON land_TotEnerg_G              =  -6.3555193014499E+21
(PID.TID 0000.0001) %MON land_TotEnerg_S              =  -5.0023822888577E+21
(PID.TID 0000.0001) %MON land_TotEnerg_T              =   7.2755615496263E+21
(PID.TID 0000.0001) %MON land_TotEnerg_N              =  -8.6286985622185E+21
(PID.TID 0000.0001) %MON land_Tsrf_ave_G              =  -8.5003465171814E+00
(PID.TID 0000.0001) %MON land_Tsrf_ave_S              =  -7.3469365196964E+00
(PID.TID 0000.0001) %MON land_Tsrf_ave_T              =   1.0055682689619E+01
(PID.TID 0000.0001) %MON land_Tsrf_ave_N              =  -2.1265676273346E+01
(PID.TID 0000.0001) %MON land_Tsrf_min_S              =  -3.3684463942973E+01
(PID.TID 0000.0001) %MON land_Tsrf_min_T              =  -3.2552760258032E+00
(PID.TID 0000.0001) %MON land_Tsrf_min_N              =  -5.2034487232864E+01
(PID.TID 0000.0001) %MON land_Tsrf_max_S              =   2.0183926823037E+01
(PID.TID 0000.0001) %MON land_Tsrf_max_T              =   2.0239877631409E+01
(PID.TID 0000.0001) %MON land_Tsrf_max_N              =   8.1469501015109E+00
(PID.TID 0000.0001) %MON land_Tgr1_ave_G              =  -7.2964147032713E+00
(PID.TID 0000.0001) %MON land_Tgr1_ave_S              =  -7.2283953851956E+00
(PID.TID 0000.0001) %MON land_Tgr1_ave_T              =   1.0055682689619E+01
(PID.TID 0000.0001) %MON land_Tgr1_ave_N              =  -1.8905700078125E+01
(PID.TID 0000.0001) %MON land_Tgr1_min_S              =  -3.9306751831677E+01
(PID.TID 0000.0001) %MON land_Tgr1_min_T              =  -3.2552760258032E+00
(PID.TID 0000.0001) %MON land_Tgr1_min_N              =  -5.4657176458890E+01
(PID.TID 0000.0001) %MON land_Tgr1_max_S              =   2.0183926823037E+01
(PID.TID 0000.0001) %MON land_Tgr1_max_T              =   2.0239877631409E+01
(PID.TID 0000.0001) %MON land_Tgr1_max_N              =   8.1469501015109E+00
(PID.TID 0000.0001) %MON land_Tgr2_ave_G              =   4.2032112058541E+00
(PID.TID 0000.0001) %MON land_Tgr2_ave_S              =  -1.8726072091173E+01
(PID.TID 0000.0001) %MON land_Tgr2_ave_T              =   2.2008849846720E+01
(PID.TID 0000.0001) %MON land_Tgr2_ave_N              =  -2.4875083241205E-01
(PID.TID 0000.0001) %MON land_Tgr2_min_S              =  -6.4750208784421E+01
(PID.TID 0000.0001) %MON land_Tgr2_min_T              =  -9.7035116166551E+00
(PID.TID 0000.0001) %MON land_Tgr2_min_N              =  -4.0200285232408E+01
(PID.TID 0000.0001) %MON land_Tgr2_max_S              =   2.3359825154654E+01
(PID.TID 0000.0001) %MON land_Tgr2_max_T              =   3.1350470616468E+01
(PID.TID 0000.0001) %MON land_Tgr2_max_N              =   2.9820033982762E+01
(PID.TID 0000.0001) %MON land_grdW_ave_G              =   4.8673552415315E-01
(PID.TID 0000.0001) %MON land_grdW_ave_S              =   3.0850193287480E-01
(PID.TID 0000.0001) %MON land_grdW_ave_T              =   5.6412747466387E-01
(PID.TID 0000.0001) %MON land_grdW_ave_N              =   4.9287334667673E-01
(PID.TID 0000.0001) %MON land_grdW_min_S              =   2.7768390834465E-02
(PID.TID 0000.0001) %MON land_grdW_min_T              =   0.0000000000000E+00
(PID.TID 0000.0001) %MON land_grdW_min_N              =   0.0000000000000E+00
(PID.TID 0000.0001) // =======================================================
(PID.TID 0000.0001) // End MONITOR Land statistics
(PID.TID 0000.0001) // =======================================================
(PID.TID 0000.0001) // =======================================================
(PID.TID 0000.0001) // Begin MONITOR Therm.SeaIce statistics
(PID.TID 0000.0001) // =======================================================
(PID.TID 0000.0001) %MON thSI_time_sec                =   1.2600000000000E+04
(PID.TID 0000.0001) %MON thSI_Ice_Area_G              =   1.7309406946969E+11
(PID.TID 0000.0001) %MON thSI_Ice_Area_S              =   0.0000000000000E+00
(PID.TID 0000.0001) %MON thSI_Ice_Area_N              =   1.7309406946969E+11
(PID.TID 0000.0001) %MON thSI_IceH_ave_G              =   1.3947337585673E-01
(PID.TID 0000.0001) %MON thSI_IceH_ave_S              =   0.0000000000000E+00
(PID.TID 0000.0001) %MON thSI_IceH_ave_N              =   1.3947337585673E-01
(PID.TID 0000.0001) %MON thSI_IceH_max_S              =   0.0000000000000E+00
(PID.TID 0000.0001) %MON thSI_IceH_max_N              =   1.4880272944769E-01
(PID.TID 0000.0001) %MON thSI_SnwH_ave_G              =   0.0000000000000E+00
(PID.TID 0000.0001) %MON thSI_SnwH_ave_S              =   0.0000000000000E+00
(PID.TID 0000.0001) %MON thSI_SnwH_ave_N              =   0.0000000000000E+00
(PID.TID 0000.0001) %MON thSI_SnwH_max_S              =   0.0000000000000E+00
(PID.TID 0000.0001) %MON thSI_SnwH_max_N              =   0.0000000000000E+00
(PID.TID 0000.0001) %MON thSI_TotEnerg_G              =  -7.4581724963664E+18
(PID.TID 0000.0001) %MON thSI_Tsrf_ave_G              =  -9.0670385900920E+00
(PID.TID 0000.0001) %MON thSI_Tsrf_ave_S              =   0.0000000000000E+00
(PID.TID 0000.0001) %MON thSI_Tsrf_ave_N              =  -9.0670385900920E+00
(PID.TID 0000.0001) %MON thSI_Tsrf_min_S              =   0.0000000000000E+00
(PID.TID 0000.0001) %MON thSI_Tsrf_min_N              =  -9.2047531021010E+00
(PID.TID 0000.0001) %MON thSI_Tsrf_max_S              =   0.0000000000000E+00
(PID.TID 0000.0001) %MON thSI_Tsrf_max_N              =  -8.7968029025095E+00
(PID.TID 0000.0001) %MON thSI_Tic1_ave_G              =  -6.7808954827765E+00
(PID.TID 0000.0001) %MON thSI_Tic1_ave_S              =   0.0000000000000E+00
(PID.TID 0000.0001) %MON thSI_Tic1_ave_N              =  -6.7808954827765E+00
(PID.TID 0000.0001) %MON thSI_Tic1_min_S              =   0.0000000000000E+00
(PID.TID 0000.0001) %MON thSI_Tic1_min_N              =  -6.8276520053216E+00
(PID.TID 0000.0001) %MON thSI_Tic1_max_S              =   0.0000000000000E+00
(PID.TID 0000.0001) %MON thSI_Tic1_max_N              =  -6.7170721715942E+00
(PID.TID 0000.0001) %MON thSI_Tic2_ave_G              =  -3.2276323976647E+00
(PID.TID 0000.0001) %MON thSI_Tic2_ave_S              =   0.0000000000000E+00
(PID.TID 0000.0001) %MON thSI_Tic2_ave_N              =  -3.2276323976647E+00
(PID.TID 0000.0001) %MON thSI_Tic2_min_S              =   0.0000000000000E+00
(PID.TID 0000.0001) %MON thSI_Tic2_min_N              =  -3.2859082615312E+00
(PID.TID 0000.0001) %MON thSI_Tic2_max_S              =   0.0000000000000E+00
(PID.TID 0000.0001) %MON thSI_Tic2_max_N              =  -3.1714048176416E+00
(PID.TID 0000.0001) // =======================================================
(PID.TID 0000.0001) // End MONITOR Therm.SeaIce statistics
(PID.TID 0000.0001) // =======================================================
 cg2d: Sum(rhs),rhsMax =  -1.04773789644241E-09  1.99979774067983E+04
(PID.TID 0000.0001)                    cg2d_init_res =    1.10155683132020E+04
(PID.TID 0000.0001)                       cg2d_iters =    16
(PID.TID 0000.0001)                         cg2d_res =    6.91930713592129E-11
(PID.TID 0000.0001) // =======================================================
(PID.TID 0000.0001) // Begin MONITOR dynamic field statistics
(PID.TID 0000.0001) // =======================================================
(PID.TID 0000.0001) %MON time_tsnumber                =                    29
(PID.TID 0000.0001) %MON time_secondsf                =   1.3050000000000E+04
(PID.TID 0000.0001) %MON dynstat_eta_max              =   3.3286563592296E+03
(PID.TID 0000.0001) %MON dynstat_eta_min              =  -7.6036716099755E+02
(PID.TID 0000.0001) %MON dynstat_eta_mean             =  -1.2531291069192E-13
(PID.TID 0000.0001) %MON dynstat_eta_sd               =   4.8343132540069E+02
(PID.TID 0000.0001) %MON dynstat_eta_del2             =   3.6163576824563E+01
(PID.TID 0000.0001) %MON dynstat_uvel_max             =   5.2537461585653E+00
(PID.TID 0000.0001) %MON dynstat_uvel_min             =  -5.5536503870993E+00
(PID.TID 0000.0001) %MON dynstat_uvel_mean            =   3.2508249024951E-02
(PID.TID 0000.0001) %MON dynstat_uvel_sd              =   8.0808258758716E-01
(PID.TID 0000.0001) %MON dynstat_uvel_del2            =   2.6631681598356E-02
(PID.TID 0000.0001) %MON dynstat_vvel_max             =   5.2214803799345E+00
(PID.TID 0000.0001) %MON dynstat_vvel_min             =  -5.9763571737800E+00
(PID.TID 0000.0001) %MON dynstat_vvel_mean            =   2.4614668807818E-02
(PID.TID 0000.0001) %MON dynstat_vvel_sd              =   8.1821970592288E-01
(PID.TID 0000.0001) %MON dynstat_vvel_del2            =   2.6287398790309E-02
(PID.TID 0000.0001) %MON dynstat_wvel_max             =   2.3738349394648E-01
(PID.TID 0000.0001) %MON dynstat_wvel_min             =  -1.1564662554941E-01
(PID.TID 0000.0001) %MON dynstat_wvel_mean            =   5.8312027753647E-04
(PID.TID 0000.0001) %MON dynstat_wvel_sd              =   1.0419533623540E-02
(PID.TID 0000.0001) %MON dynstat_wvel_del2            =   1.9888566626865E-03
(PID.TID 0000.0001) %MON dynstat_theta_max            =   4.3812165727482E+02
(PID.TID 0000.0001) %MON dynstat_theta_min            =   2.8278898760881E+02
(PID.TID 0000.0001) %MON dynstat_theta_mean           =   3.3167691782696E+02
(PID.TID 0000.0001) %MON dynstat_theta_sd             =   4.7461342764244E+01
(PID.TID 0000.0001) %MON dynstat_theta_del2           =   2.9184842854357E-02
(PID.TID 0000.0001) %MON dynstat_salt_max             =   4.7006714767809E+00
(PID.TID 0000.0001) %MON dynstat_salt_min             =  -1.9902114929800E-02
(PID.TID 0000.0001) %MON dynstat_salt_mean            =   1.0400842547737E-01
(PID.TID 0000.0001) %MON dynstat_salt_sd              =   4.0557705248780E-01
(PID.TID 0000.0001) %MON dynstat_salt_del2            =   1.2187567463512E-02
(PID.TID 0000.0001) %MON advcfl_uvel_max              =   7.7542213229441E-03
(PID.TID 0000.0001) %MON advcfl_vvel_max              =   8.5441349910112E-03
(PID.TID 0000.0001) %MON advcfl_wvel_max              =   3.8844571736696E-03
(PID.TID 0000.0001) %MON advcfl_W_hf_max              =   1.8259094924331E-02
(PID.TID 0000.0001) %MON pe_b_mean                    =  -1.2285587105920E+00
(PID.TID 0000.0001) %MON ke_max                       =   1.7174120345253E+01
(PID.TID 0000.0001) %MON ke_mean                      =   6.5759906398324E-01
(PID.TID 0000.0001) %MON ke_vol                       =   4.9523908919847E+19
(PID.TID 0000.0001) %MON vort_r_min                   =  -2.0624878103416E-05
(PID.TID 0000.0001) %MON vort_r_max                   =   1.1216125238370E-05
(PID.TID 0000.0001) %MON vort_a_mean                  =   6.7059142262020E-08
(PID.TID 0000.0001) %MON vort_a_sd                    =   8.3772085279887E-05
(PID.TID 0000.0001) %MON vort_p_mean                  =   6.8806709672840E-08
(PID.TID 0000.0001) %MON vort_p_sd                    =   9.1717119903067E-05
(PID.TID 0000.0001) %MON surfExpan_theta_mean         =  -5.8149301754266E-02
(PID.TID 0000.0001) %MON surfExpan_salt_mean          =  -1.3654822031891E-03
(PID.TID 0000.0001) %MON surfExpan_Heat_mean          =   4.5891955652165E+00
(PID.TID 0000.0001) %MON En_Budget_T2PE_mean          =  -8.8852035384175E+00
(PID.TID 0000.0001) // =======================================================
(PID.TID 0000.0001) // End MONITOR dynamic field statistics
(PID.TID 0000.0001) // =======================================================
(PID.TID 0000.0001) // =======================================================
(PID.TID 0000.0001) // Begin MONITOR Land statistics
(PID.TID 0000.0001) // =======================================================
(PID.TID 0000.0001) %MON land_time_sec                =   1.3050000000000E+04
(PID.TID 0000.0001) %MON land_SnwH_ave_G              =   1.5321984514623E-01
(PID.TID 0000.0001) %MON land_SnwH_ave_S              =   5.5903764076054E-01
(PID.TID 0000.0001) %MON land_SnwH_ave_T              =   0.0000000000000E+00
(PID.TID 0000.0001) %MON land_SnwH_ave_N              =   1.2389073140584E-01
(PID.TID 0000.0001) %MON land_SnwH_max_S              =   9.9998414986425E-01
(PID.TID 0000.0001) %MON land_SnwH_max_T              =   0.0000000000000E+00
(PID.TID 0000.0001) %MON land_SnwH_max_N              =   9.9999808168922E-01
(PID.TID 0000.0001) %MON land_TotEnerg_G              =  -6.3566830854438E+21
(PID.TID 0000.0001) %MON land_TotEnerg_S              =  -5.0024135345595E+21
(PID.TID 0000.0001) %MON land_TotEnerg_T              =   7.2749909585004E+21
(PID.TID 0000.0001) %MON land_TotEnerg_N              =  -8.6292605093847E+21
(PID.TID 0000.0001) %MON land_Tsrf_ave_G              =  -8.5289105764645E+00
(PID.TID 0000.0001) %MON land_Tsrf_ave_S              =  -7.3539294929116E+00
(PID.TID 0000.0001) %MON land_Tsrf_ave_T              =   9.9934663429987E+00
(PID.TID 0000.0001) %MON land_Tsrf_ave_N              =  -2.1278765853729E+01
(PID.TID 0000.0001) %MON land_Tsrf_min_S              =  -3.3663756805142E+01
(PID.TID 0000.0001) %MON land_Tsrf_min_T              =  -3.1519479416311E+00
(PID.TID 0000.0001) %MON land_Tsrf_min_N              =  -5.2030060788980E+01
(PID.TID 0000.0001) %MON land_Tsrf_max_S              =   2.0132674641215E+01
(PID.TID 0000.0001) %MON land_Tsrf_max_T              =   2.0143884819751E+01
(PID.TID 0000.0001) %MON land_Tsrf_max_N              =   8.0504239550124E+00
(PID.TID 0000.0001) %MON land_Tgr1_ave_G              =  -7.3291696218723E+00
(PID.TID 0000.0001) %MON land_Tgr1_ave_S              =  -7.2437813132356E+00
(PID.TID 0000.0001) %MON land_Tgr1_ave_T              =   9.9934663429987E+00
(PID.TID 0000.0001) %MON land_Tgr1_ave_N              =  -1.8924415916248E+01
(PID.TID 0000.0001) %MON land_Tgr1_min_S              =  -3.9317583245623E+01
(PID.TID 0000.0001) %MON land_Tgr1_min_T              =  -3.1519479416311E+00
(PID.TID 0000.0001) %MON land_Tgr1_min_N              =  -5.4644756863448E+01
(PID.TID 0000.0001) %MON land_Tgr1_max_S              =   2.0132674641215E+01
(PID.TID 0000.0001) %MON land_Tgr1_max_T              =   2.0143884819751E+01
(PID.TID 0000.0001) %MON land_Tgr1_max_N              =   8.0504239550124E+00
(PID.TID 0000.0001) %MON land_Tgr2_ave_G              =   4.2030345223115E+00
(PID.TID 0000.0001) %MON land_Tgr2_ave_S              =  -1.8725879557948E+01
(PID.TID 0000.0001) %MON land_Tgr2_ave_T              =   2.2008656182939E+01
(PID.TID 0000.0001) %MON land_Tgr2_ave_N              =  -2.4903594872039E-01
(PID.TID 0000.0001) %MON land_Tgr2_min_S              =  -6.4749780148267E+01
(PID.TID 0000.0001) %MON land_Tgr2_min_T              =  -9.7034288385844E+00
(PID.TID 0000.0001) %MON land_Tgr2_min_N              =  -4.0200519813302E+01
(PID.TID 0000.0001) %MON land_Tgr2_max_S              =   2.3359755503510E+01
(PID.TID 0000.0001) %MON land_Tgr2_max_T              =   3.1350030803281E+01
(PID.TID 0000.0001) %MON land_Tgr2_max_N              =   2.9819489049224E+01
(PID.TID 0000.0001) %MON land_grdW_ave_G              =   4.8672809126359E-01
(PID.TID 0000.0001) %MON land_grdW_ave_S              =   3.0849441524011E-01
(PID.TID 0000.0001) %MON land_grdW_ave_T              =   5.6410938501135E-01
(PID.TID 0000.0001) %MON land_grdW_ave_N              =   4.9287305755088E-01
(PID.TID 0000.0001) %MON land_grdW_min_S              =   2.7854905705623E-02
(PID.TID 0000.0001) %MON land_grdW_min_T              =   0.0000000000000E+00
(PID.TID 0000.0001) %MON land_grdW_min_N              =   0.0000000000000E+00
(PID.TID 0000.0001) // =======================================================
(PID.TID 0000.0001) // End MONITOR Land statistics
(PID.TID 0000.0001) // =======================================================
(PID.TID 0000.0001) // =======================================================
(PID.TID 0000.0001) // Begin MONITOR Therm.SeaIce statistics
(PID.TID 0000.0001) // =======================================================
(PID.TID 0000.0001) %MON thSI_time_sec                =   1.3050000000000E+04
(PID.TID 0000.0001) %MON thSI_Ice_Area_G              =   1.7309406946969E+11
(PID.TID 0000.0001) %MON thSI_Ice_Area_S              =   0.0000000000000E+00
(PID.TID 0000.0001) %MON thSI_Ice_Area_N              =   1.7309406946969E+11
(PID.TID 0000.0001) %MON thSI_IceH_ave_G              =   1.3960709826748E-01
(PID.TID 0000.0001) %MON thSI_IceH_ave_S              =   0.0000000000000E+00
(PID.TID 0000.0001) %MON thSI_IceH_ave_N              =   1.3960709826748E-01
(PID.TID 0000.0001) %MON thSI_IceH_max_S              =   0.0000000000000E+00
(PID.TID 0000.0001) %MON thSI_IceH_max_N              =   1.4892457124377E-01
(PID.TID 0000.0001) %MON thSI_SnwH_ave_G              =   0.0000000000000E+00
(PID.TID 0000.0001) %MON thSI_SnwH_ave_S              =   0.0000000000000E+00
(PID.TID 0000.0001) %MON thSI_SnwH_ave_N              =   0.0000000000000E+00
(PID.TID 0000.0001) %MON thSI_SnwH_max_S              =   0.0000000000000E+00
(PID.TID 0000.0001) %MON thSI_SnwH_max_N              =   0.0000000000000E+00
(PID.TID 0000.0001) %MON thSI_TotEnerg_G              =  -7.4682230811528E+18
(PID.TID 0000.0001) %MON thSI_Tsrf_ave_G              =  -9.1252966695236E+00
(PID.TID 0000.0001) %MON thSI_Tsrf_ave_S              =   0.0000000000000E+00
(PID.TID 0000.0001) %MON thSI_Tsrf_ave_N              =  -9.1252966695236E+00
(PID.TID 0000.0001) %MON thSI_Tsrf_min_S              =   0.0000000000000E+00
(PID.TID 0000.0001) %MON thSI_Tsrf_min_N              =  -9.2698815170384E+00
(PID.TID 0000.0001) %MON thSI_Tsrf_max_S              =   0.0000000000000E+00
(PID.TID 0000.0001) %MON thSI_Tsrf_max_N              =  -8.8434927057189E+00
(PID.TID 0000.0001) %MON thSI_Tic1_ave_G              =  -6.8577100024453E+00
(PID.TID 0000.0001) %MON thSI_Tic1_ave_S              =   0.0000000000000E+00
(PID.TID 0000.0001) %MON thSI_Tic1_ave_N              =  -6.8577100024453E+00
(PID.TID 0000.0001) %MON thSI_Tic1_min_S              =   0.0000000000000E+00
(PID.TID 0000.0001) %MON thSI_Tic1_min_N              =  -6.9064750994415E+00
(PID.TID 0000.0001) %MON thSI_Tic1_max_S              =   0.0000000000000E+00
(PID.TID 0000.0001) %MON thSI_Tic1_max_N              =  -6.7792224991637E+00
(PID.TID 0000.0001) %MON thSI_Tic2_ave_G              =  -3.2635372670037E+00
(PID.TID 0000.0001) %MON thSI_Tic2_ave_S              =   0.0000000000000E+00
(PID.TID 0000.0001) %MON thSI_Tic2_ave_N              =  -3.2635372670037E+00
(PID.TID 0000.0001) %MON thSI_Tic2_min_S              =   0.0000000000000E+00
(PID.TID 0000.0001) %MON thSI_Tic2_min_N              =  -3.3171752007668E+00
(PID.TID 0000.0001) %MON thSI_Tic2_max_S              =   0.0000000000000E+00
(PID.TID 0000.0001) %MON thSI_Tic2_max_N              =  -3.2112207848515E+00
(PID.TID 0000.0001) // =======================================================
(PID.TID 0000.0001) // End MONITOR Therm.SeaIce statistics
(PID.TID 0000.0001) // =======================================================
 cg2d: Sum(rhs),rhsMax =  -6.98491930961609E-10  1.93173405167839E+04
(PID.TID 0000.0001)                    cg2d_init_res =    1.08848613700776E+04
(PID.TID 0000.0001)                       cg2d_iters =    16
(PID.TID 0000.0001)                         cg2d_res =    6.69031639845421E-11
(PID.TID 0000.0001) // =======================================================
(PID.TID 0000.0001) // Begin MONITOR dynamic field statistics
(PID.TID 0000.0001) // =======================================================
(PID.TID 0000.0001) %MON time_tsnumber                =                    30
(PID.TID 0000.0001) %MON time_secondsf                =   1.3500000000000E+04
(PID.TID 0000.0001) %MON dynstat_eta_max              =   3.2523895195796E+03
(PID.TID 0000.0001) %MON dynstat_eta_min              =  -7.5927097843342E+02
(PID.TID 0000.0001) %MON dynstat_eta_mean             =   2.5705212449625E-14
(PID.TID 0000.0001) %MON dynstat_eta_sd               =   4.7321799539894E+02
(PID.TID 0000.0001) %MON dynstat_eta_del2             =   3.6111738644708E+01
(PID.TID 0000.0001) %MON dynstat_uvel_max             =   5.0897208935306E+00
(PID.TID 0000.0001) %MON dynstat_uvel_min             =  -5.4459944683253E+00
(PID.TID 0000.0001) %MON dynstat_uvel_mean            =   3.9114276904577E-02
(PID.TID 0000.0001) %MON dynstat_uvel_sd              =   8.0015170826391E-01
(PID.TID 0000.0001) %MON dynstat_uvel_del2            =   2.7197496639191E-02
(PID.TID 0000.0001) %MON dynstat_vvel_max             =   5.1691830473118E+00
(PID.TID 0000.0001) %MON dynstat_vvel_min             =  -5.8195000069864E+00
(PID.TID 0000.0001) %MON dynstat_vvel_mean            =   2.3835808692542E-02
(PID.TID 0000.0001) %MON dynstat_vvel_sd              =   8.1643064738285E-01
(PID.TID 0000.0001) %MON dynstat_vvel_del2            =   2.6966426210430E-02
(PID.TID 0000.0001) %MON dynstat_wvel_max             =   2.2536119305842E-01
(PID.TID 0000.0001) %MON dynstat_wvel_min             =  -1.0474552897781E-01
(PID.TID 0000.0001) %MON dynstat_wvel_mean            =   5.7130460143162E-04
(PID.TID 0000.0001) %MON dynstat_wvel_sd              =   1.0293271680871E-02
(PID.TID 0000.0001) %MON dynstat_wvel_del2            =   2.0213176319985E-03
(PID.TID 0000.0001) %MON dynstat_theta_max            =   4.3812104317920E+02
(PID.TID 0000.0001) %MON dynstat_theta_min            =   2.8257407373455E+02
(PID.TID 0000.0001) %MON dynstat_theta_mean           =   3.3167472047293E+02
(PID.TID 0000.0001) %MON dynstat_theta_sd             =   4.7463414289479E+01
(PID.TID 0000.0001) %MON dynstat_theta_del2           =   3.0111339594645E-02
(PID.TID 0000.0001) %MON dynstat_salt_max             =   4.7403847971154E+00
(PID.TID 0000.0001) %MON dynstat_salt_min             =  -2.2088326852035E-02
(PID.TID 0000.0001) %MON dynstat_salt_mean            =   1.0733521362231E-01
(PID.TID 0000.0001) %MON dynstat_salt_sd              =   4.1708631547236E-01
(PID.TID 0000.0001) %MON dynstat_salt_del2            =   1.2504232780472E-02
(PID.TID 0000.0001) %MON advcfl_uvel_max              =   7.6454186051180E-03
(PID.TID 0000.0001) %MON advcfl_vvel_max              =   8.3198831987535E-03
(PID.TID 0000.0001) %MON advcfl_wvel_max              =   3.6877286136833E-03
(PID.TID 0000.0001) %MON advcfl_W_hf_max              =   1.8749079591305E-02
(PID.TID 0000.0001) %MON pe_b_mean                    =  -1.2274376478250E+00
(PID.TID 0000.0001) %MON ke_max                       =   1.6207013169377E+01
(PID.TID 0000.0001) %MON ke_mean                      =   6.5003657701129E-01
(PID.TID 0000.0001) %MON ke_vol                       =   4.9523908919847E+19
(PID.TID 0000.0001) %MON vort_r_min                   =  -2.0321192564838E-05
(PID.TID 0000.0001) %MON vort_r_max                   =   1.1756681582176E-05
(PID.TID 0000.0001) %MON vort_a_mean                  =   6.7059142261964E-08
(PID.TID 0000.0001) %MON vort_a_sd                    =   8.3774384250351E-05
(PID.TID 0000.0001) %MON vort_p_mean                  =   6.8805425832266E-08
(PID.TID 0000.0001) %MON vort_p_sd                    =   9.1693595119977E-05
(PID.TID 0000.0001) %MON surfExpan_theta_mean         =  -5.6659257092995E-02
(PID.TID 0000.0001) %MON surfExpan_salt_mean          =  -1.4568648041539E-03
(PID.TID 0000.0001) %MON surfExpan_Heat_mean          =   4.4801690925148E+00
(PID.TID 0000.0001) %MON En_Budget_T2PE_mean          =  -8.6722608052341E+00
(PID.TID 0000.0001) // =======================================================
(PID.TID 0000.0001) // End MONITOR dynamic field statistics
(PID.TID 0000.0001) // =======================================================
(PID.TID 0000.0001) // =======================================================
(PID.TID 0000.0001) // Begin MONITOR Land statistics
(PID.TID 0000.0001) // =======================================================
(PID.TID 0000.0001) %MON land_time_sec                =   1.3500000000000E+04
(PID.TID 0000.0001) %MON land_SnwH_ave_G              =   1.5321889856327E-01
(PID.TID 0000.0001) %MON land_SnwH_ave_S              =   5.5903677096006E-01
(PID.TID 0000.0001) %MON land_SnwH_ave_T              =   0.0000000000000E+00
(PID.TID 0000.0001) %MON land_SnwH_ave_N              =   1.2388912781486E-01
(PID.TID 0000.0001) %MON land_SnwH_max_S              =   9.9998358808106E-01
(PID.TID 0000.0001) %MON land_SnwH_max_T              =   0.0000000000000E+00
(PID.TID 0000.0001) %MON land_SnwH_max_N              =   9.9999801783855E-01
(PID.TID 0000.0001) %MON land_TotEnerg_G              =  -6.3577893339211E+21
(PID.TID 0000.0001) %MON land_TotEnerg_S              =  -5.0024378817710E+21
(PID.TID 0000.0001) %MON land_TotEnerg_T              =   7.2744613884380E+21
(PID.TID 0000.0001) %MON land_TotEnerg_N              =  -8.6298128405880E+21
(PID.TID 0000.0001) %MON land_Tsrf_ave_G              =  -8.5554672340961E+00
(PID.TID 0000.0001) %MON land_Tsrf_ave_S              =  -7.3616280633531E+00
(PID.TID 0000.0001) %MON land_Tsrf_ave_T              =   9.9364659742296E+00
(PID.TID 0000.0001) %MON land_Tsrf_ave_N              =  -2.1291110544977E+01
(PID.TID 0000.0001) %MON land_Tsrf_min_S              =  -3.3640331795350E+01
(PID.TID 0000.0001) %MON land_Tsrf_min_T              =  -3.0520474915855E+00
(PID.TID 0000.0001) %MON land_Tsrf_min_N              =  -5.2025798234062E+01
(PID.TID 0000.0001) %MON land_Tsrf_max_S              =   2.0089053556613E+01
(PID.TID 0000.0001) %MON land_Tsrf_max_T              =   2.0058802376332E+01
(PID.TID 0000.0001) %MON land_Tsrf_max_N              =   7.9602731126271E+00
(PID.TID 0000.0001) %MON land_Tgr1_ave_G              =  -7.3593401880308E+00
(PID.TID 0000.0001) %MON land_Tgr1_ave_S              =  -7.2571607625148E+00
(PID.TID 0000.0001) %MON land_Tgr1_ave_T              =   9.9364659742296E+00
(PID.TID 0000.0001) %MON land_Tgr1_ave_N              =  -1.8942117265280E+01
(PID.TID 0000.0001) %MON land_Tgr1_min_S              =  -3.9328375746578E+01
(PID.TID 0000.0001) %MON land_Tgr1_min_T              =  -3.0520474915855E+00
(PID.TID 0000.0001) %MON land_Tgr1_min_N              =  -5.4632353632691E+01
(PID.TID 0000.0001) %MON land_Tgr1_max_S              =   2.0089053556613E+01
(PID.TID 0000.0001) %MON land_Tgr1_max_T              =   2.0058802376332E+01
(PID.TID 0000.0001) %MON land_Tgr1_max_N              =   7.9602731126271E+00
(PID.TID 0000.0001) %MON land_Tgr2_ave_G              =   4.2028574186038E+00
(PID.TID 0000.0001) %MON land_Tgr2_ave_S              =  -1.8725687238925E+01
(PID.TID 0000.0001) %MON land_Tgr2_ave_T              =   2.2008461741145E+01
(PID.TID 0000.0001) %MON land_Tgr2_ave_N              =  -2.4932131304655E-01
(PID.TID 0000.0001) %MON land_Tgr2_min_S              =  -6.4749351717183E+01
(PID.TID 0000.0001) %MON land_Tgr2_min_T              =  -9.7033447996010E+00
(PID.TID 0000.0001) %MON land_Tgr2_min_N              =  -4.0200754161959E+01
(PID.TID 0000.0001) %MON land_Tgr2_max_S              =   2.3359684738643E+01
(PID.TID 0000.0001) %MON land_Tgr2_max_T              =   3.1349588976779E+01
(PID.TID 0000.0001) %MON land_Tgr2_max_N              =   2.9818939990170E+01
(PID.TID 0000.0001) %MON land_grdW_ave_G              =   4.8672072859949E-01
(PID.TID 0000.0001) %MON land_grdW_ave_S              =   3.0848694265233E-01
(PID.TID 0000.0001) %MON land_grdW_ave_T              =   5.6409148206161E-01
(PID.TID 0000.0001) %MON land_grdW_ave_N              =   4.9287276903810E-01
(PID.TID 0000.0001) %MON land_grdW_min_S              =   2.7941151646124E-02
(PID.TID 0000.0001) %MON land_grdW_min_T              =   0.0000000000000E+00
(PID.TID 0000.0001) %MON land_grdW_min_N              =   0.0000000000000E+00
(PID.TID 0000.0001) // =======================================================
(PID.TID 0000.0001) // End MONITOR Land statistics
(PID.TID 0000.0001) // =======================================================
(PID.TID 0000.0001) // =======================================================
(PID.TID 0000.0001) // Begin MONITOR Therm.SeaIce statistics
(PID.TID 0000.0001) // =======================================================
(PID.TID 0000.0001) %MON thSI_time_sec                =   1.3500000000000E+04
(PID.TID 0000.0001) %MON thSI_Ice_Area_G              =   1.7309406946969E+11
(PID.TID 0000.0001) %MON thSI_Ice_Area_S              =   0.0000000000000E+00
(PID.TID 0000.0001) %MON thSI_Ice_Area_N              =   1.7309406946969E+11
(PID.TID 0000.0001) %MON thSI_IceH_ave_G              =   1.3974350804380E-01
(PID.TID 0000.0001) %MON thSI_IceH_ave_S              =   0.0000000000000E+00
(PID.TID 0000.0001) %MON thSI_IceH_ave_N              =   1.3974350804380E-01
(PID.TID 0000.0001) %MON thSI_IceH_max_S              =   0.0000000000000E+00
(PID.TID 0000.0001) %MON thSI_IceH_max_N              =   1.4904929919053E-01
(PID.TID 0000.0001) %MON thSI_SnwH_ave_G              =   0.0000000000000E+00
(PID.TID 0000.0001) %MON thSI_SnwH_ave_S              =   0.0000000000000E+00
(PID.TID 0000.0001) %MON thSI_SnwH_ave_N              =   0.0000000000000E+00
(PID.TID 0000.0001) %MON thSI_SnwH_max_S              =   0.0000000000000E+00
(PID.TID 0000.0001) %MON thSI_SnwH_max_N              =   0.0000000000000E+00
(PID.TID 0000.0001) %MON thSI_TotEnerg_G              =  -7.4781856526039E+18
(PID.TID 0000.0001) %MON thSI_Tsrf_ave_G              =  -9.1782891190171E+00
(PID.TID 0000.0001) %MON thSI_Tsrf_ave_S              =   0.0000000000000E+00
(PID.TID 0000.0001) %MON thSI_Tsrf_ave_N              =  -9.1782891190171E+00
(PID.TID 0000.0001) %MON thSI_Tsrf_min_S              =   0.0000000000000E+00
(PID.TID 0000.0001) %MON thSI_Tsrf_min_N              =  -9.3300142115284E+00
(PID.TID 0000.0001) %MON thSI_Tsrf_max_S              =   0.0000000000000E+00
(PID.TID 0000.0001) %MON thSI_Tsrf_max_N              =  -8.8848774102774E+00
(PID.TID 0000.0001) %MON thSI_Tic1_ave_G              =  -6.9284998468584E+00
(PID.TID 0000.0001) %MON thSI_Tic1_ave_S              =   0.0000000000000E+00
(PID.TID 0000.0001) %MON thSI_Tic1_ave_N              =  -6.9284998468584E+00
(PID.TID 0000.0001) %MON thSI_Tic1_min_S              =   0.0000000000000E+00
(PID.TID 0000.0001) %MON thSI_Tic1_min_N              =  -6.9809980271334E+00
(PID.TID 0000.0001) %MON thSI_Tic1_max_S              =   0.0000000000000E+00
(PID.TID 0000.0001) %MON thSI_Tic1_max_N              =  -6.8352509135752E+00
(PID.TID 0000.0001) %MON thSI_Tic2_ave_G              =  -3.2964853371139E+00
(PID.TID 0000.0001) %MON thSI_Tic2_ave_S              =   0.0000000000000E+00
(PID.TID 0000.0001) %MON thSI_Tic2_ave_N              =  -3.2964853371139E+00
(PID.TID 0000.0001) %MON thSI_Tic2_min_S              =   0.0000000000000E+00
(PID.TID 0000.0001) %MON thSI_Tic2_min_N              =  -3.3454693193854E+00
(PID.TID 0000.0001) %MON thSI_Tic2_max_S              =   0.0000000000000E+00
(PID.TID 0000.0001) %MON thSI_Tic2_max_N              =  -3.2481264472751E+00
(PID.TID 0000.0001) // =======================================================
(PID.TID 0000.0001) // End MONITOR Therm.SeaIce statistics
(PID.TID 0000.0001) // =======================================================
 cg2d: Sum(rhs),rhsMax =  -2.21189111471176E-09  1.87375384745962E+04
(PID.TID 0000.0001)                    cg2d_init_res =    1.07373299290828E+04
(PID.TID 0000.0001)                       cg2d_iters =    16
(PID.TID 0000.0001)                         cg2d_res =    6.46285539009366E-11
(PID.TID 0000.0001) // =======================================================
(PID.TID 0000.0001) // Begin MONITOR dynamic field statistics
(PID.TID 0000.0001) // =======================================================
(PID.TID 0000.0001) %MON time_tsnumber                =                    31
(PID.TID 0000.0001) %MON time_secondsf                =   1.3950000000000E+04
(PID.TID 0000.0001) %MON dynstat_eta_max              =   3.1761681073468E+03
(PID.TID 0000.0001) %MON dynstat_eta_min              =  -7.5880439772707E+02
(PID.TID 0000.0001) %MON dynstat_eta_mean             =   2.5705212449625E-14
(PID.TID 0000.0001) %MON dynstat_eta_sd               =   4.6367924893781E+02
(PID.TID 0000.0001) %MON dynstat_eta_del2             =   3.6092780904128E+01
(PID.TID 0000.0001) %MON dynstat_uvel_max             =   4.9289733047847E+00
(PID.TID 0000.0001) %MON dynstat_uvel_min             =  -5.3233680010029E+00
(PID.TID 0000.0001) %MON dynstat_uvel_mean            =   4.5940185832301E-02
(PID.TID 0000.0001) %MON dynstat_uvel_sd              =   7.9179727479887E-01
(PID.TID 0000.0001) %MON dynstat_uvel_del2            =   2.7799689254256E-02
(PID.TID 0000.0001) %MON dynstat_vvel_max             =   5.0816127761636E+00
(PID.TID 0000.0001) %MON dynstat_vvel_min             =  -5.6284160205277E+00
(PID.TID 0000.0001) %MON dynstat_vvel_mean            =   2.3196970189825E-02
(PID.TID 0000.0001) %MON dynstat_vvel_sd              =   8.1300159769492E-01
(PID.TID 0000.0001) %MON dynstat_vvel_del2            =   2.7624842835504E-02
(PID.TID 0000.0001) %MON dynstat_wvel_max             =   2.1337615621066E-01
(PID.TID 0000.0001) %MON dynstat_wvel_min             =  -9.2713622598637E-02
(PID.TID 0000.0001) %MON dynstat_wvel_mean            =   5.4844207776640E-04
(PID.TID 0000.0001) %MON dynstat_wvel_sd              =   1.0139237701838E-02
(PID.TID 0000.0001) %MON dynstat_wvel_del2            =   2.0481826756470E-03
(PID.TID 0000.0001) %MON dynstat_theta_max            =   4.3810097061083E+02
(PID.TID 0000.0001) %MON dynstat_theta_min            =   2.8236005126264E+02
(PID.TID 0000.0001) %MON dynstat_theta_mean           =   3.3167249541872E+02
(PID.TID 0000.0001) %MON dynstat_theta_sd             =   4.7465492995378E+01
(PID.TID 0000.0001) %MON dynstat_theta_del2           =   3.1040860662684E-02
(PID.TID 0000.0001) %MON dynstat_salt_max             =   4.7774875100346E+00
(PID.TID 0000.0001) %MON dynstat_salt_min             =  -2.4335353999609E-02
(PID.TID 0000.0001) %MON dynstat_salt_mean            =   1.1065171672614E-01
(PID.TID 0000.0001) %MON dynstat_salt_sd              =   4.2849718881413E-01
(PID.TID 0000.0001) %MON dynstat_salt_del2            =   1.2821211227850E-02
(PID.TID 0000.0001) %MON advcfl_uvel_max              =   7.4732681043785E-03
(PID.TID 0000.0001) %MON advcfl_vvel_max              =   8.0466988278317E-03
(PID.TID 0000.0001) %MON advcfl_wvel_max              =   3.5338330171283E-03
(PID.TID 0000.0001) %MON advcfl_W_hf_max              =   1.9071690213503E-02
(PID.TID 0000.0001) %MON pe_b_mean                    =  -1.2245501460692E+00
(PID.TID 0000.0001) %MON ke_max                       =   1.5367811461704E+01
(PID.TID 0000.0001) %MON ke_mean                      =   6.4093794514501E-01
(PID.TID 0000.0001) %MON ke_vol                       =   4.9523908919847E+19
(PID.TID 0000.0001) %MON vort_r_min                   =  -1.9901010014941E-05
(PID.TID 0000.0001) %MON vort_r_max                   =   1.2319794285910E-05
(PID.TID 0000.0001) %MON vort_a_mean                  =   6.7059142262147E-08
(PID.TID 0000.0001) %MON vort_a_sd                    =   8.3776619630046E-05
(PID.TID 0000.0001) %MON vort_p_mean                  =   6.8804111571527E-08
(PID.TID 0000.0001) %MON vort_p_sd                    =   9.1671221590373E-05
(PID.TID 0000.0001) %MON surfExpan_theta_mean         =  -5.4114929815069E-02
(PID.TID 0000.0001) %MON surfExpan_salt_mean          =  -1.5417931494299E-03
(PID.TID 0000.0001) %MON surfExpan_Heat_mean          =   4.2817665777277E+00
(PID.TID 0000.0001) %MON En_Budget_T2PE_mean          =  -8.2921682090680E+00
(PID.TID 0000.0001) // =======================================================
(PID.TID 0000.0001) // End MONITOR dynamic field statistics
(PID.TID 0000.0001) // =======================================================
(PID.TID 0000.0001) // =======================================================
(PID.TID 0000.0001) // Begin MONITOR Land statistics
(PID.TID 0000.0001) // =======================================================
(PID.TID 0000.0001) %MON land_time_sec                =   1.3950000000000E+04
(PID.TID 0000.0001) %MON land_SnwH_ave_G              =   1.5321795441811E-01
(PID.TID 0000.0001) %MON land_SnwH_ave_S              =   5.5903590624968E-01
(PID.TID 0000.0001) %MON land_SnwH_ave_T              =   0.0000000000000E+00
(PID.TID 0000.0001) %MON land_SnwH_ave_N              =   1.2388752742916E-01
(PID.TID 0000.0001) %MON land_SnwH_max_S              =   9.9998302514624E-01
(PID.TID 0000.0001) %MON land_SnwH_max_T              =   0.0000000000000E+00
(PID.TID 0000.0001) %MON land_SnwH_max_N              =   9.9999795394428E-01
(PID.TID 0000.0001) %MON land_TotEnerg_G              =  -6.3588431780651E+21
(PID.TID 0000.0001) %MON land_TotEnerg_S              =  -5.0024561752214E+21
(PID.TID 0000.0001) %MON land_TotEnerg_T              =   7.2739689121918E+21
(PID.TID 0000.0001) %MON land_TotEnerg_N              =  -8.6303559150355E+21
(PID.TID 0000.0001) %MON land_Tsrf_ave_G              =  -8.5802333968812E+00
(PID.TID 0000.0001) %MON land_Tsrf_ave_S              =  -7.3691539750532E+00
(PID.TID 0000.0001) %MON land_Tsrf_ave_T              =   9.8839727993294E+00
(PID.TID 0000.0001) %MON land_Tsrf_ave_N              =  -2.1302954056915E+01
(PID.TID 0000.0001) %MON land_Tsrf_min_S              =  -3.3614689255685E+01
(PID.TID 0000.0001) %MON land_Tsrf_min_T              =  -2.9555332479540E+00
(PID.TID 0000.0001) %MON land_Tsrf_min_N              =  -5.2021413193779E+01
(PID.TID 0000.0001) %MON land_Tsrf_max_S              =   2.0052292562880E+01
(PID.TID 0000.0001) %MON land_Tsrf_max_T              =   1.9983612380174E+01
(PID.TID 0000.0001) %MON land_Tsrf_max_N              =   7.8762183986774E+00
(PID.TID 0000.0001) %MON land_Tgr1_ave_G              =  -7.3873121220568E+00
(PID.TID 0000.0001) %MON land_Tgr1_ave_S              =  -7.2687769078114E+00
(PID.TID 0000.0001) %MON land_Tgr1_ave_T              =   9.8839727993294E+00
(PID.TID 0000.0001) %MON land_Tgr1_ave_N              =  -1.8959020354014E+01
(PID.TID 0000.0001) %MON land_Tgr1_min_S              =  -3.9339127302063E+01
(PID.TID 0000.0001) %MON land_Tgr1_min_T              =  -2.9555332479540E+00
(PID.TID 0000.0001) %MON land_Tgr1_min_N              =  -5.4619966620400E+01
(PID.TID 0000.0001) %MON land_Tgr1_max_S              =   2.0052292562880E+01
(PID.TID 0000.0001) %MON land_Tgr1_max_T              =   1.9983612380174E+01
(PID.TID 0000.0001) %MON land_Tgr1_max_N              =   7.8762183986774E+00
(PID.TID 0000.0001) %MON land_Tgr2_ave_G              =   4.2026799312102E+00
(PID.TID 0000.0001) %MON land_Tgr2_ave_S              =  -1.8725495106119E+01
(PID.TID 0000.0001) %MON land_Tgr2_ave_T              =   2.2008266595461E+01
(PID.TID 0000.0001) %MON land_Tgr2_ave_N              =  -2.4960691129436E-01
(PID.TID 0000.0001) %MON land_Tgr2_min_S              =  -6.4748923490422E+01
(PID.TID 0000.0001) %MON land_Tgr2_min_T              =  -9.7032595425107E+00
(PID.TID 0000.0001) %MON land_Tgr2_min_N              =  -4.0200988279283E+01
(PID.TID 0000.0001) %MON land_Tgr2_max_S              =   2.3359612976880E+01
(PID.TID 0000.0001) %MON land_Tgr2_max_T              =   3.1349145266186E+01
(PID.TID 0000.0001) %MON land_Tgr2_max_N              =   2.9818386965720E+01
(PID.TID 0000.0001) %MON land_grdW_ave_G              =   4.8671342905215E-01
(PID.TID 0000.0001) %MON land_grdW_ave_S              =   3.0847950992422E-01
(PID.TID 0000.0001) %MON land_grdW_ave_T              =   5.6407374734307E-01
(PID.TID 0000.0001) %MON land_grdW_ave_N              =   4.9287248099422E-01
(PID.TID 0000.0001) %MON land_grdW_min_S              =   2.8027083415339E-02
(PID.TID 0000.0001) %MON land_grdW_min_T              =   0.0000000000000E+00
(PID.TID 0000.0001) %MON land_grdW_min_N              =   0.0000000000000E+00
(PID.TID 0000.0001) // =======================================================
(PID.TID 0000.0001) // End MONITOR Land statistics
(PID.TID 0000.0001) // =======================================================
(PID.TID 0000.0001) // =======================================================
(PID.TID 0000.0001) // Begin MONITOR Therm.SeaIce statistics
(PID.TID 0000.0001) // =======================================================
(PID.TID 0000.0001) %MON thSI_time_sec                =   1.3950000000000E+04
(PID.TID 0000.0001) %MON thSI_Ice_Area_G              =   1.7309406946969E+11
(PID.TID 0000.0001) %MON thSI_Ice_Area_S              =   0.0000000000000E+00
(PID.TID 0000.0001) %MON thSI_Ice_Area_N              =   1.7309406946969E+11
(PID.TID 0000.0001) %MON thSI_IceH_ave_G              =   1.3988236337086E-01
(PID.TID 0000.0001) %MON thSI_IceH_ave_S              =   0.0000000000000E+00
(PID.TID 0000.0001) %MON thSI_IceH_ave_N              =   1.3988236337086E-01
(PID.TID 0000.0001) %MON thSI_IceH_max_S              =   0.0000000000000E+00
(PID.TID 0000.0001) %MON thSI_IceH_max_N              =   1.4917668873555E-01
(PID.TID 0000.0001) %MON thSI_SnwH_ave_G              =   0.0000000000000E+00
(PID.TID 0000.0001) %MON thSI_SnwH_ave_S              =   0.0000000000000E+00
(PID.TID 0000.0001) %MON thSI_SnwH_ave_N              =   0.0000000000000E+00
(PID.TID 0000.0001) %MON thSI_SnwH_max_S              =   0.0000000000000E+00
(PID.TID 0000.0001) %MON thSI_SnwH_max_N              =   0.0000000000000E+00
(PID.TID 0000.0001) %MON thSI_TotEnerg_G              =  -7.4880634284108E+18
(PID.TID 0000.0001) %MON thSI_Tsrf_ave_G              =  -9.2263192026513E+00
(PID.TID 0000.0001) %MON thSI_Tsrf_ave_S              =   0.0000000000000E+00
(PID.TID 0000.0001) %MON thSI_Tsrf_ave_N              =  -9.2263192026513E+00
(PID.TID 0000.0001) %MON thSI_Tsrf_min_S              =   0.0000000000000E+00
(PID.TID 0000.0001) %MON thSI_Tsrf_min_N              =  -9.3853756555501E+00
(PID.TID 0000.0001) %MON thSI_Tsrf_max_S              =   0.0000000000000E+00
(PID.TID 0000.0001) %MON thSI_Tsrf_max_N              =  -8.9213364166485E+00
(PID.TID 0000.0001) %MON thSI_Tic1_ave_G              =  -6.9936020017441E+00
(PID.TID 0000.0001) %MON thSI_Tic1_ave_S              =   0.0000000000000E+00
(PID.TID 0000.0001) %MON thSI_Tic1_ave_N              =  -6.9936020017441E+00
(PID.TID 0000.0001) %MON thSI_Tic1_min_S              =   0.0000000000000E+00
(PID.TID 0000.0001) %MON thSI_Tic1_min_N              =  -7.0505521038605E+00
(PID.TID 0000.0001) %MON thSI_Tic1_max_S              =   0.0000000000000E+00
(PID.TID 0000.0001) %MON thSI_Tic1_max_N              =  -6.8856039941381E+00
(PID.TID 0000.0001) %MON thSI_Tic2_ave_G              =  -3.3267337196114E+00
(PID.TID 0000.0001) %MON thSI_Tic2_ave_S              =   0.0000000000000E+00
(PID.TID 0000.0001) %MON thSI_Tic2_ave_N              =  -3.3267337196114E+00
(PID.TID 0000.0001) %MON thSI_Tic2_min_S              =   0.0000000000000E+00
(PID.TID 0000.0001) %MON thSI_Tic2_min_N              =  -3.3710793365107E+00
(PID.TID 0000.0001) %MON thSI_Tic2_max_S              =   0.0000000000000E+00
(PID.TID 0000.0001) %MON thSI_Tic2_max_N              =  -3.2823483154623E+00
(PID.TID 0000.0001) // =======================================================
(PID.TID 0000.0001) // End MONITOR Therm.SeaIce statistics
(PID.TID 0000.0001) // =======================================================
 cg2d: Sum(rhs),rhsMax =  -3.49245965480804E-10  1.82557983231539E+04
(PID.TID 0000.0001)                    cg2d_init_res =    1.05743908347839E+04
(PID.TID 0000.0001)                       cg2d_iters =    16
(PID.TID 0000.0001)                         cg2d_res =    6.25827920965468E-11
(PID.TID 0000.0001) // =======================================================
(PID.TID 0000.0001) // Begin MONITOR dynamic field statistics
(PID.TID 0000.0001) // =======================================================
(PID.TID 0000.0001) %MON time_tsnumber                =                    32
(PID.TID 0000.0001) %MON time_secondsf                =   1.4400000000000E+04
(PID.TID 0000.0001) %MON dynstat_eta_max              =   3.1020297143447E+03
(PID.TID 0000.0001) %MON dynstat_eta_min              =  -7.5900780259250E+02
(PID.TID 0000.0001) %MON dynstat_eta_mean             =  -1.1567345602331E-13
(PID.TID 0000.0001) %MON dynstat_eta_sd               =   4.5499075216174E+02
(PID.TID 0000.0001) %MON dynstat_eta_del2             =   3.6091967315582E+01
(PID.TID 0000.0001) %MON dynstat_uvel_max             =   4.7698976979283E+00
(PID.TID 0000.0001) %MON dynstat_uvel_min             =  -5.1174049687438E+00
(PID.TID 0000.0001) %MON dynstat_uvel_mean            =   5.2888803335194E-02
(PID.TID 0000.0001) %MON dynstat_uvel_sd              =   7.8320166994589E-01
(PID.TID 0000.0001) %MON dynstat_uvel_del2            =   2.8439406009987E-02
(PID.TID 0000.0001) %MON dynstat_vvel_max             =   4.9606005584399E+00
(PID.TID 0000.0001) %MON dynstat_vvel_min             =  -5.4154839859311E+00
(PID.TID 0000.0001) %MON dynstat_vvel_mean            =   2.2761529040831E-02
(PID.TID 0000.0001) %MON dynstat_vvel_sd              =   8.0801502054990E-01
(PID.TID 0000.0001) %MON dynstat_vvel_del2            =   2.8263487983114E-02
(PID.TID 0000.0001) %MON dynstat_wvel_max             =   2.0846588075107E-01
(PID.TID 0000.0001) %MON dynstat_wvel_min             =  -9.0160830509172E-02
(PID.TID 0000.0001) %MON dynstat_wvel_mean            =   5.1691468032901E-04
(PID.TID 0000.0001) %MON dynstat_wvel_sd              =   9.9657591385987E-03
(PID.TID 0000.0001) %MON dynstat_wvel_del2            =   2.0736058477092E-03
(PID.TID 0000.0001) %MON dynstat_theta_max            =   4.3806430263335E+02
(PID.TID 0000.0001) %MON dynstat_theta_min            =   2.8214675219540E+02
(PID.TID 0000.0001) %MON dynstat_theta_mean           =   3.3167024493735E+02
(PID.TID 0000.0001) %MON dynstat_theta_sd             =   4.7467579400896E+01
(PID.TID 0000.0001) %MON dynstat_theta_del2           =   3.1969513524582E-02
(PID.TID 0000.0001) %MON dynstat_salt_max             =   4.8124155006635E+00
(PID.TID 0000.0001) %MON dynstat_salt_min             =  -2.6641669060289E-02
(PID.TID 0000.0001) %MON dynstat_salt_mean            =   1.1395812729312E-01
(PID.TID 0000.0001) %MON dynstat_salt_sd              =   4.3981125341888E-01
(PID.TID 0000.0001) %MON dynstat_salt_del2            =   1.3137010084824E-02
(PID.TID 0000.0001) %MON advcfl_uvel_max              =   7.1841246599702E-03
(PID.TID 0000.0001) %MON advcfl_vvel_max              =   7.7422792634379E-03
(PID.TID 0000.0001) %MON advcfl_wvel_max              =   3.4112598668357E-03
(PID.TID 0000.0001) %MON advcfl_W_hf_max              =   1.9240006258559E-02
(PID.TID 0000.0001) %MON pe_b_mean                    =  -1.2201258120298E+00
(PID.TID 0000.0001) %MON ke_max                       =   1.4605620910908E+01
(PID.TID 0000.0001) %MON ke_mean                      =   6.3053889645039E-01
(PID.TID 0000.0001) %MON ke_vol                       =   4.9523908919847E+19
(PID.TID 0000.0001) %MON vort_r_min                   =  -1.9398397030058E-05
(PID.TID 0000.0001) %MON vort_r_max                   =   1.2907517895083E-05
(PID.TID 0000.0001) %MON vort_a_mean                  =   6.7059142262026E-08
(PID.TID 0000.0001) %MON vort_a_sd                    =   8.3778786980963E-05
(PID.TID 0000.0001) %MON vort_p_mean                  =   6.8802794605365E-08
(PID.TID 0000.0001) %MON vort_p_sd                    =   9.1650231639366E-05
(PID.TID 0000.0001) %MON surfExpan_theta_mean         =  -5.0759396899846E-02
(PID.TID 0000.0001) %MON surfExpan_salt_mean          =  -1.6186620956434E-03
(PID.TID 0000.0001) %MON surfExpan_Heat_mean          =   4.0138856969204E+00
(PID.TID 0000.0001) %MON En_Budget_T2PE_mean          =  -7.7824897401709E+00
(PID.TID 0000.0001) // =======================================================
(PID.TID 0000.0001) // End MONITOR dynamic field statistics
(PID.TID 0000.0001) // =======================================================
(PID.TID 0000.0001) // =======================================================
(PID.TID 0000.0001) // Begin MONITOR Land statistics
(PID.TID 0000.0001) // =======================================================
(PID.TID 0000.0001) %MON land_time_sec                =   1.4400000000000E+04
(PID.TID 0000.0001) %MON land_SnwH_ave_G              =   1.5321701272768E-01
(PID.TID 0000.0001) %MON land_SnwH_ave_S              =   5.5903504701016E-01
(PID.TID 0000.0001) %MON land_SnwH_ave_T              =   0.0000000000000E+00
(PID.TID 0000.0001) %MON land_SnwH_ave_N              =   1.2388593015899E-01
(PID.TID 0000.0001) %MON land_SnwH_max_S              =   9.9998246090744E-01
(PID.TID 0000.0001) %MON land_SnwH_max_T              =   0.0000000000000E+00
(PID.TID 0000.0001) %MON land_SnwH_max_N              =   9.9999789000526E-01
(PID.TID 0000.0001) %MON land_TotEnerg_G              =  -6.3598490947757E+21
(PID.TID 0000.0001) %MON land_TotEnerg_S              =  -5.0024691421756E+21
(PID.TID 0000.0001) %MON land_TotEnerg_T              =   7.2735101338988E+21
(PID.TID 0000.0001) %MON land_TotEnerg_N              =  -8.6308900864989E+21
(PID.TID 0000.0001) %MON land_Tsrf_ave_G              =  -8.6031722819080E+00
(PID.TID 0000.0001) %MON land_Tsrf_ave_S              =  -7.3756672689491E+00
(PID.TID 0000.0001) %MON land_Tsrf_ave_T              =   9.8355234409398E+00
(PID.TID 0000.0001) %MON land_Tsrf_ave_N              =  -2.1314186159760E+01
(PID.TID 0000.0001) %MON land_Tsrf_min_S              =  -3.3587329056642E+01
(PID.TID 0000.0001) %MON land_Tsrf_min_T              =  -2.8623649840147E+00
(PID.TID 0000.0001) %MON land_Tsrf_min_N              =  -5.2016573902497E+01
(PID.TID 0000.0001) %MON land_Tsrf_max_S              =   2.0021687395048E+01
(PID.TID 0000.0001) %MON land_Tsrf_max_T              =   1.9917381189264E+01
(PID.TID 0000.0001) %MON land_Tsrf_max_N              =   7.7979948033014E+00
(PID.TID 0000.0001) %MON land_Tgr1_ave_G              =  -7.4132426581246E+00
(PID.TID 0000.0001) %MON land_Tgr1_ave_S              =  -7.2788400205789E+00
(PID.TID 0000.0001) %MON land_Tgr1_ave_T              =   9.8355234409398E+00
(PID.TID 0000.0001) %MON land_Tgr1_ave_N              =  -1.8975060778239E+01
(PID.TID 0000.0001) %MON land_Tgr1_min_S              =  -3.9349835819595E+01
(PID.TID 0000.0001) %MON land_Tgr1_min_T              =  -2.8623649840147E+00
(PID.TID 0000.0001) %MON land_Tgr1_min_N              =  -5.4607595357559E+01
(PID.TID 0000.0001) %MON land_Tgr1_max_S              =   2.0021687395048E+01
(PID.TID 0000.0001) %MON land_Tgr1_max_T              =   1.9917381189264E+01
(PID.TID 0000.0001) %MON land_Tgr1_max_N              =   7.7979948033014E+00
(PID.TID 0000.0001) %MON land_Tgr2_ave_G              =   4.2025021131363E+00
(PID.TID 0000.0001) %MON land_Tgr2_ave_S              =  -1.8725303134883E+01
(PID.TID 0000.0001) %MON land_Tgr2_ave_T              =   2.2008070869160E+01
(PID.TID 0000.0001) %MON land_Tgr2_ave_N              =  -2.4989272817934E-01
(PID.TID 0000.0001) %MON land_Tgr2_min_S              =  -6.4748495467207E+01
(PID.TID 0000.0001) %MON land_Tgr2_min_T              =  -9.7031731096093E+00
(PID.TID 0000.0001) %MON land_Tgr2_min_N              =  -4.0201222166176E+01
(PID.TID 0000.0001) %MON land_Tgr2_max_S              =   2.3359540325820E+01
(PID.TID 0000.0001) %MON land_Tgr2_max_T              =   3.1348699794449E+01
(PID.TID 0000.0001) %MON land_Tgr2_max_N              =   2.9817830129911E+01
(PID.TID 0000.0001) %MON land_grdW_ave_G              =   4.8670618640162E-01
(PID.TID 0000.0001) %MON land_grdW_ave_S              =   3.0847211261218E-01
(PID.TID 0000.0001) %MON land_grdW_ave_T              =   5.6405616468167E-01
(PID.TID 0000.0001) %MON land_grdW_ave_N              =   4.9287219327011E-01
(PID.TID 0000.0001) %MON land_grdW_min_S              =   2.8112658658252E-02
(PID.TID 0000.0001) %MON land_grdW_min_T              =   0.0000000000000E+00
(PID.TID 0000.0001) %MON land_grdW_min_N              =   0.0000000000000E+00
(PID.TID 0000.0001) // =======================================================
(PID.TID 0000.0001) // End MONITOR Land statistics
(PID.TID 0000.0001) // =======================================================
(PID.TID 0000.0001) // =======================================================
(PID.TID 0000.0001) // Begin MONITOR Therm.SeaIce statistics
(PID.TID 0000.0001) // =======================================================
(PID.TID 0000.0001) %MON thSI_time_sec                =   1.4400000000000E+04
(PID.TID 0000.0001) %MON thSI_Ice_Area_G              =   1.7309406946969E+11
(PID.TID 0000.0001) %MON thSI_Ice_Area_S              =   0.0000000000000E+00
(PID.TID 0000.0001) %MON thSI_Ice_Area_N              =   1.7309406946969E+11
(PID.TID 0000.0001) %MON thSI_IceH_ave_G              =   1.4002344254108E-01
(PID.TID 0000.0001) %MON thSI_IceH_ave_S              =   0.0000000000000E+00
(PID.TID 0000.0001) %MON thSI_IceH_ave_N              =   1.4002344254108E-01
(PID.TID 0000.0001) %MON thSI_IceH_max_S              =   0.0000000000000E+00
(PID.TID 0000.0001) %MON thSI_IceH_max_N              =   1.4930653199470E-01
(PID.TID 0000.0001) %MON thSI_SnwH_ave_G              =   0.0000000000000E+00
(PID.TID 0000.0001) %MON thSI_SnwH_ave_S              =   0.0000000000000E+00
(PID.TID 0000.0001) %MON thSI_SnwH_ave_N              =   0.0000000000000E+00
(PID.TID 0000.0001) %MON thSI_SnwH_max_S              =   0.0000000000000E+00
(PID.TID 0000.0001) %MON thSI_SnwH_max_N              =   0.0000000000000E+00
(PID.TID 0000.0001) %MON thSI_TotEnerg_G              =  -7.4978587976216E+18
(PID.TID 0000.0001) %MON thSI_Tsrf_ave_G              =  -9.2695194376532E+00
(PID.TID 0000.0001) %MON thSI_Tsrf_ave_S              =   0.0000000000000E+00
(PID.TID 0000.0001) %MON thSI_Tsrf_ave_N              =  -9.2695194376532E+00
(PID.TID 0000.0001) %MON thSI_Tsrf_min_S              =   0.0000000000000E+00
(PID.TID 0000.0001) %MON thSI_Tsrf_min_N              =  -9.4361858801622E+00
(PID.TID 0000.0001) %MON thSI_Tsrf_max_S              =   0.0000000000000E+00
(PID.TID 0000.0001) %MON thSI_Tsrf_max_N              =  -8.9532264110188E+00
(PID.TID 0000.0001) %MON thSI_Tic1_ave_G              =  -7.0533247066249E+00
(PID.TID 0000.0001) %MON thSI_Tic1_ave_S              =   0.0000000000000E+00
(PID.TID 0000.0001) %MON thSI_Tic1_ave_N              =  -7.0533247066249E+00
(PID.TID 0000.0001) %MON thSI_Tic1_min_S              =   0.0000000000000E+00
(PID.TID 0000.0001) %MON thSI_Tic1_min_N              =  -7.1147455356663E+00
(PID.TID 0000.0001) %MON thSI_Tic1_max_S              =   0.0000000000000E+00
(PID.TID 0000.0001) %MON thSI_Tic1_max_N              =  -6.9307058137833E+00
(PID.TID 0000.0001) %MON thSI_Tic2_ave_G              =  -3.3545027839771E+00
(PID.TID 0000.0001) %MON thSI_Tic2_ave_S              =   0.0000000000000E+00
(PID.TID 0000.0001) %MON thSI_Tic2_ave_N              =  -3.3545027839771E+00
(PID.TID 0000.0001) %MON thSI_Tic2_min_S              =   0.0000000000000E+00
(PID.TID 0000.0001) %MON thSI_Tic2_min_N              =  -3.3942367775246E+00
(PID.TID 0000.0001) %MON thSI_Tic2_max_S              =   0.0000000000000E+00
(PID.TID 0000.0001) %MON thSI_Tic2_max_N              =  -3.3098447423015E+00
(PID.TID 0000.0001) // =======================================================
(PID.TID 0000.0001) // End MONITOR Therm.SeaIce statistics
(PID.TID 0000.0001) // =======================================================
 cg2d: Sum(rhs),rhsMax =  -1.28056854009628E-09  1.78642362775981E+04
(PID.TID 0000.0001)                    cg2d_init_res =    1.04005185645010E+04
(PID.TID 0000.0001)                       cg2d_iters =    16
(PID.TID 0000.0001)                         cg2d_res =    6.11076520079713E-11
(PID.TID 0000.0001) // =======================================================
(PID.TID 0000.0001) // Begin MONITOR dynamic field statistics
(PID.TID 0000.0001) // =======================================================
(PID.TID 0000.0001) %MON time_tsnumber                =                    33
(PID.TID 0000.0001) %MON time_secondsf                =   1.4850000000000E+04
(PID.TID 0000.0001) %MON dynstat_eta_max              =   3.0442759627340E+03
(PID.TID 0000.0001) %MON dynstat_eta_min              =  -7.5988620201958E+02
(PID.TID 0000.0001) %MON dynstat_eta_mean             =  -1.2852606224812E-14
(PID.TID 0000.0001) %MON dynstat_eta_sd               =   4.4727994629000E+02
(PID.TID 0000.0001) %MON dynstat_eta_del2             =   3.6112452849867E+01
(PID.TID 0000.0001) %MON dynstat_uvel_max             =   4.6095011667008E+00
(PID.TID 0000.0001) %MON dynstat_uvel_min             =  -4.9511243702551E+00
(PID.TID 0000.0001) %MON dynstat_uvel_mean            =   5.9858330595609E-02
(PID.TID 0000.0001) %MON dynstat_uvel_sd              =   7.7449452929333E-01
(PID.TID 0000.0001) %MON dynstat_uvel_del2            =   2.9132780622781E-02
(PID.TID 0000.0001) %MON dynstat_vvel_max             =   4.8120937966035E+00
(PID.TID 0000.0001) %MON dynstat_vvel_min             =  -5.1919079552869E+00
(PID.TID 0000.0001) %MON dynstat_vvel_mean            =   2.2589110049057E-02
(PID.TID 0000.0001) %MON dynstat_vvel_sd              =   8.0165139701267E-01
(PID.TID 0000.0001) %MON dynstat_vvel_del2            =   2.8904442496470E-02
(PID.TID 0000.0001) %MON dynstat_wvel_max             =   1.9919979415267E-01
(PID.TID 0000.0001) %MON dynstat_wvel_min             =  -9.2373820180502E-02
(PID.TID 0000.0001) %MON dynstat_wvel_mean            =   4.7899039266278E-04
(PID.TID 0000.0001) %MON dynstat_wvel_sd              =   9.7823267669937E-03
(PID.TID 0000.0001) %MON dynstat_wvel_del2            =   2.0974411023324E-03
(PID.TID 0000.0001) %MON dynstat_theta_max            =   4.3805192416530E+02
(PID.TID 0000.0001) %MON dynstat_theta_min            =   2.8193398759639E+02
(PID.TID 0000.0001) %MON dynstat_theta_mean           =   3.3166796998991E+02
(PID.TID 0000.0001) %MON dynstat_theta_sd             =   4.7469674865292E+01
(PID.TID 0000.0001) %MON dynstat_theta_del2           =   3.2905943671172E-02
(PID.TID 0000.0001) %MON dynstat_salt_max             =   4.8455334762786E+00
(PID.TID 0000.0001) %MON dynstat_salt_min             =  -2.9005284208129E-02
(PID.TID 0000.0001) %MON dynstat_salt_mean            =   1.1725337518141E-01
(PID.TID 0000.0001) %MON dynstat_salt_sd              =   4.5102548903848E-01
(PID.TID 0000.0001) %MON dynstat_salt_del2            =   1.3450424431696E-02
(PID.TID 0000.0001) %MON advcfl_uvel_max              =   6.9826557258402E-03
(PID.TID 0000.0001) %MON advcfl_vvel_max              =   7.4226424460536E-03
(PID.TID 0000.0001) %MON advcfl_wvel_max              =   3.2596329952255E-03
(PID.TID 0000.0001) %MON advcfl_W_hf_max              =   1.9268250138036E-02
(PID.TID 0000.0001) %MON pe_b_mean                    =  -1.2144311963512E+00
(PID.TID 0000.0001) %MON ke_max                       =   1.3711301040789E+01
(PID.TID 0000.0001) %MON ke_mean                      =   6.1910963484289E-01
(PID.TID 0000.0001) %MON ke_vol                       =   4.9523908919847E+19
(PID.TID 0000.0001) %MON vort_r_min                   =  -1.8842320022145E-05
(PID.TID 0000.0001) %MON vort_r_max                   =   1.3520294770274E-05
(PID.TID 0000.0001) %MON vort_a_mean                  =   6.7059142262211E-08
(PID.TID 0000.0001) %MON vort_a_sd                    =   8.3780881148550E-05
(PID.TID 0000.0001) %MON vort_p_mean                  =   6.8801499219733E-08
(PID.TID 0000.0001) %MON vort_p_sd                    =   9.1630785004644E-05
(PID.TID 0000.0001) %MON surfExpan_theta_mean         =  -4.6821424192585E-02
(PID.TID 0000.0001) %MON surfExpan_salt_mean          =  -1.6860011275922E-03
(PID.TID 0000.0001) %MON surfExpan_Heat_mean          =   3.6955446463361E+00
(PID.TID 0000.0001) %MON En_Budget_T2PE_mean          =  -7.1788798893011E+00
(PID.TID 0000.0001) // =======================================================
(PID.TID 0000.0001) // End MONITOR dynamic field statistics
(PID.TID 0000.0001) // =======================================================
(PID.TID 0000.0001) // =======================================================
(PID.TID 0000.0001) // Begin MONITOR Land statistics
(PID.TID 0000.0001) // =======================================================
(PID.TID 0000.0001) %MON land_time_sec                =   1.4850000000000E+04
(PID.TID 0000.0001) %MON land_SnwH_ave_G              =   1.5321607368822E-01
(PID.TID 0000.0001) %MON land_SnwH_ave_S              =   5.5903419327817E-01
(PID.TID 0000.0001) %MON land_SnwH_ave_T              =   0.0000000000000E+00
(PID.TID 0000.0001) %MON land_SnwH_ave_N              =   1.2388433638337E-01
(PID.TID 0000.0001) %MON land_SnwH_max_S              =   9.9998189525274E-01
(PID.TID 0000.0001) %MON land_SnwH_max_T              =   0.0000000000000E+00
(PID.TID 0000.0001) %MON land_SnwH_max_N              =   9.9999782601682E-01
(PID.TID 0000.0001) %MON land_TotEnerg_G              =  -6.3608110638450E+21
(PID.TID 0000.0001) %MON land_TotEnerg_S              =  -5.0024774226862E+21
(PID.TID 0000.0001) %MON land_TotEnerg_T              =   7.2730820477373E+21
(PID.TID 0000.0001) %MON land_TotEnerg_N              =  -8.6314156888962E+21
(PID.TID 0000.0001) %MON land_Tsrf_ave_G              =  -8.6243525644618E+00
(PID.TID 0000.0001) %MON land_Tsrf_ave_S              =  -7.3803138792691E+00
(PID.TID 0000.0001) %MON land_Tsrf_ave_T              =   9.7904972902352E+00
(PID.TID 0000.0001) %MON land_Tsrf_ave_N              =  -2.1324806295389E+01
(PID.TID 0000.0001) %MON land_Tsrf_min_S              =  -3.3558651811209E+01
(PID.TID 0000.0001) %MON land_Tsrf_min_T              =  -2.7725025431307E+00
(PID.TID 0000.0001) %MON land_Tsrf_min_N              =  -5.2010999390704E+01
(PID.TID 0000.0001) %MON land_Tsrf_max_S              =   1.9996597506629E+01
(PID.TID 0000.0001) %MON land_Tsrf_max_T              =   1.9859252730756E+01
(PID.TID 0000.0001) %MON land_Tsrf_max_N              =   7.7253529668667E+00
(PID.TID 0000.0001) %MON land_Tgr1_ave_G              =  -7.4374076235887E+00
(PID.TID 0000.0001) %MON land_Tgr1_ave_S              =  -7.2875362725860E+00
(PID.TID 0000.0001) %MON land_Tgr1_ave_T              =   9.7904972902352E+00
(PID.TID 0000.0001) %MON land_Tgr1_ave_N              =  -1.8990313214110E+01
(PID.TID 0000.0001) %MON land_Tgr1_min_S              =  -3.9360499423426E+01
(PID.TID 0000.0001) %MON land_Tgr1_min_T              =  -2.7725025431307E+00
(PID.TID 0000.0001) %MON land_Tgr1_min_N              =  -5.4595239102338E+01
(PID.TID 0000.0001) %MON land_Tgr1_max_S              =   1.9996597506629E+01
(PID.TID 0000.0001) %MON land_Tgr1_max_T              =   1.9859252730756E+01
(PID.TID 0000.0001) %MON land_Tgr1_max_N              =   7.7253529668667E+00
(PID.TID 0000.0001) %MON land_Tgr2_ave_G              =   4.2023239719055E+00
(PID.TID 0000.0001) %MON land_Tgr2_ave_S              =  -1.8725111303712E+01
(PID.TID 0000.0001) %MON land_Tgr2_ave_T              =   2.2007874552505E+01
(PID.TID 0000.0001) %MON land_Tgr2_ave_N              =  -2.5017874918935E-01
(PID.TID 0000.0001) %MON land_Tgr2_min_S              =  -6.4748067646745E+01
(PID.TID 0000.0001) %MON land_Tgr2_min_T              =  -9.7030855426835E+00
(PID.TID 0000.0001) %MON land_Tgr2_min_N              =  -4.0201455823497E+01
(PID.TID 0000.0001) %MON land_Tgr2_max_S              =   2.3359466884970E+01
(PID.TID 0000.0001) %MON land_Tgr2_max_T              =   3.1348252678783E+01
(PID.TID 0000.0001) %MON land_Tgr2_max_N              =   2.9817269630901E+01
(PID.TID 0000.0001) %MON land_grdW_ave_G              =   4.8669899499351E-01
(PID.TID 0000.0001) %MON land_grdW_ave_S              =   3.0846474682564E-01
(PID.TID 0000.0001) %MON land_grdW_ave_T              =   5.6403871951912E-01
(PID.TID 0000.0001) %MON land_grdW_ave_N              =   4.9287190558497E-01
(PID.TID 0000.0001) %MON land_grdW_min_S              =   2.8197834581382E-02
(PID.TID 0000.0001) %MON land_grdW_min_T              =   0.0000000000000E+00
(PID.TID 0000.0001) %MON land_grdW_min_N              =   0.0000000000000E+00
(PID.TID 0000.0001) // =======================================================
(PID.TID 0000.0001) // End MONITOR Land statistics
(PID.TID 0000.0001) // =======================================================
(PID.TID 0000.0001) // =======================================================
(PID.TID 0000.0001) // Begin MONITOR Therm.SeaIce statistics
(PID.TID 0000.0001) // =======================================================
(PID.TID 0000.0001) %MON thSI_time_sec                =   1.4850000000000E+04
(PID.TID 0000.0001) %MON thSI_Ice_Area_G              =   1.7542135249300E+11
(PID.TID 0000.0001) %MON thSI_Ice_Area_S              =   0.0000000000000E+00
(PID.TID 0000.0001) %MON thSI_Ice_Area_N              =   1.7542135249300E+11
(PID.TID 0000.0001) %MON thSI_IceH_ave_G              =   1.3963284610290E-01
(PID.TID 0000.0001) %MON thSI_IceH_ave_S              =   0.0000000000000E+00
(PID.TID 0000.0001) %MON thSI_IceH_ave_N              =   1.3963284610290E-01
(PID.TID 0000.0001) %MON thSI_IceH_max_S              =   0.0000000000000E+00
(PID.TID 0000.0001) %MON thSI_IceH_max_N              =   1.4943762520627E-01
(PID.TID 0000.0001) %MON thSI_SnwH_ave_G              =   0.0000000000000E+00
(PID.TID 0000.0001) %MON thSI_SnwH_ave_S              =   0.0000000000000E+00
(PID.TID 0000.0001) %MON thSI_SnwH_ave_N              =   0.0000000000000E+00
(PID.TID 0000.0001) %MON thSI_SnwH_max_S              =   0.0000000000000E+00
(PID.TID 0000.0001) %MON thSI_SnwH_max_N              =   0.0000000000000E+00
(PID.TID 0000.0001) %MON thSI_TotEnerg_G              =  -7.5771219301175E+18
(PID.TID 0000.0001) %MON thSI_Tsrf_ave_G              =  -9.2073222381419E+00
(PID.TID 0000.0001) %MON thSI_Tsrf_ave_S              =   0.0000000000000E+00
(PID.TID 0000.0001) %MON thSI_Tsrf_ave_N              =  -9.2073222381419E+00
(PID.TID 0000.0001) %MON thSI_Tsrf_min_S              =   0.0000000000000E+00
(PID.TID 0000.0001) %MON thSI_Tsrf_min_N              =  -9.4826444567916E+00
(PID.TID 0000.0001) %MON thSI_Tsrf_max_S              =   0.0000000000000E+00
(PID.TID 0000.0001) %MON thSI_Tsrf_max_N              =  -1.6817785089913E+00
(PID.TID 0000.0001) %MON thSI_Tic1_ave_G              =  -7.0564766161971E+00
(PID.TID 0000.0001) %MON thSI_Tic1_ave_S              =   0.0000000000000E+00
(PID.TID 0000.0001) %MON thSI_Tic1_ave_N              =  -7.0564766161971E+00
(PID.TID 0000.0001) %MON thSI_Tic1_min_S              =   0.0000000000000E+00
(PID.TID 0000.0001) %MON thSI_Tic1_min_N              =  -7.1738765808427E+00
(PID.TID 0000.0001) %MON thSI_Tic1_max_S              =   0.0000000000000E+00
(PID.TID 0000.0001) %MON thSI_Tic1_max_N              =  -1.6817785089913E+00
(PID.TID 0000.0001) %MON thSI_Tic2_ave_G              =  -3.3638891616122E+00
(PID.TID 0000.0001) %MON thSI_Tic2_ave_S              =   0.0000000000000E+00
(PID.TID 0000.0001) %MON thSI_Tic2_ave_N              =  -3.3638891616122E+00
(PID.TID 0000.0001) %MON thSI_Tic2_min_S              =   0.0000000000000E+00
(PID.TID 0000.0001) %MON thSI_Tic2_min_N              =  -3.4165149201252E+00
(PID.TID 0000.0001) %MON thSI_Tic2_max_S              =   0.0000000000000E+00
(PID.TID 0000.0001) %MON thSI_Tic2_max_N              =  -1.6817785089913E+00
(PID.TID 0000.0001) // =======================================================
(PID.TID 0000.0001) // End MONITOR Therm.SeaIce statistics
(PID.TID 0000.0001) // =======================================================
 cg2d: Sum(rhs),rhsMax =  -2.32830643653870E-10  1.75522085532180E+04
(PID.TID 0000.0001)                    cg2d_init_res =    1.02221878598915E+04
(PID.TID 0000.0001)                       cg2d_iters =    16
(PID.TID 0000.0001)                         cg2d_res =    5.95600062118677E-11
(PID.TID 0000.0001) // =======================================================
(PID.TID 0000.0001) // Begin MONITOR dynamic field statistics
(PID.TID 0000.0001) // =======================================================
(PID.TID 0000.0001) %MON time_tsnumber                =                    34
(PID.TID 0000.0001) %MON time_secondsf                =   1.5300000000000E+04
(PID.TID 0000.0001) %MON dynstat_eta_max              =   2.9928622038316E+03
(PID.TID 0000.0001) %MON dynstat_eta_min              =  -7.6141889653138E+02
(PID.TID 0000.0001) %MON dynstat_eta_mean             =   3.8557818674437E-14
(PID.TID 0000.0001) %MON dynstat_eta_sd               =   4.4062818866369E+02
(PID.TID 0000.0001) %MON dynstat_eta_del2             =   3.6150143352241E+01
(PID.TID 0000.0001) %MON dynstat_uvel_max             =   4.4528276200637E+00
(PID.TID 0000.0001) %MON dynstat_uvel_min             =  -4.7944164915651E+00
(PID.TID 0000.0001) %MON dynstat_uvel_mean            =   6.6744892025414E-02
(PID.TID 0000.0001) %MON dynstat_uvel_sd              =   7.6575446327519E-01
(PID.TID 0000.0001) %MON dynstat_uvel_del2            =   2.9862422375315E-02
(PID.TID 0000.0001) %MON dynstat_vvel_max             =   4.6695313655789E+00
(PID.TID 0000.0001) %MON dynstat_vvel_min             =  -4.9672426571595E+00
(PID.TID 0000.0001) %MON dynstat_vvel_mean            =   2.2734220420671E-02
(PID.TID 0000.0001) %MON dynstat_vvel_sd              =   7.9416216903485E-01
(PID.TID 0000.0001) %MON dynstat_vvel_del2            =   2.9551440355710E-02
(PID.TID 0000.0001) %MON dynstat_wvel_max             =   1.8605247144496E-01
(PID.TID 0000.0001) %MON dynstat_wvel_min             =  -9.3456951747781E-02
(PID.TID 0000.0001) %MON dynstat_wvel_mean            =   4.3672803111709E-04
(PID.TID 0000.0001) %MON dynstat_wvel_sd              =   9.5999264279010E-03
(PID.TID 0000.0001) %MON dynstat_wvel_del2            =   2.1190662778601E-03
(PID.TID 0000.0001) %MON dynstat_theta_max            =   4.3806766487691E+02
(PID.TID 0000.0001) %MON dynstat_theta_min            =   2.8172157544954E+02
(PID.TID 0000.0001) %MON dynstat_theta_mean           =   3.3166567404485E+02
(PID.TID 0000.0001) %MON dynstat_theta_sd             =   4.7471778609956E+01
(PID.TID 0000.0001) %MON dynstat_theta_del2           =   3.3847839652740E-02
(PID.TID 0000.0001) %MON dynstat_salt_max             =   4.8771477544950E+00
(PID.TID 0000.0001) %MON dynstat_salt_min             =  -3.1423890499620E-02
(PID.TID 0000.0001) %MON dynstat_salt_mean            =   1.2053885710613E-01
(PID.TID 0000.0001) %MON dynstat_salt_sd              =   4.6214792754563E-01
(PID.TID 0000.0001) %MON dynstat_salt_del2            =   1.3762395407187E-02
(PID.TID 0000.0001) %MON advcfl_uvel_max              =   6.7616479133537E-03
(PID.TID 0000.0001) %MON advcfl_vvel_max              =   7.5353780578280E-03
(PID.TID 0000.0001) %MON advcfl_wvel_max              =   3.0444949872812E-03
(PID.TID 0000.0001) %MON advcfl_W_hf_max              =   1.9172920851038E-02
(PID.TID 0000.0001) %MON pe_b_mean                    =  -1.2077479055453E+00
(PID.TID 0000.0001) %MON ke_max                       =   1.2735997600620E+01
(PID.TID 0000.0001) %MON ke_mean                      =   6.0693186099353E-01
(PID.TID 0000.0001) %MON ke_vol                       =   4.9523908919847E+19
(PID.TID 0000.0001) %MON vort_r_min                   =  -1.8256770913741E-05
(PID.TID 0000.0001) %MON vort_r_max                   =   1.4156511058468E-05
(PID.TID 0000.0001) %MON vort_a_mean                  =   6.7059142261958E-08
(PID.TID 0000.0001) %MON vort_a_sd                    =   8.3782896411539E-05
(PID.TID 0000.0001) %MON vort_p_mean                  =   6.8800246238251E-08
(PID.TID 0000.0001) %MON vort_p_sd                    =   9.1612979436818E-05
(PID.TID 0000.0001) %MON surfExpan_theta_mean         =  -4.2506198287827E-02
(PID.TID 0000.0001) %MON surfExpan_salt_mean          =  -1.7425271942001E-03
(PID.TID 0000.0001) %MON surfExpan_Heat_mean          =   3.3440717549269E+00
(PID.TID 0000.0001) %MON En_Budget_T2PE_mean          =  -6.5135974136603E+00
(PID.TID 0000.0001) // =======================================================
(PID.TID 0000.0001) // End MONITOR dynamic field statistics
(PID.TID 0000.0001) // =======================================================
(PID.TID 0000.0001) // =======================================================
(PID.TID 0000.0001) // Begin MONITOR Land statistics
(PID.TID 0000.0001) // =======================================================
(PID.TID 0000.0001) %MON land_time_sec                =   1.5300000000000E+04
(PID.TID 0000.0001) %MON land_SnwH_ave_G              =   1.5321513752157E-01
(PID.TID 0000.0001) %MON land_SnwH_ave_S              =   5.5903334478578E-01
(PID.TID 0000.0001) %MON land_SnwH_ave_T              =   0.0000000000000E+00
(PID.TID 0000.0001) %MON land_SnwH_ave_N              =   1.2388274663116E-01
(PID.TID 0000.0001) %MON land_SnwH_max_S              =   9.9998132809630E-01
(PID.TID 0000.0001) %MON land_SnwH_max_T              =   0.0000000000000E+00
(PID.TID 0000.0001) %MON land_SnwH_max_N              =   9.9999776197171E-01
(PID.TID 0000.0001) %MON land_TotEnerg_G              =  -6.3617327332947E+21
(PID.TID 0000.0001) %MON land_TotEnerg_S              =  -5.0024815491085E+21
(PID.TID 0000.0001) %MON land_TotEnerg_T              =   7.2726818447088E+21
(PID.TID 0000.0001) %MON land_TotEnerg_N              =  -8.6319330288949E+21
(PID.TID 0000.0001) %MON land_Tsrf_ave_G              =  -8.6437153728242E+00
(PID.TID 0000.0001) %MON land_Tsrf_ave_S              =  -7.3824737707207E+00
(PID.TID 0000.0001) %MON land_Tsrf_ave_T              =   9.7489044116446E+00
(PID.TID 0000.0001) %MON land_Tsrf_ave_N              =  -2.1334905038055E+01
(PID.TID 0000.0001) %MON land_Tsrf_min_S              =  -3.3528944908509E+01
(PID.TID 0000.0001) %MON land_Tsrf_min_T              =  -2.7128392268429E+00
(PID.TID 0000.0001) %MON land_Tsrf_min_N              =  -5.2004513042672E+01
(PID.TID 0000.0001) %MON land_Tsrf_max_S              =   1.9976441771011E+01
(PID.TID 0000.0001) %MON land_Tsrf_max_T              =   1.9808442141209E+01
(PID.TID 0000.0001) %MON land_Tsrf_max_N              =   7.6580739644302E+00
(PID.TID 0000.0001) %MON land_Tgr1_ave_G              =  -7.4599016212219E+00
(PID.TID 0000.0001) %MON land_Tgr1_ave_S              =  -7.2950216397451E+00
(PID.TID 0000.0001) %MON land_Tgr1_ave_T              =   9.7489044116446E+00
(PID.TID 0000.0001) %MON land_Tgr1_ave_N              =  -1.9004922249005E+01
(PID.TID 0000.0001) %MON land_Tgr1_min_S              =  -3.9371116601722E+01
(PID.TID 0000.0001) %MON land_Tgr1_min_T              =  -2.7128392268429E+00
(PID.TID 0000.0001) %MON land_Tgr1_min_N              =  -5.4582896942155E+01
(PID.TID 0000.0001) %MON land_Tgr1_max_S              =   1.9976441771011E+01
(PID.TID 0000.0001) %MON land_Tgr1_max_T              =   1.9808442141209E+01
(PID.TID 0000.0001) %MON land_Tgr1_max_N              =   7.6580739644302E+00
(PID.TID 0000.0001) %MON land_Tgr2_ave_G              =   4.2021455590016E+00
(PID.TID 0000.0001) %MON land_Tgr2_ave_S              =  -1.8724919593673E+01
(PID.TID 0000.0001) %MON land_Tgr2_ave_T              =   2.2007677700799E+01
(PID.TID 0000.0001) %MON land_Tgr2_ave_N              =  -2.5046491483105E-01
(PID.TID 0000.0001) %MON land_Tgr2_min_S              =  -6.4747640028224E+01
(PID.TID 0000.0001) %MON land_Tgr2_min_T              =  -9.7029968829987E+00
(PID.TID 0000.0001) %MON land_Tgr2_min_N              =  -4.0201689252039E+01
(PID.TID 0000.0001) %MON land_Tgr2_max_S              =   2.3359392746850E+01
(PID.TID 0000.0001) %MON land_Tgr2_max_T              =   3.1347804031093E+01
(PID.TID 0000.0001) %MON land_Tgr2_max_N              =   2.9816705611250E+01
(PID.TID 0000.0001) %MON land_grdW_ave_G              =   4.8669184979920E-01
(PID.TID 0000.0001) %MON land_grdW_ave_S              =   3.0845740949614E-01
(PID.TID 0000.0001) %MON land_grdW_ave_T              =   5.6402139881960E-01
(PID.TID 0000.0001) %MON land_grdW_ave_N              =   4.9287161762125E-01
(PID.TID 0000.0001) %MON land_grdW_min_S              =   2.8282565033549E-02
(PID.TID 0000.0001) %MON land_grdW_min_T              =   0.0000000000000E+00
(PID.TID 0000.0001) %MON land_grdW_min_N              =   0.0000000000000E+00
(PID.TID 0000.0001) // =======================================================
(PID.TID 0000.0001) // End MONITOR Land statistics
(PID.TID 0000.0001) // =======================================================
(PID.TID 0000.0001) // =======================================================
(PID.TID 0000.0001) // Begin MONITOR Therm.SeaIce statistics
(PID.TID 0000.0001) // =======================================================
(PID.TID 0000.0001) %MON thSI_time_sec                =   1.5300000000000E+04
(PID.TID 0000.0001) %MON thSI_Ice_Area_G              =   1.7769174681843E+11
(PID.TID 0000.0001) %MON thSI_Ice_Area_S              =   0.0000000000000E+00
(PID.TID 0000.0001) %MON thSI_Ice_Area_N              =   1.7769174681843E+11
(PID.TID 0000.0001) %MON thSI_IceH_ave_G              =   1.3929535493172E-01
(PID.TID 0000.0001) %MON thSI_IceH_ave_S              =   0.0000000000000E+00
(PID.TID 0000.0001) %MON thSI_IceH_ave_N              =   1.3929535493172E-01
(PID.TID 0000.0001) %MON thSI_IceH_max_S              =   0.0000000000000E+00
(PID.TID 0000.0001) %MON thSI_IceH_max_N              =   1.4957080314820E-01
(PID.TID 0000.0001) %MON thSI_SnwH_ave_G              =   0.0000000000000E+00
(PID.TID 0000.0001) %MON thSI_SnwH_ave_S              =   0.0000000000000E+00
(PID.TID 0000.0001) %MON thSI_SnwH_ave_N              =   0.0000000000000E+00
(PID.TID 0000.0001) %MON thSI_SnwH_max_S              =   0.0000000000000E+00
(PID.TID 0000.0001) %MON thSI_SnwH_max_N              =   0.0000000000000E+00
(PID.TID 0000.0001) %MON thSI_TotEnerg_G              =  -7.6564737185139E+18
(PID.TID 0000.0001) %MON thSI_Tsrf_ave_G              =  -9.2008947141741E+00
(PID.TID 0000.0001) %MON thSI_Tsrf_ave_S              =   0.0000000000000E+00
(PID.TID 0000.0001) %MON thSI_Tsrf_ave_N              =  -9.2008947141741E+00
(PID.TID 0000.0001) %MON thSI_Tsrf_min_S              =   0.0000000000000E+00
(PID.TID 0000.0001) %MON thSI_Tsrf_min_N              =  -9.5249724301663E+00
(PID.TID 0000.0001) %MON thSI_Tsrf_max_S              =   0.0000000000000E+00
(PID.TID 0000.0001) %MON thSI_Tsrf_max_N              =  -3.8539227709217E+00
(PID.TID 0000.0001) %MON thSI_Tic1_ave_G              =  -7.0588168346688E+00
(PID.TID 0000.0001) %MON thSI_Tic1_ave_S              =   0.0000000000000E+00
(PID.TID 0000.0001) %MON thSI_Tic1_ave_N              =  -7.0588168346688E+00
(PID.TID 0000.0001) %MON thSI_Tic1_min_S              =   0.0000000000000E+00
(PID.TID 0000.0001) %MON thSI_Tic1_min_N              =  -7.2280830468300E+00
(PID.TID 0000.0001) %MON thSI_Tic1_max_S              =   0.0000000000000E+00
(PID.TID 0000.0001) %MON thSI_Tic1_max_N              =  -1.8780887261741E+00
(PID.TID 0000.0001) %MON thSI_Tic2_ave_G              =  -3.3715622641062E+00
(PID.TID 0000.0001) %MON thSI_Tic2_ave_S              =   0.0000000000000E+00
(PID.TID 0000.0001) %MON thSI_Tic2_ave_N              =  -3.3715622641062E+00
(PID.TID 0000.0001) %MON thSI_Tic2_min_S              =   0.0000000000000E+00
(PID.TID 0000.0001) %MON thSI_Tic2_min_N              =  -3.4407951697809E+00
(PID.TID 0000.0001) %MON thSI_Tic2_max_S              =   0.0000000000000E+00
(PID.TID 0000.0001) %MON thSI_Tic2_max_N              =  -1.7057562310660E+00
(PID.TID 0000.0001) // =======================================================
(PID.TID 0000.0001) // End MONITOR Therm.SeaIce statistics
(PID.TID 0000.0001) // =======================================================
 cg2d: Sum(rhs),rhsMax =  -2.32830643653870E-10  1.73082960002712E+04
(PID.TID 0000.0001)                    cg2d_init_res =    1.00462270825227E+04
(PID.TID 0000.0001)                       cg2d_iters =    16
(PID.TID 0000.0001)                         cg2d_res =    5.76822685611405E-11
(PID.TID 0000.0001) // =======================================================
(PID.TID 0000.0001) // Begin MONITOR dynamic field statistics
(PID.TID 0000.0001) // =======================================================
(PID.TID 0000.0001) %MON time_tsnumber                =                    35
(PID.TID 0000.0001) %MON time_secondsf                =   1.5750000000000E+04
(PID.TID 0000.0001) %MON dynstat_eta_max              =   2.9751544597470E+03
(PID.TID 0000.0001) %MON dynstat_eta_min              =  -7.6356652922863E+02
(PID.TID 0000.0001) %MON dynstat_eta_mean             =   2.5705212449625E-14
(PID.TID 0000.0001) %MON dynstat_eta_sd               =   4.3507596855949E+02
(PID.TID 0000.0001) %MON dynstat_eta_del2             =   3.6194121380819E+01
(PID.TID 0000.0001) %MON dynstat_uvel_max             =   4.3175027916666E+00
(PID.TID 0000.0001) %MON dynstat_uvel_min             =  -4.5735324394679E+00
(PID.TID 0000.0001) %MON dynstat_uvel_mean            =   7.3445317914988E-02
(PID.TID 0000.0001) %MON dynstat_uvel_sd              =   7.5701493708736E-01
(PID.TID 0000.0001) %MON dynstat_uvel_del2            =   3.0614857724974E-02
(PID.TID 0000.0001) %MON dynstat_vvel_max             =   4.5147288461466E+00
(PID.TID 0000.0001) %MON dynstat_vvel_min             =  -4.7491454666543E+00
(PID.TID 0000.0001) %MON dynstat_vvel_mean            =   2.3244922887675E-02
(PID.TID 0000.0001) %MON dynstat_vvel_sd              =   7.8583722283891E-01
(PID.TID 0000.0001) %MON dynstat_vvel_del2            =   3.0213558391436E-02
(PID.TID 0000.0001) %MON dynstat_wvel_max             =   1.6963223243556E-01
(PID.TID 0000.0001) %MON dynstat_wvel_min             =  -9.3207388692641E-02
(PID.TID 0000.0001) %MON dynstat_wvel_mean            =   3.9191915844818E-04
(PID.TID 0000.0001) %MON dynstat_wvel_sd              =   9.4305985312911E-03
(PID.TID 0000.0001) %MON dynstat_wvel_del2            =   2.1398085300271E-03
(PID.TID 0000.0001) %MON dynstat_theta_max            =   4.3807294606285E+02
(PID.TID 0000.0001) %MON dynstat_theta_min            =   2.8150935420406E+02
(PID.TID 0000.0001) %MON dynstat_theta_mean           =   3.3166335880028E+02
(PID.TID 0000.0001) %MON dynstat_theta_sd             =   4.7473891046774E+01
(PID.TID 0000.0001) %MON dynstat_theta_del2           =   3.4780046949559E-02
(PID.TID 0000.0001) %MON dynstat_salt_max             =   4.9075164948655E+00
(PID.TID 0000.0001) %MON dynstat_salt_min             =  -3.3894902627192E-02
(PID.TID 0000.0001) %MON dynstat_salt_mean            =   1.2381470490783E-01
(PID.TID 0000.0001) %MON dynstat_salt_sd              =   4.7318028826484E-01
(PID.TID 0000.0001) %MON dynstat_salt_del2            =   1.4071175316952E-02
(PID.TID 0000.0001) %MON advcfl_uvel_max              =   6.4501313414030E-03
(PID.TID 0000.0001) %MON advcfl_vvel_max              =   7.7020711075775E-03
(PID.TID 0000.0001) %MON advcfl_wvel_max              =   2.7758001671274E-03
(PID.TID 0000.0001) %MON advcfl_W_hf_max              =   1.8973560121833E-02
(PID.TID 0000.0001) %MON pe_b_mean                    =  -1.2003492142955E+00
(PID.TID 0000.0001) %MON ke_max                       =   1.1736718482542E+01
(PID.TID 0000.0001) %MON ke_mean                      =   5.9427493535784E-01
(PID.TID 0000.0001) %MON ke_vol                       =   4.9523908919847E+19
(PID.TID 0000.0001) %MON vort_r_min                   =  -1.7661559175452E-05
(PID.TID 0000.0001) %MON vort_r_max                   =   1.4812182001086E-05
(PID.TID 0000.0001) %MON vort_a_mean                  =   6.7059142262180E-08
(PID.TID 0000.0001) %MON vort_a_sd                    =   8.3784826666655E-05
(PID.TID 0000.0001) %MON vort_p_mean                  =   6.8799053149014E-08
(PID.TID 0000.0001) %MON vort_p_sd                    =   9.1596861102599E-05
(PID.TID 0000.0001) %MON surfExpan_theta_mean         =  -3.7990163530713E-02
(PID.TID 0000.0001) %MON surfExpan_salt_mean          =  -1.7871125636954E-03
(PID.TID 0000.0001) %MON surfExpan_Heat_mean          =   2.9745846384814E+00
(PID.TID 0000.0001) %MON En_Budget_T2PE_mean          =  -5.8146029169078E+00
(PID.TID 0000.0001) // =======================================================
(PID.TID 0000.0001) // End MONITOR dynamic field statistics
(PID.TID 0000.0001) // =======================================================
(PID.TID 0000.0001) // =======================================================
(PID.TID 0000.0001) // Begin MONITOR Land statistics
(PID.TID 0000.0001) // =======================================================
(PID.TID 0000.0001) %MON land_time_sec                =   1.5750000000000E+04
(PID.TID 0000.0001) %MON land_SnwH_ave_G              =   1.5321420352675E-01
(PID.TID 0000.0001) %MON land_SnwH_ave_S              =   5.5903250099250E-01
(PID.TID 0000.0001) %MON land_SnwH_ave_T              =   0.0000000000000E+00
(PID.TID 0000.0001) %MON land_SnwH_ave_N              =   1.2388115968124E-01
(PID.TID 0000.0001) %MON land_SnwH_max_S              =   9.9998075936796E-01
(PID.TID 0000.0001) %MON land_SnwH_max_T              =   0.0000000000000E+00
(PID.TID 0000.0001) %MON land_SnwH_max_N              =   9.9999769786140E-01
(PID.TID 0000.0001) %MON land_TotEnerg_G              =  -6.3626172376270E+21
(PID.TID 0000.0001) %MON land_TotEnerg_S              =  -5.0024819766901E+21
(PID.TID 0000.0001) %MON land_TotEnerg_T              =   7.2723070339697E+21
(PID.TID 0000.0001) %MON land_TotEnerg_N              =  -8.6324422949066E+21
(PID.TID 0000.0001) %MON land_Tsrf_ave_G              =  -8.6613302358576E+00
(PID.TID 0000.0001) %MON land_Tsrf_ave_S              =  -7.3815576387438E+00
(PID.TID 0000.0001) %MON land_Tsrf_ave_T              =   9.7104517778403E+00
(PID.TID 0000.0001) %MON land_Tsrf_ave_N              =  -2.1344616392466E+01
(PID.TID 0000.0001) %MON land_Tsrf_min_S              =  -3.3498408952219E+01
(PID.TID 0000.0001) %MON land_Tsrf_min_T              =  -2.8231631573711E+00
(PID.TID 0000.0001) %MON land_Tsrf_min_N              =  -5.1997062051579E+01
(PID.TID 0000.0001) %MON land_Tsrf_max_S              =   1.9960691229784E+01
(PID.TID 0000.0001) %MON land_Tsrf_max_T              =   1.9764229670151E+01
(PID.TID 0000.0001) %MON land_Tsrf_max_N              =   7.5959426350953E+00
(PID.TID 0000.0001) %MON land_Tgr1_ave_G              =  -7.4809629734304E+00
(PID.TID 0000.0001) %MON land_Tgr1_ave_S              =  -7.3014297583401E+00
(PID.TID 0000.0001) %MON land_Tgr1_ave_T              =   9.7104517778403E+00
(PID.TID 0000.0001) %MON land_Tgr1_ave_N              =  -1.9019123634533E+01
(PID.TID 0000.0001) %MON land_Tgr1_min_S              =  -3.9381686261131E+01
(PID.TID 0000.0001) %MON land_Tgr1_min_T              =  -2.8231631573711E+00
(PID.TID 0000.0001) %MON land_Tgr1_min_N              =  -5.4570567914505E+01
(PID.TID 0000.0001) %MON land_Tgr1_max_S              =   1.9960691229784E+01
(PID.TID 0000.0001) %MON land_Tgr1_max_T              =   1.9764229670151E+01
(PID.TID 0000.0001) %MON land_Tgr1_max_N              =   7.5959426350953E+00
(PID.TID 0000.0001) %MON land_Tgr2_ave_G              =   4.2019669000091E+00
(PID.TID 0000.0001) %MON land_Tgr2_ave_S              =  -1.8724727987746E+01
(PID.TID 0000.0001) %MON land_Tgr2_ave_T              =   2.2007480363841E+01
(PID.TID 0000.0001) %MON land_Tgr2_ave_N              =  -2.5075121291145E-01
(PID.TID 0000.0001) %MON land_Tgr2_min_S              =  -6.4747212610821E+01
(PID.TID 0000.0001) %MON land_Tgr2_min_T              =  -9.7029071712748E+00
(PID.TID 0000.0001) %MON land_Tgr2_min_N              =  -4.0201922452514E+01
(PID.TID 0000.0001) %MON land_Tgr2_max_S              =   2.3359317997952E+01
(PID.TID 0000.0001) %MON land_Tgr2_max_T              =   3.1347353958284E+01
(PID.TID 0000.0001) %MON land_Tgr2_max_N              =   2.9816138208256E+01
(PID.TID 0000.0001) %MON land_grdW_ave_G              =   4.8668474652805E-01
(PID.TID 0000.0001) %MON land_grdW_ave_S              =   3.0845009805084E-01
(PID.TID 0000.0001) %MON land_grdW_ave_T              =   5.6400419059473E-01
(PID.TID 0000.0001) %MON land_grdW_ave_N              =   4.9287132967146E-01
(PID.TID 0000.0001) %MON land_grdW_min_S              =   2.8366798039143E-02
(PID.TID 0000.0001) %MON land_grdW_min_T              =   0.0000000000000E+00
(PID.TID 0000.0001) %MON land_grdW_min_N              =   0.0000000000000E+00
(PID.TID 0000.0001) // =======================================================
(PID.TID 0000.0001) // End MONITOR Land statistics
(PID.TID 0000.0001) // =======================================================
(PID.TID 0000.0001) // =======================================================
(PID.TID 0000.0001) // Begin MONITOR Therm.SeaIce statistics
(PID.TID 0000.0001) // =======================================================
(PID.TID 0000.0001) %MON thSI_time_sec                =   1.5750000000000E+04
(PID.TID 0000.0001) %MON thSI_Ice_Area_G              =   1.7990745735552E+11
(PID.TID 0000.0001) %MON thSI_Ice_Area_S              =   0.0000000000000E+00
(PID.TID 0000.0001) %MON thSI_Ice_Area_N              =   1.7990745735552E+11
(PID.TID 0000.0001) %MON thSI_IceH_ave_G              =   1.3900715669786E-01
(PID.TID 0000.0001) %MON thSI_IceH_ave_S              =   0.0000000000000E+00
(PID.TID 0000.0001) %MON thSI_IceH_ave_N              =   1.3900715669786E-01
(PID.TID 0000.0001) %MON thSI_IceH_max_S              =   0.0000000000000E+00
(PID.TID 0000.0001) %MON thSI_IceH_max_N              =   1.4970589654461E-01
(PID.TID 0000.0001) %MON thSI_SnwH_ave_G              =   0.0000000000000E+00
(PID.TID 0000.0001) %MON thSI_SnwH_ave_S              =   0.0000000000000E+00
(PID.TID 0000.0001) %MON thSI_SnwH_ave_N              =   0.0000000000000E+00
(PID.TID 0000.0001) %MON thSI_SnwH_max_S              =   0.0000000000000E+00
(PID.TID 0000.0001) %MON thSI_SnwH_max_N              =   0.0000000000000E+00
(PID.TID 0000.0001) %MON thSI_TotEnerg_G              =  -7.7359076805537E+18
(PID.TID 0000.0001) %MON thSI_Tsrf_ave_G              =  -9.1727439233392E+00
(PID.TID 0000.0001) %MON thSI_Tsrf_ave_S              =   0.0000000000000E+00
(PID.TID 0000.0001) %MON thSI_Tsrf_ave_N              =  -9.1727439233392E+00
(PID.TID 0000.0001) %MON thSI_Tsrf_min_S              =   0.0000000000000E+00
(PID.TID 0000.0001) %MON thSI_Tsrf_min_N              =  -9.5620424674063E+00
(PID.TID 0000.0001) %MON thSI_Tsrf_max_S              =   0.0000000000000E+00
(PID.TID 0000.0001) %MON thSI_Tsrf_max_N              =  -4.0796873753426E+00
(PID.TID 0000.0001) %MON thSI_Tic1_ave_G              =  -7.0614872533420E+00
(PID.TID 0000.0001) %MON thSI_Tic1_ave_S              =   0.0000000000000E+00
(PID.TID 0000.0001) %MON thSI_Tic1_ave_N              =  -7.0614872533420E+00
(PID.TID 0000.0001) %MON thSI_Tic1_min_S              =   0.0000000000000E+00
(PID.TID 0000.0001) %MON thSI_Tic1_min_N              =  -7.2778088044802E+00
(PID.TID 0000.0001) %MON thSI_Tic1_max_S              =   0.0000000000000E+00
(PID.TID 0000.0001) %MON thSI_Tic1_max_N              =  -2.1075224876623E+00
(PID.TID 0000.0001) %MON thSI_Tic2_ave_G              =  -3.3781991509183E+00
(PID.TID 0000.0001) %MON thSI_Tic2_ave_S              =   0.0000000000000E+00
(PID.TID 0000.0001) %MON thSI_Tic2_ave_N              =  -3.3781991509183E+00
(PID.TID 0000.0001) %MON thSI_Tic2_min_S              =   0.0000000000000E+00
(PID.TID 0000.0001) %MON thSI_Tic2_min_N              =  -3.4630823507089E+00
(PID.TID 0000.0001) %MON thSI_Tic2_max_S              =   0.0000000000000E+00
(PID.TID 0000.0001) %MON thSI_Tic2_max_N              =  -1.7479735239190E+00
(PID.TID 0000.0001) // =======================================================
(PID.TID 0000.0001) // End MONITOR Therm.SeaIce statistics
(PID.TID 0000.0001) // =======================================================
 cg2d: Sum(rhs),rhsMax =   9.31322574615479E-10  1.71217510520990E+04
(PID.TID 0000.0001)                    cg2d_init_res =    9.87820780828227E+03
(PID.TID 0000.0001)                       cg2d_iters =    16
(PID.TID 0000.0001)                         cg2d_res =    5.64719457171279E-11
(PID.TID 0000.0001) // =======================================================
(PID.TID 0000.0001) // Begin MONITOR dynamic field statistics
(PID.TID 0000.0001) // =======================================================
(PID.TID 0000.0001) %MON time_tsnumber                =                    36
(PID.TID 0000.0001) %MON time_secondsf                =   1.6200000000000E+04
(PID.TID 0000.0001) %MON dynstat_eta_max              =   3.0013705201743E+03
(PID.TID 0000.0001) %MON dynstat_eta_min              =  -7.6713467941395E+02
(PID.TID 0000.0001) %MON dynstat_eta_mean             =  -5.1410424899250E-14
(PID.TID 0000.0001) %MON dynstat_eta_sd               =   4.3062967882274E+02
(PID.TID 0000.0001) %MON dynstat_eta_del2             =   3.6237478040633E+01
(PID.TID 0000.0001) %MON dynstat_uvel_max             =   4.1964775167779E+00
(PID.TID 0000.0001) %MON dynstat_uvel_min             =  -4.3055213482102E+00
(PID.TID 0000.0001) %MON dynstat_uvel_mean            =   7.9860015728986E-02
(PID.TID 0000.0001) %MON dynstat_uvel_sd              =   7.4827408885615E-01
(PID.TID 0000.0001) %MON dynstat_uvel_del2            =   3.1392726391757E-02
(PID.TID 0000.0001) %MON dynstat_vvel_max             =   4.3424482050736E+00
(PID.TID 0000.0001) %MON dynstat_vvel_min             =  -4.5433322324200E+00
(PID.TID 0000.0001) %MON dynstat_vvel_mean            =   2.4161602616116E-02
(PID.TID 0000.0001) %MON dynstat_vvel_sd              =   7.7697136865653E-01
(PID.TID 0000.0001) %MON dynstat_vvel_del2            =   3.0948674329968E-02
(PID.TID 0000.0001) %MON dynstat_wvel_max             =   1.5063959336142E-01
(PID.TID 0000.0001) %MON dynstat_wvel_min             =  -9.1501062520962E-02
(PID.TID 0000.0001) %MON dynstat_wvel_mean            =   3.4606662575524E-04
(PID.TID 0000.0001) %MON dynstat_wvel_sd              =   9.2863656395409E-03
(PID.TID 0000.0001) %MON dynstat_wvel_del2            =   2.1626263820506E-03
(PID.TID 0000.0001) %MON dynstat_theta_max            =   4.3816901786543E+02
(PID.TID 0000.0001) %MON dynstat_theta_min            =   2.8129717894674E+02
(PID.TID 0000.0001) %MON dynstat_theta_mean           =   3.3166102570450E+02
(PID.TID 0000.0001) %MON dynstat_theta_sd             =   4.7476012546473E+01
(PID.TID 0000.0001) %MON dynstat_theta_del2           =   3.5704811521748E-02
(PID.TID 0000.0001) %MON dynstat_salt_max             =   4.9368580121628E+00
(PID.TID 0000.0001) %MON dynstat_salt_min             =  -3.6415491760753E-02
(PID.TID 0000.0001) %MON dynstat_salt_mean            =   1.2708102268406E-01
(PID.TID 0000.0001) %MON dynstat_salt_sd              =   4.8412336881580E-01
(PID.TID 0000.0001) %MON dynstat_salt_del2            =   1.4379408663712E-02
(PID.TID 0000.0001) %MON advcfl_uvel_max              =   6.0810789317488E-03
(PID.TID 0000.0001) %MON advcfl_vvel_max              =   7.7183183269828E-03
(PID.TID 0000.0001) %MON advcfl_wvel_max              =   2.6176504768517E-03
(PID.TID 0000.0001) %MON advcfl_W_hf_max              =   1.9930428665314E-02
(PID.TID 0000.0001) %MON pe_b_mean                    =  -1.1924797686104E+00
(PID.TID 0000.0001) %MON ke_max                       =   1.0767276061092E+01
(PID.TID 0000.0001) %MON ke_mean                      =   5.8137555218844E-01
(PID.TID 0000.0001) %MON ke_vol                       =   4.9523908919847E+19
(PID.TID 0000.0001) %MON vort_r_min                   =  -1.7073293651008E-05
(PID.TID 0000.0001) %MON vort_r_max                   =   1.5480808065977E-05
(PID.TID 0000.0001) %MON vort_a_mean                  =   6.7059142262027E-08
(PID.TID 0000.0001) %MON vort_a_sd                    =   8.3786665623958E-05
(PID.TID 0000.0001) %MON vort_p_mean                  =   6.8797934317114E-08
(PID.TID 0000.0001) %MON vort_p_sd                    =   9.1582434076931E-05
(PID.TID 0000.0001) %MON surfExpan_theta_mean         =  -3.3419754760943E-02
(PID.TID 0000.0001) %MON surfExpan_salt_mean          =  -1.8187771805541E-03
(PID.TID 0000.0001) %MON surfExpan_Heat_mean          =   2.5997443170218E+00
(PID.TID 0000.0001) %MON En_Budget_T2PE_mean          =  -5.1052193697613E+00
(PID.TID 0000.0001) // =======================================================
(PID.TID 0000.0001) // End MONITOR dynamic field statistics
(PID.TID 0000.0001) // =======================================================
(PID.TID 0000.0001) // =======================================================
(PID.TID 0000.0001) // Begin MONITOR Land statistics
(PID.TID 0000.0001) // =======================================================
(PID.TID 0000.0001) %MON land_time_sec                =   1.6200000000000E+04
(PID.TID 0000.0001) %MON land_SnwH_ave_G              =   1.5321327456959E-01
(PID.TID 0000.0001) %MON land_SnwH_ave_S              =   5.5903166113087E-01
(PID.TID 0000.0001) %MON land_SnwH_ave_T              =   0.0000000000000E+00
(PID.TID 0000.0001) %MON land_SnwH_ave_N              =   1.2387958149176E-01
(PID.TID 0000.0001) %MON land_SnwH_max_S              =   9.9998018900634E-01
(PID.TID 0000.0001) %MON land_SnwH_max_T              =   0.0000000000000E+00
(PID.TID 0000.0001) %MON land_SnwH_max_N              =   9.9999763367743E-01
(PID.TID 0000.0001) %MON land_TotEnerg_G              =  -6.3634674230114E+21
(PID.TID 0000.0001) %MON land_TotEnerg_S              =  -5.0024791014961E+21
(PID.TID 0000.0001) %MON land_TotEnerg_T              =   7.2719554105822E+21
(PID.TID 0000.0001) %MON land_TotEnerg_N              =  -8.6329437320974E+21
(PID.TID 0000.0001) %MON land_Tsrf_ave_G              =  -8.6771171586727E+00
(PID.TID 0000.0001) %MON land_Tsrf_ave_S              =  -7.3771227279115E+00
(PID.TID 0000.0001) %MON land_Tsrf_ave_T              =   9.6749034942764E+00
(PID.TID 0000.0001) %MON land_Tsrf_ave_N              =  -2.1353767099367E+01
(PID.TID 0000.0001) %MON land_Tsrf_min_S              =  -3.3467182689312E+01
(PID.TID 0000.0001) %MON land_Tsrf_min_T              =  -2.9305585414879E+00
(PID.TID 0000.0001) %MON land_Tsrf_min_N              =  -5.1988730362883E+01
(PID.TID 0000.0001) %MON land_Tsrf_max_S              =   1.9948858386131E+01
(PID.TID 0000.0001) %MON land_Tsrf_max_T              =   1.9725955122833E+01
(PID.TID 0000.0001) %MON land_Tsrf_max_N              =   7.5387477816223E+00
(PID.TID 0000.0001) %MON land_Tgr1_ave_G              =  -7.5006206411195E+00
(PID.TID 0000.0001) %MON land_Tgr1_ave_S              =  -7.3068772972008E+00
(PID.TID 0000.0001) %MON land_Tgr1_ave_T              =   9.6749034942764E+00
(PID.TID 0000.0001) %MON land_Tgr1_ave_N              =  -1.9032779695485E+01
(PID.TID 0000.0001) %MON land_Tgr1_min_S              =  -3.9392207715401E+01
(PID.TID 0000.0001) %MON land_Tgr1_min_T              =  -2.9305585414879E+00
(PID.TID 0000.0001) %MON land_Tgr1_min_N              =  -5.4558251140199E+01
(PID.TID 0000.0001) %MON land_Tgr1_max_S              =   1.9948858386131E+01
(PID.TID 0000.0001) %MON land_Tgr1_max_T              =   1.9725955122833E+01
(PID.TID 0000.0001) %MON land_Tgr1_max_N              =   7.5387477816223E+00
(PID.TID 0000.0001) %MON land_Tgr2_ave_G              =   4.2017879897433E+00
(PID.TID 0000.0001) %MON land_Tgr2_ave_S              =  -1.8724536470797E+01
(PID.TID 0000.0001) %MON land_Tgr2_ave_T              =   2.2007282587762E+01
(PID.TID 0000.0001) %MON land_Tgr2_ave_N              =  -2.5103768947363E-01
(PID.TID 0000.0001) %MON land_Tgr2_min_S              =  -6.4746785393704E+01
(PID.TID 0000.0001) %MON land_Tgr2_min_T              =  -9.7028164476831E+00
(PID.TID 0000.0001) %MON land_Tgr2_min_N              =  -4.0202155425541E+01
(PID.TID 0000.0001) %MON land_Tgr2_max_S              =   2.3359242719500E+01
(PID.TID 0000.0001) %MON land_Tgr2_max_T              =   3.1346902562448E+01
(PID.TID 0000.0001) %MON land_Tgr2_max_N              =   2.9815567554305E+01
(PID.TID 0000.0001) %MON land_grdW_ave_G              =   4.8667768025115E-01
(PID.TID 0000.0001) %MON land_grdW_ave_S              =   3.0844281009909E-01
(PID.TID 0000.0001) %MON land_grdW_ave_T              =   5.6398708445862E-01
(PID.TID 0000.0001) %MON land_grdW_ave_N              =   4.9287103962723E-01
(PID.TID 0000.0001) %MON land_grdW_min_S              =   2.8450474230384E-02
(PID.TID 0000.0001) %MON land_grdW_min_T              =   0.0000000000000E+00
(PID.TID 0000.0001) %MON land_grdW_min_N              =   0.0000000000000E+00
(PID.TID 0000.0001) // =======================================================
(PID.TID 0000.0001) // End MONITOR Land statistics
(PID.TID 0000.0001) // =======================================================
(PID.TID 0000.0001) // =======================================================
(PID.TID 0000.0001) // Begin MONITOR Therm.SeaIce statistics
(PID.TID 0000.0001) // =======================================================
(PID.TID 0000.0001) %MON thSI_time_sec                =   1.6200000000000E+04
(PID.TID 0000.0001) %MON thSI_Ice_Area_G              =   1.8207058168462E+11
(PID.TID 0000.0001) %MON thSI_Ice_Area_S              =   0.0000000000000E+00
(PID.TID 0000.0001) %MON thSI_Ice_Area_N              =   1.8207058168462E+11
(PID.TID 0000.0001) %MON thSI_IceH_ave_G              =   1.3876487963138E-01
(PID.TID 0000.0001) %MON thSI_IceH_ave_S              =   0.0000000000000E+00
(PID.TID 0000.0001) %MON thSI_IceH_ave_N              =   1.3876487963138E-01
(PID.TID 0000.0001) %MON thSI_IceH_max_S              =   0.0000000000000E+00
(PID.TID 0000.0001) %MON thSI_IceH_max_N              =   1.4984274775082E-01
(PID.TID 0000.0001) %MON thSI_SnwH_ave_G              =   0.0000000000000E+00
(PID.TID 0000.0001) %MON thSI_SnwH_ave_S              =   0.0000000000000E+00
(PID.TID 0000.0001) %MON thSI_SnwH_ave_N              =   0.0000000000000E+00
(PID.TID 0000.0001) %MON thSI_SnwH_max_S              =   0.0000000000000E+00
(PID.TID 0000.0001) %MON thSI_SnwH_max_N              =   0.0000000000000E+00
(PID.TID 0000.0001) %MON thSI_TotEnerg_G              =  -7.8154197603914E+18
(PID.TID 0000.0001) %MON thSI_Tsrf_ave_G              =  -9.1497437310670E+00
(PID.TID 0000.0001) %MON thSI_Tsrf_ave_S              =   0.0000000000000E+00
(PID.TID 0000.0001) %MON thSI_Tsrf_ave_N              =  -9.1497437310670E+00
(PID.TID 0000.0001) %MON thSI_Tsrf_min_S              =   0.0000000000000E+00
(PID.TID 0000.0001) %MON thSI_Tsrf_min_N              =  -9.5965960451067E+00
(PID.TID 0000.0001) %MON thSI_Tsrf_max_S              =   0.0000000000000E+00
(PID.TID 0000.0001) %MON thSI_Tsrf_max_N              =  -4.3112905420954E+00
(PID.TID 0000.0001) %MON thSI_Tic1_ave_G              =  -7.0650221627642E+00
(PID.TID 0000.0001) %MON thSI_Tic1_ave_S              =   0.0000000000000E+00
(PID.TID 0000.0001) %MON thSI_Tic1_ave_N              =  -7.0650221627642E+00
(PID.TID 0000.0001) %MON thSI_Tic1_min_S              =   0.0000000000000E+00
(PID.TID 0000.0001) %MON thSI_Tic1_min_N              =  -7.3233238039745E+00
(PID.TID 0000.0001) %MON thSI_Tic1_max_S              =   0.0000000000000E+00
(PID.TID 0000.0001) %MON thSI_Tic1_max_N              =  -2.3509885920855E+00
(PID.TID 0000.0001) %MON thSI_Tic2_ave_G              =  -3.3842549865419E+00
(PID.TID 0000.0001) %MON thSI_Tic2_ave_S              =   0.0000000000000E+00
(PID.TID 0000.0001) %MON thSI_Tic2_ave_N              =  -3.3842549865419E+00
(PID.TID 0000.0001) %MON thSI_Tic2_min_S              =   0.0000000000000E+00
(PID.TID 0000.0001) %MON thSI_Tic2_min_N              =  -3.4835184959393E+00
(PID.TID 0000.0001) %MON thSI_Tic2_max_S              =   0.0000000000000E+00
(PID.TID 0000.0001) %MON thSI_Tic2_max_N              =  -1.8027772901560E+00
(PID.TID 0000.0001) // =======================================================
(PID.TID 0000.0001) // End MONITOR Therm.SeaIce statistics
(PID.TID 0000.0001) // =======================================================
 cg2d: Sum(rhs),rhsMax =  -1.39698386192322E-09  1.69833561751776E+04
(PID.TID 0000.0001)                    cg2d_init_res =    9.72139205587433E+03
(PID.TID 0000.0001)                       cg2d_iters =    16
(PID.TID 0000.0001)                         cg2d_res =    5.50277878435646E-11
(PID.TID 0000.0001) // =======================================================
(PID.TID 0000.0001) // Begin MONITOR dynamic field statistics
(PID.TID 0000.0001) // =======================================================
(PID.TID 0000.0001) %MON time_tsnumber                =                    37
(PID.TID 0000.0001) %MON time_secondsf                =   1.6650000000000E+04
(PID.TID 0000.0001) %MON dynstat_eta_max              =   3.0242492056962E+03
(PID.TID 0000.0001) %MON dynstat_eta_min              =  -8.4069399562167E+02
(PID.TID 0000.0001) %MON dynstat_eta_mean             =  -5.7836728011656E-14
(PID.TID 0000.0001) %MON dynstat_eta_sd               =   4.2726844441305E+02
(PID.TID 0000.0001) %MON dynstat_eta_del2             =   3.6269178309937E+01
(PID.TID 0000.0001) %MON dynstat_uvel_max             =   4.1809970227661E+00
(PID.TID 0000.0001) %MON dynstat_uvel_min             =  -4.0070294567993E+00
(PID.TID 0000.0001) %MON dynstat_uvel_mean            =   8.5895780478463E-02
(PID.TID 0000.0001) %MON dynstat_uvel_sd              =   7.3950831225600E-01
(PID.TID 0000.0001) %MON dynstat_uvel_del2            =   3.2177374151182E-02
(PID.TID 0000.0001) %MON dynstat_vvel_max             =   4.1582438206770E+00
(PID.TID 0000.0001) %MON dynstat_vvel_min             =  -4.3537001689119E+00
(PID.TID 0000.0001) %MON dynstat_vvel_mean            =   2.5515825743419E-02
(PID.TID 0000.0001) %MON dynstat_vvel_sd              =   7.6783406804393E-01
(PID.TID 0000.0001) %MON dynstat_vvel_del2            =   3.1726468570024E-02
(PID.TID 0000.0001) %MON dynstat_wvel_max             =   1.2982065926549E-01
(PID.TID 0000.0001) %MON dynstat_wvel_min             =  -9.3794291124331E-02
(PID.TID 0000.0001) %MON dynstat_wvel_mean            =   3.0038796266993E-04
(PID.TID 0000.0001) %MON dynstat_wvel_sd              =   9.1778792372404E-03
(PID.TID 0000.0001) %MON dynstat_wvel_del2            =   2.1907513410153E-03
(PID.TID 0000.0001) %MON dynstat_theta_max            =   4.3827763864653E+02
(PID.TID 0000.0001) %MON dynstat_theta_min            =   2.8108497338608E+02
(PID.TID 0000.0001) %MON dynstat_theta_mean           =   3.3165867559194E+02
(PID.TID 0000.0001) %MON dynstat_theta_sd             =   4.7478143748264E+01
(PID.TID 0000.0001) %MON dynstat_theta_del2           =   3.6625772304684E-02
(PID.TID 0000.0001) %MON dynstat_salt_max             =   4.9653575794288E+00
(PID.TID 0000.0001) %MON dynstat_salt_min             =  -3.8982760331764E-02
(PID.TID 0000.0001) %MON dynstat_salt_mean            =   1.3033789752523E-01
(PID.TID 0000.0001) %MON dynstat_salt_sd              =   4.9497838191054E-01
(PID.TID 0000.0001) %MON dynstat_salt_del2            =   1.4686553912008E-02
(PID.TID 0000.0001) %MON advcfl_uvel_max              =   6.2836670806090E-03
(PID.TID 0000.0001) %MON advcfl_vvel_max              =   7.5755575755002E-03
(PID.TID 0000.0001) %MON advcfl_wvel_max              =   2.7195804832798E-03
(PID.TID 0000.0001) %MON advcfl_W_hf_max              =   2.0962152235390E-02
(PID.TID 0000.0001) %MON pe_b_mean                    =  -1.1843419127647E+00
(PID.TID 0000.0001) %MON ke_max                       =   9.8715265590487E+00
(PID.TID 0000.0001) %MON ke_mean                      =   5.6842463156531E-01
(PID.TID 0000.0001) %MON ke_vol                       =   4.9523908919847E+19
(PID.TID 0000.0001) %MON vort_r_min                   =  -1.6506223894896E-05
(PID.TID 0000.0001) %MON vort_r_max                   =   1.6153414011610E-05
(PID.TID 0000.0001) %MON vort_a_mean                  =   6.7059142262096E-08
(PID.TID 0000.0001) %MON vort_a_sd                    =   8.3788406995455E-05
(PID.TID 0000.0001) %MON vort_p_mean                  =   6.8796901237822E-08
(PID.TID 0000.0001) %MON vort_p_sd                    =   9.1569668786957E-05
(PID.TID 0000.0001) %MON surfExpan_theta_mean         =  -2.8912454086087E-02
(PID.TID 0000.0001) %MON surfExpan_salt_mean          =  -1.8366716774363E-03
(PID.TID 0000.0001) %MON surfExpan_Heat_mean          =   2.2297247568283E+00
(PID.TID 0000.0001) %MON En_Budget_T2PE_mean          =  -4.4041803555340E+00
(PID.TID 0000.0001) // =======================================================
(PID.TID 0000.0001) // End MONITOR dynamic field statistics
(PID.TID 0000.0001) // =======================================================
(PID.TID 0000.0001) // =======================================================
(PID.TID 0000.0001) // Begin MONITOR Land statistics
(PID.TID 0000.0001) // =======================================================
(PID.TID 0000.0001) %MON land_time_sec                =   1.6650000000000E+04
(PID.TID 0000.0001) %MON land_SnwH_ave_G              =   1.5321235038424E-01
(PID.TID 0000.0001) %MON land_SnwH_ave_S              =   5.5903082433359E-01
(PID.TID 0000.0001) %MON land_SnwH_ave_T              =   0.0000000000000E+00
(PID.TID 0000.0001) %MON land_SnwH_ave_N              =   1.2387801181447E-01
(PID.TID 0000.0001) %MON land_SnwH_max_S              =   9.9997961695248E-01
(PID.TID 0000.0001) %MON land_SnwH_max_T              =   0.0000000000000E+00
(PID.TID 0000.0001) %MON land_SnwH_max_N              =   9.9999756941310E-01
(PID.TID 0000.0001) %MON land_TotEnerg_G              =  -6.3642858758670E+21
(PID.TID 0000.0001) %MON land_TotEnerg_S              =  -5.0024732696298E+21
(PID.TID 0000.0001) %MON land_TotEnerg_T              =   7.2716250069753E+21
(PID.TID 0000.0001) %MON land_TotEnerg_N              =  -8.6334376132126E+21
(PID.TID 0000.0001) %MON land_Tsrf_ave_G              =  -8.6910580705316E+00
(PID.TID 0000.0001) %MON land_Tsrf_ave_S              =  -7.3691007154107E+00
(PID.TID 0000.0001) %MON land_Tsrf_ave_T              =   9.6422665701119E+00
(PID.TID 0000.0001) %MON land_Tsrf_ave_N              =  -2.1362348002888E+01
(PID.TID 0000.0001) %MON land_Tsrf_min_S              =  -3.3435353410297E+01
(PID.TID 0000.0001) %MON land_Tsrf_min_T              =  -3.0351042915986E+00
(PID.TID 0000.0001) %MON land_Tsrf_min_N              =  -5.1979734747435E+01
(PID.TID 0000.0001) %MON land_Tsrf_max_S              =   1.9940483932649E+01
(PID.TID 0000.0001) %MON land_Tsrf_max_T              =   1.9693012226358E+01
(PID.TID 0000.0001) %MON land_Tsrf_max_N              =   7.4862811200980E+00
(PID.TID 0000.0001) %MON land_Tgr1_ave_G              =  -7.5189096370640E+00
(PID.TID 0000.0001) %MON land_Tgr1_ave_S              =  -7.3114656102137E+00
(PID.TID 0000.0001) %MON land_Tgr1_ave_T              =   9.6422665701119E+00
(PID.TID 0000.0001) %MON land_Tgr1_ave_N              =  -1.9045931984992E+01
(PID.TID 0000.0001) %MON land_Tgr1_min_S              =  -3.9402680622127E+01
(PID.TID 0000.0001) %MON land_Tgr1_min_T              =  -3.0351042915986E+00
(PID.TID 0000.0001) %MON land_Tgr1_min_N              =  -5.4545945952556E+01
(PID.TID 0000.0001) %MON land_Tgr1_max_S              =   1.9940483932649E+01
(PID.TID 0000.0001) %MON land_Tgr1_max_T              =   1.9693012226358E+01
(PID.TID 0000.0001) %MON land_Tgr1_max_N              =   7.4862811200980E+00
(PID.TID 0000.0001) %MON land_Tgr2_ave_G              =   4.2016088716739E+00
(PID.TID 0000.0001) %MON land_Tgr2_ave_S              =  -1.8724345029318E+01
(PID.TID 0000.0001) %MON land_Tgr2_ave_T              =   2.2007084420147E+01
(PID.TID 0000.0001) %MON land_Tgr2_ave_N              =  -2.5132429407623E-01
(PID.TID 0000.0001) %MON land_Tgr2_min_S              =  -6.4746358376031E+01
(PID.TID 0000.0001) %MON land_Tgr2_min_T              =  -9.7027247517703E+00
(PID.TID 0000.0001) %MON land_Tgr2_min_N              =  -4.0202388171654E+01
(PID.TID 0000.0001) %MON land_Tgr2_max_S              =   2.3359166987896E+01
(PID.TID 0000.0001) %MON land_Tgr2_max_T              =   3.1346449941592E+01
(PID.TID 0000.0001) %MON land_Tgr2_max_N              =   2.9814993777225E+01
(PID.TID 0000.0001) %MON land_grdW_ave_G              =   4.8667064750420E-01
(PID.TID 0000.0001) %MON land_grdW_ave_S              =   3.0843554361322E-01
(PID.TID 0000.0001) %MON land_grdW_ave_T              =   5.6397007114434E-01
(PID.TID 0000.0001) %MON land_grdW_ave_N              =   4.9287074743310E-01
(PID.TID 0000.0001) %MON land_grdW_min_S              =   2.8533526098589E-02
(PID.TID 0000.0001) %MON land_grdW_min_T              =   0.0000000000000E+00
(PID.TID 0000.0001) %MON land_grdW_min_N              =   0.0000000000000E+00
(PID.TID 0000.0001) // =======================================================
(PID.TID 0000.0001) // End MONITOR Land statistics
(PID.TID 0000.0001) // =======================================================
(PID.TID 0000.0001) // =======================================================
(PID.TID 0000.0001) // Begin MONITOR Therm.SeaIce statistics
(PID.TID 0000.0001) // =======================================================
(PID.TID 0000.0001) %MON thSI_time_sec                =   1.6650000000000E+04
(PID.TID 0000.0001) %MON thSI_Ice_Area_G              =   1.8418310920071E+11
(PID.TID 0000.0001) %MON thSI_Ice_Area_S              =   0.0000000000000E+00
(PID.TID 0000.0001) %MON thSI_Ice_Area_N              =   1.8418310920071E+11
(PID.TID 0000.0001) %MON thSI_IceH_ave_G              =   1.3856550940750E-01
(PID.TID 0000.0001) %MON thSI_IceH_ave_S              =   0.0000000000000E+00
(PID.TID 0000.0001) %MON thSI_IceH_ave_N              =   1.3856550940750E-01
(PID.TID 0000.0001) %MON thSI_IceH_max_S              =   0.0000000000000E+00
(PID.TID 0000.0001) %MON thSI_IceH_max_N              =   1.4998120934287E-01
(PID.TID 0000.0001) %MON thSI_SnwH_ave_G              =   0.0000000000000E+00
(PID.TID 0000.0001) %MON thSI_SnwH_ave_S              =   0.0000000000000E+00
(PID.TID 0000.0001) %MON thSI_SnwH_ave_N              =   0.0000000000000E+00
(PID.TID 0000.0001) %MON thSI_SnwH_max_S              =   0.0000000000000E+00
(PID.TID 0000.0001) %MON thSI_SnwH_max_N              =   0.0000000000000E+00
(PID.TID 0000.0001) %MON thSI_TotEnerg_G              =  -7.8950037344832E+18
(PID.TID 0000.0001) %MON thSI_Tsrf_ave_G              =  -9.1313897085013E+00
(PID.TID 0000.0001) %MON thSI_Tsrf_ave_S              =   0.0000000000000E+00
(PID.TID 0000.0001) %MON thSI_Tsrf_ave_N              =  -9.1313897085013E+00
(PID.TID 0000.0001) %MON thSI_Tsrf_min_S              =   0.0000000000000E+00
(PID.TID 0000.0001) %MON thSI_Tsrf_min_N              =  -9.6276650638298E+00
(PID.TID 0000.0001) %MON thSI_Tsrf_max_S              =   0.0000000000000E+00
(PID.TID 0000.0001) %MON thSI_Tsrf_max_N              =  -4.5511354814145E+00
(PID.TID 0000.0001) %MON thSI_Tic1_ave_G              =  -7.0697679895047E+00
(PID.TID 0000.0001) %MON thSI_Tic1_ave_S              =   0.0000000000000E+00
(PID.TID 0000.0001) %MON thSI_Tic1_ave_N              =  -7.0697679895047E+00
(PID.TID 0000.0001) %MON thSI_Tic1_min_S              =   0.0000000000000E+00
(PID.TID 0000.0001) %MON thSI_Tic1_min_N              =  -7.3648854065284E+00
(PID.TID 0000.0001) %MON thSI_Tic1_max_S              =   0.0000000000000E+00
(PID.TID 0000.0001) %MON thSI_Tic1_max_N              =  -2.6033525402086E+00
(PID.TID 0000.0001) %MON thSI_Tic2_ave_G              =  -3.3900255965594E+00
(PID.TID 0000.0001) %MON thSI_Tic2_ave_S              =   0.0000000000000E+00
(PID.TID 0000.0001) %MON thSI_Tic2_ave_N              =  -3.3900255965594E+00
(PID.TID 0000.0001) %MON thSI_Tic2_min_S              =   0.0000000000000E+00
(PID.TID 0000.0001) %MON thSI_Tic2_min_N              =  -3.5022333185415E+00
(PID.TID 0000.0001) %MON thSI_Tic2_max_S              =   0.0000000000000E+00
(PID.TID 0000.0001) %MON thSI_Tic2_max_N              =  -1.8662027975384E+00
(PID.TID 0000.0001) // =======================================================
(PID.TID 0000.0001) // End MONITOR Therm.SeaIce statistics
(PID.TID 0000.0001) // =======================================================
 cg2d: Sum(rhs),rhsMax =   4.65661287307739E-10  1.70795401591545E+04
(PID.TID 0000.0001)                    cg2d_init_res =    9.57641780993303E+03
(PID.TID 0000.0001)                       cg2d_iters =    16
(PID.TID 0000.0001)                         cg2d_res =    5.40797196364670E-11
(PID.TID 0000.0001) // =======================================================
(PID.TID 0000.0001) // Begin MONITOR dynamic field statistics
(PID.TID 0000.0001) // =======================================================
(PID.TID 0000.0001) %MON time_tsnumber                =                    38
(PID.TID 0000.0001) %MON time_secondsf                =   1.7100000000000E+04
(PID.TID 0000.0001) %MON dynstat_eta_max              =   3.0453777108698E+03
(PID.TID 0000.0001) %MON dynstat_eta_min              =  -8.9768325893393E+02
(PID.TID 0000.0001) %MON dynstat_eta_mean             =  -8.9968243573687E-14
(PID.TID 0000.0001) %MON dynstat_eta_sd               =   4.2494996129880E+02
(PID.TID 0000.0001) %MON dynstat_eta_del2             =   3.6285967004159E+01
(PID.TID 0000.0001) %MON dynstat_uvel_max             =   4.3162271107538E+00
(PID.TID 0000.0001) %MON dynstat_uvel_min             =  -3.6933402528991E+00
(PID.TID 0000.0001) %MON dynstat_uvel_mean            =   9.1468392510970E-02
(PID.TID 0000.0001) %MON dynstat_uvel_sd              =   7.3068821395334E-01
(PID.TID 0000.0001) %MON dynstat_uvel_del2            =   3.2958507627391E-02
(PID.TID 0000.0001) %MON dynstat_vvel_max             =   3.9675817856032E+00
(PID.TID 0000.0001) %MON dynstat_vvel_min             =  -4.2196840263785E+00
(PID.TID 0000.0001) %MON dynstat_vvel_mean            =   2.7329329090975E-02
(PID.TID 0000.0001) %MON dynstat_vvel_sd              =   7.5864564731166E-01
(PID.TID 0000.0001) %MON dynstat_vvel_del2            =   3.2514620399187E-02
(PID.TID 0000.0001) %MON dynstat_wvel_max             =   1.0971757722642E-01
(PID.TID 0000.0001) %MON dynstat_wvel_min             =  -9.6996142428633E-02
(PID.TID 0000.0001) %MON dynstat_wvel_mean            =   2.5583531409774E-04
(PID.TID 0000.0001) %MON dynstat_wvel_sd              =   9.1131373208016E-03
(PID.TID 0000.0001) %MON dynstat_wvel_del2            =   2.2241669086483E-03
(PID.TID 0000.0001) %MON dynstat_theta_max            =   4.3836705243333E+02
(PID.TID 0000.0001) %MON dynstat_theta_min            =   2.8087269033179E+02
(PID.TID 0000.0001) %MON dynstat_theta_mean           =   3.3165630944274E+02
(PID.TID 0000.0001) %MON dynstat_theta_sd             =   4.7480284923971E+01
(PID.TID 0000.0001) %MON dynstat_theta_del2           =   3.7538989460214E-02
(PID.TID 0000.0001) %MON dynstat_salt_max             =   4.9931730090286E+00
(PID.TID 0000.0001) %MON dynstat_salt_min             =  -4.1593909297346E-02
(PID.TID 0000.0001) %MON dynstat_salt_mean            =   1.3358539439275E-01
(PID.TID 0000.0001) %MON dynstat_salt_sd              =   5.0574829680856E-01
(PID.TID 0000.0001) %MON dynstat_salt_del2            =   1.4993908395543E-02
(PID.TID 0000.0001) %MON advcfl_uvel_max              =   6.4869058888573E-03
(PID.TID 0000.0001) %MON advcfl_vvel_max              =   7.2723599203754E-03
(PID.TID 0000.0001) %MON advcfl_wvel_max              =   2.8213091286793E-03
(PID.TID 0000.0001) %MON advcfl_W_hf_max              =   2.1995210967902E-02
(PID.TID 0000.0001) %MON pe_b_mean                    =  -1.1760902491650E+00
(PID.TID 0000.0001) %MON ke_max                       =   9.0797991209063E+00
(PID.TID 0000.0001) %MON ke_mean                      =   5.5556272181958E-01
(PID.TID 0000.0001) %MON ke_vol                       =   4.9523908919847E+19
(PID.TID 0000.0001) %MON vort_r_min                   =  -1.5972760909204E-05
(PID.TID 0000.0001) %MON vort_r_max                   =   1.6818804453404E-05
(PID.TID 0000.0001) %MON vort_a_mean                  =   6.7059142262016E-08
(PID.TID 0000.0001) %MON vort_a_sd                    =   8.3790044674120E-05
(PID.TID 0000.0001) %MON vort_p_mean                  =   6.8795962780820E-08
(PID.TID 0000.0001) %MON vort_p_sd                    =   9.1558508728269E-05
(PID.TID 0000.0001) %MON surfExpan_theta_mean         =  -2.4559157253055E-02
(PID.TID 0000.0001) %MON surfExpan_salt_mean          =  -1.8400522012626E-03
(PID.TID 0000.0001) %MON surfExpan_Heat_mean          =   1.8723395009325E+00
(PID.TID 0000.0001) %MON En_Budget_T2PE_mean          =  -3.7259353849488E+00
(PID.TID 0000.0001) // =======================================================
(PID.TID 0000.0001) // End MONITOR dynamic field statistics
(PID.TID 0000.0001) // =======================================================
(PID.TID 0000.0001) // =======================================================
(PID.TID 0000.0001) // Begin MONITOR Land statistics
(PID.TID 0000.0001) // =======================================================
(PID.TID 0000.0001) %MON land_time_sec                =   1.7100000000000E+04
(PID.TID 0000.0001) %MON land_SnwH_ave_G              =   1.5321143090305E-01
(PID.TID 0000.0001) %MON land_SnwH_ave_S              =   5.5902998967190E-01
(PID.TID 0000.0001) %MON land_SnwH_ave_T              =   0.0000000000000E+00
(PID.TID 0000.0001) %MON land_SnwH_ave_N              =   1.2387645081584E-01
(PID.TID 0000.0001) %MON land_SnwH_max_S              =   9.9997904314216E-01
(PID.TID 0000.0001) %MON land_SnwH_max_T              =   0.0000000000000E+00
(PID.TID 0000.0001) %MON land_SnwH_max_N              =   9.9999750506529E-01
(PID.TID 0000.0001) %MON land_TotEnerg_G              =  -6.3650747832084E+21
(PID.TID 0000.0001) %MON land_TotEnerg_S              =  -5.0024647851937E+21
(PID.TID 0000.0001) %MON land_TotEnerg_T              =   7.2713140835807E+21
(PID.TID 0000.0001) %MON land_TotEnerg_N              =  -8.6339240815953E+21
(PID.TID 0000.0001) %MON land_Tsrf_ave_G              =  -8.7034138504995E+00
(PID.TID 0000.0001) %MON land_Tsrf_ave_S              =  -7.3575241393230E+00
(PID.TID 0000.0001) %MON land_Tsrf_ave_T              =   9.6120702143353E+00
(PID.TID 0000.0001) %MON land_Tsrf_ave_N              =  -2.1370553881496E+01
(PID.TID 0000.0001) %MON land_Tsrf_min_S              =  -3.3402935489708E+01
(PID.TID 0000.0001) %MON land_Tsrf_min_T              =  -3.1368769553418E+00
(PID.TID 0000.0001) %MON land_Tsrf_min_N              =  -5.1970443086839E+01
(PID.TID 0000.0001) %MON land_Tsrf_max_S              =   1.9935123137531E+01
(PID.TID 0000.0001) %MON land_Tsrf_max_T              =   1.9664843757847E+01
(PID.TID 0000.0001) %MON land_Tsrf_max_N              =   7.4383344258341E+00
(PID.TID 0000.0001) %MON land_Tgr1_ave_G              =  -7.5360977500784E+00
(PID.TID 0000.0001) %MON land_Tgr1_ave_S              =  -7.3152837346263E+00
(PID.TID 0000.0001) %MON land_Tgr1_ave_T              =   9.6120702143353E+00
(PID.TID 0000.0001) %MON land_Tgr1_ave_N              =  -1.9058770718894E+01
(PID.TID 0000.0001) %MON land_Tgr1_min_S              =  -3.9413104881492E+01
(PID.TID 0000.0001) %MON land_Tgr1_min_T              =  -3.1368769553418E+00
(PID.TID 0000.0001) %MON land_Tgr1_min_N              =  -5.4533652044191E+01
(PID.TID 0000.0001) %MON land_Tgr1_max_S              =   1.9935123137531E+01
(PID.TID 0000.0001) %MON land_Tgr1_max_T              =   1.9664843757847E+01
(PID.TID 0000.0001) %MON land_Tgr1_max_N              =   7.4383344258341E+00
(PID.TID 0000.0001) %MON land_Tgr2_ave_G              =   4.2014295422136E+00
(PID.TID 0000.0001) %MON land_Tgr2_ave_S              =  -1.8724153651222E+01
(PID.TID 0000.0001) %MON land_Tgr2_ave_T              =   2.2006885899490E+01
(PID.TID 0000.0001) %MON land_Tgr2_ave_N              =  -2.5161106349233E-01
(PID.TID 0000.0001) %MON land_Tgr2_min_S              =  -6.4745931556955E+01
(PID.TID 0000.0001) %MON land_Tgr2_min_T              =  -9.7026321224098E+00
(PID.TID 0000.0001) %MON land_Tgr2_min_N              =  -4.0202620691312E+01
(PID.TID 0000.0001) %MON land_Tgr2_max_S              =   2.3359090874855E+01
(PID.TID 0000.0001) %MON land_Tgr2_max_T              =   3.1345996191273E+01
(PID.TID 0000.0001) %MON land_Tgr2_max_N              =   2.9814417000565E+01
(PID.TID 0000.0001) %MON land_grdW_ave_G              =   4.8666364520016E-01
(PID.TID 0000.0001) %MON land_grdW_ave_S              =   3.0842829698148E-01
(PID.TID 0000.0001) %MON land_grdW_ave_T              =   5.6395314249212E-01
(PID.TID 0000.0001) %MON land_grdW_ave_N              =   4.9287045291087E-01
(PID.TID 0000.0001) %MON land_grdW_min_S              =   2.8615877905578E-02
(PID.TID 0000.0001) %MON land_grdW_min_T              =   0.0000000000000E+00
(PID.TID 0000.0001) %MON land_grdW_min_N              =   0.0000000000000E+00
(PID.TID 0000.0001) // =======================================================
(PID.TID 0000.0001) // End MONITOR Land statistics
(PID.TID 0000.0001) // =======================================================
(PID.TID 0000.0001) // =======================================================
(PID.TID 0000.0001) // Begin MONITOR Therm.SeaIce statistics
(PID.TID 0000.0001) // =======================================================
(PID.TID 0000.0001) %MON thSI_time_sec                =   1.7100000000000E+04
(PID.TID 0000.0001) %MON thSI_Ice_Area_G              =   1.8624692707099E+11
(PID.TID 0000.0001) %MON thSI_Ice_Area_S              =   0.0000000000000E+00
(PID.TID 0000.0001) %MON thSI_Ice_Area_N              =   1.8624692707099E+11
(PID.TID 0000.0001) %MON thSI_IceH_ave_G              =   1.3840632772374E-01
(PID.TID 0000.0001) %MON thSI_IceH_ave_S              =   0.0000000000000E+00
(PID.TID 0000.0001) %MON thSI_IceH_ave_N              =   1.3840632772374E-01
(PID.TID 0000.0001) %MON thSI_IceH_max_S              =   0.0000000000000E+00
(PID.TID 0000.0001) %MON thSI_IceH_max_N              =   1.5012114343989E-01
(PID.TID 0000.0001) %MON thSI_SnwH_ave_G              =   0.0000000000000E+00
(PID.TID 0000.0001) %MON thSI_SnwH_ave_S              =   0.0000000000000E+00
(PID.TID 0000.0001) %MON thSI_SnwH_ave_N              =   0.0000000000000E+00
(PID.TID 0000.0001) %MON thSI_SnwH_max_S              =   0.0000000000000E+00
(PID.TID 0000.0001) %MON thSI_SnwH_max_N              =   0.0000000000000E+00
(PID.TID 0000.0001) %MON thSI_TotEnerg_G              =  -7.9746536173013E+18
(PID.TID 0000.0001) %MON thSI_Tsrf_ave_G              =  -9.1173893926648E+00
(PID.TID 0000.0001) %MON thSI_Tsrf_ave_S              =   0.0000000000000E+00
(PID.TID 0000.0001) %MON thSI_Tsrf_ave_N              =  -9.1173893926648E+00
(PID.TID 0000.0001) %MON thSI_Tsrf_min_S              =   0.0000000000000E+00
(PID.TID 0000.0001) %MON thSI_Tsrf_min_N              =  -9.6554524420934E+00
(PID.TID 0000.0001) %MON thSI_Tsrf_max_S              =   0.0000000000000E+00
(PID.TID 0000.0001) %MON thSI_Tsrf_max_N              =  -4.7942544925601E+00
(PID.TID 0000.0001) %MON thSI_Tic1_ave_G              =  -7.0758386265837E+00
(PID.TID 0000.0001) %MON thSI_Tic1_ave_S              =   0.0000000000000E+00
(PID.TID 0000.0001) %MON thSI_Tic1_ave_N              =  -7.0758386265837E+00
(PID.TID 0000.0001) %MON thSI_Tic1_min_S              =   0.0000000000000E+00
(PID.TID 0000.0001) %MON thSI_Tic1_min_N              =  -7.4027378963731E+00
(PID.TID 0000.0001) %MON thSI_Tic1_max_S              =   0.0000000000000E+00
(PID.TID 0000.0001) %MON thSI_Tic1_max_N              =  -2.8590306067011E+00
(PID.TID 0000.0001) %MON thSI_Tic2_ave_G              =  -3.3956931121097E+00
(PID.TID 0000.0001) %MON thSI_Tic2_ave_S              =   0.0000000000000E+00
(PID.TID 0000.0001) %MON thSI_Tic2_ave_N              =  -3.3956931121097E+00
(PID.TID 0000.0001) %MON thSI_Tic2_min_S              =   0.0000000000000E+00
(PID.TID 0000.0001) %MON thSI_Tic2_min_N              =  -3.5193459371973E+00
(PID.TID 0000.0001) %MON thSI_Tic2_max_S              =   0.0000000000000E+00
(PID.TID 0000.0001) %MON thSI_Tic2_max_N              =  -1.9352262626160E+00
(PID.TID 0000.0001) // =======================================================
(PID.TID 0000.0001) // End MONITOR Therm.SeaIce statistics
(PID.TID 0000.0001) // =======================================================
 cg2d: Sum(rhs),rhsMax =   6.98491930961609E-10  1.71590661657132E+04
(PID.TID 0000.0001)                    cg2d_init_res =    9.44164681978472E+03
(PID.TID 0000.0001)                       cg2d_iters =    16
(PID.TID 0000.0001)                         cg2d_res =    5.38477433436859E-11
(PID.TID 0000.0001) // =======================================================
(PID.TID 0000.0001) // Begin MONITOR dynamic field statistics
(PID.TID 0000.0001) // =======================================================
(PID.TID 0000.0001) %MON time_tsnumber                =                    39
(PID.TID 0000.0001) %MON time_secondsf                =   1.7550000000000E+04
(PID.TID 0000.0001) %MON dynstat_eta_max              =   3.0638427746399E+03
(PID.TID 0000.0001) %MON dynstat_eta_min              =  -9.4554870732943E+02
(PID.TID 0000.0001) %MON dynstat_eta_mean             =  -8.3541940461281E-14
(PID.TID 0000.0001) %MON dynstat_eta_sd               =   4.2361492444797E+02
(PID.TID 0000.0001) %MON dynstat_eta_del2             =   3.6288419664942E+01
(PID.TID 0000.0001) %MON dynstat_uvel_max             =   4.4513805575789E+00
(PID.TID 0000.0001) %MON dynstat_uvel_min             =  -3.3777095847208E+00
(PID.TID 0000.0001) %MON dynstat_uvel_mean            =   9.6504778353824E-02
(PID.TID 0000.0001) %MON dynstat_uvel_sd              =   7.2179458781800E-01
(PID.TID 0000.0001) %MON dynstat_uvel_del2            =   3.3756026945112E-02
(PID.TID 0000.0001) %MON dynstat_vvel_max             =   3.7754947132373E+00
(PID.TID 0000.0001) %MON dynstat_vvel_min             =  -4.1169634531933E+00
(PID.TID 0000.0001) %MON dynstat_vvel_mean            =   2.9613277677430E-02
(PID.TID 0000.0001) %MON dynstat_vvel_sd              =   7.4956239852216E-01
(PID.TID 0000.0001) %MON dynstat_vvel_del2            =   3.3336546684348E-02
(PID.TID 0000.0001) %MON dynstat_wvel_max             =   1.1365760782244E-01
(PID.TID 0000.0001) %MON dynstat_wvel_min             =  -9.9899816627764E-02
(PID.TID 0000.0001) %MON dynstat_wvel_mean            =   2.1312219562153E-04
(PID.TID 0000.0001) %MON dynstat_wvel_sd              =   9.0965970388207E-03
(PID.TID 0000.0001) %MON dynstat_wvel_del2            =   2.2666247207924E-03
(PID.TID 0000.0001) %MON dynstat_theta_max            =   4.3843458208806E+02
(PID.TID 0000.0001) %MON dynstat_theta_min            =   2.8066032709591E+02
(PID.TID 0000.0001) %MON dynstat_theta_mean           =   3.3165392787916E+02
(PID.TID 0000.0001) %MON dynstat_theta_sd             =   4.7482436497215E+01
(PID.TID 0000.0001) %MON dynstat_theta_del2           =   3.8434157181222E-02
(PID.TID 0000.0001) %MON dynstat_salt_max             =   5.0204392082704E+00
(PID.TID 0000.0001) %MON dynstat_salt_min             =  -4.4246273946407E-02
(PID.TID 0000.0001) %MON dynstat_salt_mean            =   1.3682357020334E-01
(PID.TID 0000.0001) %MON dynstat_salt_sd              =   5.1643373919445E-01
(PID.TID 0000.0001) %MON dynstat_salt_del2            =   1.5300459456188E-02
(PID.TID 0000.0001) %MON advcfl_uvel_max              =   6.6900295122469E-03
(PID.TID 0000.0001) %MON advcfl_vvel_max              =   6.8146440487369E-03
(PID.TID 0000.0001) %MON advcfl_wvel_max              =   2.9226242011484E-03
(PID.TID 0000.0001) %MON advcfl_W_hf_max              =   2.3024318269028E-02
(PID.TID 0000.0001) %MON pe_b_mean                    =  -1.1678340490230E+00
(PID.TID 0000.0001) %MON ke_max                       =   8.8493741804756E+00
(PID.TID 0000.0001) %MON ke_mean                      =   5.4288327955018E-01
(PID.TID 0000.0001) %MON ke_vol                       =   4.9523908919847E+19
(PID.TID 0000.0001) %MON vort_r_min                   =  -1.5483684543167E-05
(PID.TID 0000.0001) %MON vort_r_max                   =   1.7464026190208E-05
(PID.TID 0000.0001) %MON vort_a_mean                  =   6.7059142262065E-08
(PID.TID 0000.0001) %MON vort_a_sd                    =   8.3791572903952E-05
(PID.TID 0000.0001) %MON vort_p_mean                  =   6.8795125413618E-08
(PID.TID 0000.0001) %MON vort_p_sd                    =   9.1548875934630E-05
(PID.TID 0000.0001) %MON surfExpan_theta_mean         =  -2.0426813631647E-02
(PID.TID 0000.0001) %MON surfExpan_salt_mean          =  -1.8282706409393E-03
(PID.TID 0000.0001) %MON surfExpan_Heat_mean          =   1.5332640754195E+00
(PID.TID 0000.0001) %MON En_Budget_T2PE_mean          =  -3.0810714188089E+00
(PID.TID 0000.0001) // =======================================================
(PID.TID 0000.0001) // End MONITOR dynamic field statistics
(PID.TID 0000.0001) // =======================================================
(PID.TID 0000.0001) // =======================================================
(PID.TID 0000.0001) // Begin MONITOR Land statistics
(PID.TID 0000.0001) // =======================================================
(PID.TID 0000.0001) %MON land_time_sec                =   1.7550000000000E+04
(PID.TID 0000.0001) %MON land_SnwH_ave_G              =   1.5321051464154E-01
(PID.TID 0000.0001) %MON land_SnwH_ave_S              =   5.5902915619436E-01
(PID.TID 0000.0001) %MON land_SnwH_ave_T              =   0.0000000000000E+00
(PID.TID 0000.0001) %MON land_SnwH_ave_N              =   1.2387489584723E-01
(PID.TID 0000.0001) %MON land_SnwH_max_S              =   9.9997846749751E-01
(PID.TID 0000.0001) %MON land_SnwH_max_T              =   0.0000000000000E+00
(PID.TID 0000.0001) %MON land_SnwH_max_N              =   9.9999744070144E-01
(PID.TID 0000.0001) %MON land_TotEnerg_G              =  -6.3658362113986E+21
(PID.TID 0000.0001) %MON land_TotEnerg_S              =  -5.0024538575827E+21
(PID.TID 0000.0001) %MON land_TotEnerg_T              =   7.2710210126738E+21
(PID.TID 0000.0001) %MON land_TotEnerg_N              =  -8.6344033664896E+21
(PID.TID 0000.0001) %MON land_Tsrf_ave_G              =  -8.7140555208232E+00
(PID.TID 0000.0001) %MON land_Tsrf_ave_S              =  -7.3424520336833E+00
(PID.TID 0000.0001) %MON land_Tsrf_ave_T              =   9.5843573311871E+00
(PID.TID 0000.0001) %MON land_Tsrf_ave_N              =  -2.1378137290197E+01
(PID.TID 0000.0001) %MON land_Tsrf_min_S              =  -3.3369874251031E+01
(PID.TID 0000.0001) %MON land_Tsrf_min_T              =  -3.2359507650031E+00
(PID.TID 0000.0001) %MON land_Tsrf_min_N              =  -5.1969156328969E+01
(PID.TID 0000.0001) %MON land_Tsrf_max_S              =   1.9932333953654E+01
(PID.TID 0000.0001) %MON land_Tsrf_max_T              =   1.9640937297585E+01
(PID.TID 0000.0001) %MON land_Tsrf_max_N              =   7.4035083656651E+00
(PID.TID 0000.0001) %MON land_Tgr1_ave_G              =  -7.5520652958489E+00
(PID.TID 0000.0001) %MON land_Tgr1_ave_S              =  -7.3183929820627E+00
(PID.TID 0000.0001) %MON land_Tgr1_ave_T              =   9.5843573311871E+00
(PID.TID 0000.0001) %MON land_Tgr1_ave_N              =  -1.9071066227421E+01
(PID.TID 0000.0001) %MON land_Tgr1_min_S              =  -3.9423480516674E+01
(PID.TID 0000.0001) %MON land_Tgr1_min_T              =  -3.2359507650031E+00
(PID.TID 0000.0001) %MON land_Tgr1_min_N              =  -5.4521377190831E+01
(PID.TID 0000.0001) %MON land_Tgr1_max_S              =   1.9932333953654E+01
(PID.TID 0000.0001) %MON land_Tgr1_max_T              =   1.9640937297585E+01
(PID.TID 0000.0001) %MON land_Tgr1_max_N              =   7.4035083656651E+00
(PID.TID 0000.0001) %MON land_Tgr2_ave_G              =   4.2012502038111E+00
(PID.TID 0000.0001) %MON land_Tgr2_ave_S              =  -1.8723962325406E+01
(PID.TID 0000.0001) %MON land_Tgr2_ave_T              =   2.2006687116270E+01
(PID.TID 0000.0001) %MON land_Tgr2_ave_N              =  -2.5189765843124E-01
(PID.TID 0000.0001) %MON land_Tgr2_min_S              =  -6.4745504935616E+01
(PID.TID 0000.0001) %MON land_Tgr2_min_T              =  -9.7025385964816E+00
(PID.TID 0000.0001) %MON land_Tgr2_min_N              =  -4.0202852984917E+01
(PID.TID 0000.0001) %MON land_Tgr2_max_S              =   2.3359014447208E+01
(PID.TID 0000.0001) %MON land_Tgr2_max_T              =   3.1345541404692E+01
(PID.TID 0000.0001) %MON land_Tgr2_max_N              =   2.9813837343886E+01
(PID.TID 0000.0001) %MON land_grdW_ave_G              =   4.8665667104480E-01
(PID.TID 0000.0001) %MON land_grdW_ave_S              =   3.0842106890849E-01
(PID.TID 0000.0001) %MON land_grdW_ave_T              =   5.6393629109532E-01
(PID.TID 0000.0001) %MON land_grdW_ave_N              =   4.9287015685619E-01
(PID.TID 0000.0001) %MON land_grdW_min_S              =   2.8697446294252E-02
(PID.TID 0000.0001) %MON land_grdW_min_T              =   0.0000000000000E+00
(PID.TID 0000.0001) %MON land_grdW_min_N              =   0.0000000000000E+00
(PID.TID 0000.0001) // =======================================================
(PID.TID 0000.0001) // End MONITOR Land statistics
(PID.TID 0000.0001) // =======================================================
(PID.TID 0000.0001) // =======================================================
(PID.TID 0000.0001) // Begin MONITOR Therm.SeaIce statistics
(PID.TID 0000.0001) // =======================================================
(PID.TID 0000.0001) %MON thSI_time_sec                =   1.7550000000000E+04
(PID.TID 0000.0001) %MON thSI_Ice_Area_G              =   1.8826382590240E+11
(PID.TID 0000.0001) %MON thSI_Ice_Area_S              =   0.0000000000000E+00
(PID.TID 0000.0001) %MON thSI_Ice_Area_N              =   1.8826382590240E+11
(PID.TID 0000.0001) %MON thSI_IceH_ave_G              =   1.3828486375112E-01
(PID.TID 0000.0001) %MON thSI_IceH_ave_S              =   0.0000000000000E+00
(PID.TID 0000.0001) %MON thSI_IceH_ave_N              =   1.3828486375112E-01
(PID.TID 0000.0001) %MON thSI_IceH_max_S              =   0.0000000000000E+00
(PID.TID 0000.0001) %MON thSI_IceH_max_N              =   1.5026242099858E-01
(PID.TID 0000.0001) %MON thSI_SnwH_ave_G              =   0.0000000000000E+00
(PID.TID 0000.0001) %MON thSI_SnwH_ave_S              =   0.0000000000000E+00
(PID.TID 0000.0001) %MON thSI_SnwH_ave_N              =   0.0000000000000E+00
(PID.TID 0000.0001) %MON thSI_SnwH_max_S              =   0.0000000000000E+00
(PID.TID 0000.0001) %MON thSI_SnwH_max_N              =   0.0000000000000E+00
(PID.TID 0000.0001) %MON thSI_TotEnerg_G              =  -8.0543637855256E+18
(PID.TID 0000.0001) %MON thSI_Tsrf_ave_G              =  -9.1072613023318E+00
(PID.TID 0000.0001) %MON thSI_Tsrf_ave_S              =   0.0000000000000E+00
(PID.TID 0000.0001) %MON thSI_Tsrf_ave_N              =  -9.1072613023318E+00
(PID.TID 0000.0001) %MON thSI_Tsrf_min_S              =   0.0000000000000E+00
(PID.TID 0000.0001) %MON thSI_Tsrf_min_N              =  -9.6801597624174E+00
(PID.TID 0000.0001) %MON thSI_Tsrf_max_S              =   0.0000000000000E+00
(PID.TID 0000.0001) %MON thSI_Tsrf_max_N              =  -5.0357633521490E+00
(PID.TID 0000.0001) %MON thSI_Tic1_ave_G              =  -7.0831536516203E+00
(PID.TID 0000.0001) %MON thSI_Tic1_ave_S              =   0.0000000000000E+00
(PID.TID 0000.0001) %MON thSI_Tic1_ave_N              =  -7.0831536516203E+00
(PID.TID 0000.0001) %MON thSI_Tic1_min_S              =   0.0000000000000E+00
(PID.TID 0000.0001) %MON thSI_Tic1_min_N              =  -7.4371126837779E+00
(PID.TID 0000.0001) %MON thSI_Tic1_max_S              =   0.0000000000000E+00
(PID.TID 0000.0001) %MON thSI_Tic1_max_N              =  -3.1127385946918E+00
(PID.TID 0000.0001) %MON thSI_Tic2_ave_G              =  -3.4013534460818E+00
(PID.TID 0000.0001) %MON thSI_Tic2_ave_S              =   0.0000000000000E+00
(PID.TID 0000.0001) %MON thSI_Tic2_ave_N              =  -3.4013534460818E+00
(PID.TID 0000.0001) %MON thSI_Tic2_min_S              =   0.0000000000000E+00
(PID.TID 0000.0001) %MON thSI_Tic2_min_N              =  -3.5349661663074E+00
(PID.TID 0000.0001) %MON thSI_Tic2_max_S              =   0.0000000000000E+00
(PID.TID 0000.0001) %MON thSI_Tic2_max_N              =  -2.0074187356447E+00
(PID.TID 0000.0001) // =======================================================
(PID.TID 0000.0001) // End MONITOR Therm.SeaIce statistics
(PID.TID 0000.0001) // =======================================================
 cg2d: Sum(rhs),rhsMax =  -1.86264514923096E-09  1.72167178594991E+04
(PID.TID 0000.0001)                    cg2d_init_res =    9.31388622146549E+03
(PID.TID 0000.0001)                       cg2d_iters =    16
(PID.TID 0000.0001)                         cg2d_res =    5.40686585166886E-11
(PID.TID 0000.0001) // =======================================================
(PID.TID 0000.0001) // Begin MONITOR dynamic field statistics
(PID.TID 0000.0001) // =======================================================
(PID.TID 0000.0001) %MON time_tsnumber                =                    40
(PID.TID 0000.0001) %MON time_secondsf                =   1.8000000000000E+04
(PID.TID 0000.0001) %MON dynstat_eta_max              =   3.0787754973421E+03
(PID.TID 0000.0001) %MON dynstat_eta_min              =  -9.8842925636741E+02
(PID.TID 0000.0001) %MON dynstat_eta_mean             =  -1.4137866847294E-13
(PID.TID 0000.0001) %MON dynstat_eta_sd               =   4.2319014521653E+02
(PID.TID 0000.0001) %MON dynstat_eta_del2             =   3.6275958292924E+01
(PID.TID 0000.0001) %MON dynstat_uvel_max             =   4.5857170796526E+00
(PID.TID 0000.0001) %MON dynstat_uvel_min             =  -3.2725353148933E+00
(PID.TID 0000.0001) %MON dynstat_uvel_mean            =   1.0094463229301E-01
(PID.TID 0000.0001) %MON dynstat_uvel_sd              =   7.1283124344111E-01
(PID.TID 0000.0001) %MON dynstat_uvel_del2            =   3.4569026519354E-02
(PID.TID 0000.0001) %MON dynstat_vvel_max             =   3.6428915986165E+00
(PID.TID 0000.0001) %MON dynstat_vvel_min             =  -4.0977183845640E+00
(PID.TID 0000.0001) %MON dynstat_vvel_mean            =   3.2367816453365E-02
(PID.TID 0000.0001) %MON dynstat_vvel_sd              =   7.4067209547658E-01
(PID.TID 0000.0001) %MON dynstat_vvel_del2            =   3.4175423622755E-02
(PID.TID 0000.0001) %MON dynstat_wvel_max             =   1.1757176686506E-01
(PID.TID 0000.0001) %MON dynstat_wvel_min             =  -1.0253783564364E-01
(PID.TID 0000.0001) %MON dynstat_wvel_mean            =   1.7275380832162E-04
(PID.TID 0000.0001) %MON dynstat_wvel_sd              =   9.1288514438569E-03
(PID.TID 0000.0001) %MON dynstat_wvel_del2            =   2.3175109881376E-03
(PID.TID 0000.0001) %MON dynstat_theta_max            =   4.3847855221384E+02
(PID.TID 0000.0001) %MON dynstat_theta_min            =   2.8044792313496E+02
(PID.TID 0000.0001) %MON dynstat_theta_mean           =   3.3165153187705E+02
(PID.TID 0000.0001) %MON dynstat_theta_sd             =   4.7484598335388E+01
(PID.TID 0000.0001) %MON dynstat_theta_del2           =   3.9301903063549E-02
(PID.TID 0000.0001) %MON dynstat_salt_max             =   5.0472718678725E+00
(PID.TID 0000.0001) %MON dynstat_salt_min             =  -4.6937445053290E-02
(PID.TID 0000.0001) %MON dynstat_salt_mean            =   1.4005247264181E-01
(PID.TID 0000.0001) %MON dynstat_salt_sd              =   5.2703519165183E-01
(PID.TID 0000.0001) %MON dynstat_salt_del2            =   1.5604073331187E-02
(PID.TID 0000.0001) %MON advcfl_uvel_max              =   6.9741716483878E-03
(PID.TID 0000.0001) %MON advcfl_vvel_max              =   6.2154011605563E-03
(PID.TID 0000.0001) %MON advcfl_wvel_max              =   3.0232740051015E-03
(PID.TID 0000.0001) %MON advcfl_W_hf_max              =   2.4045155295873E-02
(PID.TID 0000.0001) %MON pe_b_mean                    =  -1.1596457395780E+00
(PID.TID 0000.0001) %MON ke_max                       =   8.7329728206420E+00
(PID.TID 0000.0001) %MON ke_mean                      =   5.3044170981629E-01
(PID.TID 0000.0001) %MON ke_vol                       =   4.9523908919847E+19
(PID.TID 0000.0001) %MON vort_r_min                   =  -1.6181532883699E-05
(PID.TID 0000.0001) %MON vort_r_max                   =   1.8074994664972E-05
(PID.TID 0000.0001) %MON vort_a_mean                  =   6.7059142262062E-08
(PID.TID 0000.0001) %MON vort_a_sd                    =   8.3792986426538E-05
(PID.TID 0000.0001) %MON vort_p_mean                  =   6.8794393389146E-08
(PID.TID 0000.0001) %MON vort_p_sd                    =   9.1540675776603E-05
(PID.TID 0000.0001) %MON surfExpan_theta_mean         =  -1.6561059246063E-02
(PID.TID 0000.0001) %MON surfExpan_salt_mean          =  -1.8007731707009E-03
(PID.TID 0000.0001) %MON surfExpan_Heat_mean          =   1.2163241745358E+00
(PID.TID 0000.0001) %MON En_Budget_T2PE_mean          =  -2.4767974949485E+00
(PID.TID 0000.0001) // =======================================================
(PID.TID 0000.0001) // End MONITOR dynamic field statistics
(PID.TID 0000.0001) // =======================================================
(PID.TID 0000.0001) // =======================================================
(PID.TID 0000.0001) // Begin MONITOR Land statistics
(PID.TID 0000.0001) // =======================================================
(PID.TID 0000.0001) %MON land_time_sec                =   1.8000000000000E+04
(PID.TID 0000.0001) %MON land_SnwH_ave_G              =   1.5320959944917E-01
(PID.TID 0000.0001) %MON land_SnwH_ave_S              =   5.5902832300072E-01
(PID.TID 0000.0001) %MON land_SnwH_ave_T              =   0.0000000000000E+00
(PID.TID 0000.0001) %MON land_SnwH_ave_N              =   1.2387334291643E-01
(PID.TID 0000.0001) %MON land_SnwH_max_S              =   9.9997788992043E-01
(PID.TID 0000.0001) %MON land_SnwH_max_T              =   0.0000000000000E+00
(PID.TID 0000.0001) %MON land_SnwH_max_N              =   9.9999737626635E-01
(PID.TID 0000.0001) %MON land_TotEnerg_G              =  -6.3665719467616E+21
(PID.TID 0000.0001) %MON land_TotEnerg_S              =  -5.0024406700318E+21
(PID.TID 0000.0001) %MON land_TotEnerg_T              =   7.2707444254467E+21
(PID.TID 0000.0001) %MON land_TotEnerg_N              =  -8.6348757021766E+21
(PID.TID 0000.0001) %MON land_Tsrf_ave_G              =  -8.7233757099402E+00
(PID.TID 0000.0001) %MON land_Tsrf_ave_S              =  -7.3241133289695E+00
(PID.TID 0000.0001) %MON land_Tsrf_ave_T              =   9.5584230182771E+00
(PID.TID 0000.0001) %MON land_Tsrf_ave_N              =  -2.1385335432689E+01
(PID.TID 0000.0001) %MON land_Tsrf_min_S              =  -3.3336059588218E+01
(PID.TID 0000.0001) %MON land_Tsrf_min_T              =  -3.3723748340295E+00
(PID.TID 0000.0001) %MON land_Tsrf_min_N              =  -5.1960982418883E+01
(PID.TID 0000.0001) %MON land_Tsrf_max_S              =   1.9931669637345E+01
(PID.TID 0000.0001) %MON land_Tsrf_max_T              =   1.9620821716825E+01
(PID.TID 0000.0001) %MON land_Tsrf_max_N              =   7.3699179030470E+00
(PID.TID 0000.0001) %MON land_Tgr1_ave_G              =  -7.5671574932448E+00
(PID.TID 0000.0001) %MON land_Tgr1_ave_S              =  -7.3208464677318E+00
(PID.TID 0000.0001) %MON land_Tgr1_ave_T              =   9.5584230182771E+00
(PID.TID 0000.0001) %MON land_Tgr1_ave_N              =  -1.9083018300013E+01
(PID.TID 0000.0001) %MON land_Tgr1_min_S              =  -3.9433807559974E+01
(PID.TID 0000.0001) %MON land_Tgr1_min_T              =  -3.3723748340295E+00
(PID.TID 0000.0001) %MON land_Tgr1_min_N              =  -5.4509114655116E+01
(PID.TID 0000.0001) %MON land_Tgr1_max_S              =   1.9931669637345E+01
(PID.TID 0000.0001) %MON land_Tgr1_max_T              =   1.9620821716825E+01
(PID.TID 0000.0001) %MON land_Tgr1_max_N              =   7.3699179030470E+00
(PID.TID 0000.0001) %MON land_Tgr2_ave_G              =   4.2010707338764E+00
(PID.TID 0000.0001) %MON land_Tgr2_ave_S              =  -1.8723771041853E+01
(PID.TID 0000.0001) %MON land_Tgr2_ave_T              =   2.2006488044486E+01
(PID.TID 0000.0001) %MON land_Tgr2_ave_N              =  -2.5218430900049E-01
(PID.TID 0000.0001) %MON land_Tgr2_min_S              =  -6.4745078511146E+01
(PID.TID 0000.0001) %MON land_Tgr2_min_T              =  -9.7024442101201E+00
(PID.TID 0000.0001) %MON land_Tgr2_min_N              =  -4.0203085052837E+01
(PID.TID 0000.0001) %MON land_Tgr2_max_S              =   2.3358937766472E+01
(PID.TID 0000.0001) %MON land_Tgr2_max_T              =   3.1345085671276E+01
(PID.TID 0000.0001) %MON land_Tgr2_max_N              =   2.9813254923034E+01
(PID.TID 0000.0001) %MON land_grdW_ave_G              =   4.8664972333587E-01
(PID.TID 0000.0001) %MON land_grdW_ave_S              =   3.0841385835233E-01
(PID.TID 0000.0001) %MON land_grdW_ave_T              =   5.6391951047588E-01
(PID.TID 0000.0001) %MON land_grdW_ave_N              =   4.9286986054175E-01
(PID.TID 0000.0001) %MON land_grdW_min_S              =   2.8778140632234E-02
(PID.TID 0000.0001) %MON land_grdW_min_T              =   0.0000000000000E+00
(PID.TID 0000.0001) %MON land_grdW_min_N              =   0.0000000000000E+00
(PID.TID 0000.0001) // =======================================================
(PID.TID 0000.0001) // End MONITOR Land statistics
(PID.TID 0000.0001) // =======================================================
(PID.TID 0000.0001) // =======================================================
(PID.TID 0000.0001) // Begin MONITOR Therm.SeaIce statistics
(PID.TID 0000.0001) // =======================================================
(PID.TID 0000.0001) %MON thSI_time_sec                =   1.8000000000000E+04
(PID.TID 0000.0001) %MON thSI_Ice_Area_G              =   1.9023550521939E+11
(PID.TID 0000.0001) %MON thSI_Ice_Area_S              =   0.0000000000000E+00
(PID.TID 0000.0001) %MON thSI_Ice_Area_N              =   1.9023550521939E+11
(PID.TID 0000.0001) %MON thSI_IceH_ave_G              =   1.3819885570557E-01
(PID.TID 0000.0001) %MON thSI_IceH_ave_S              =   0.0000000000000E+00
(PID.TID 0000.0001) %MON thSI_IceH_ave_N              =   1.3819885570557E-01
(PID.TID 0000.0001) %MON thSI_IceH_max_S              =   0.0000000000000E+00
(PID.TID 0000.0001) %MON thSI_IceH_max_N              =   1.5040492119810E-01
(PID.TID 0000.0001) %MON thSI_SnwH_ave_G              =   0.0000000000000E+00
(PID.TID 0000.0001) %MON thSI_SnwH_ave_S              =   0.0000000000000E+00
(PID.TID 0000.0001) %MON thSI_SnwH_ave_N              =   0.0000000000000E+00
(PID.TID 0000.0001) %MON thSI_SnwH_max_S              =   0.0000000000000E+00
(PID.TID 0000.0001) %MON thSI_SnwH_max_N              =   0.0000000000000E+00
(PID.TID 0000.0001) %MON thSI_TotEnerg_G              =  -8.1341290583945E+18
(PID.TID 0000.0001) %MON thSI_Tsrf_ave_G              =  -9.1004130898270E+00
(PID.TID 0000.0001) %MON thSI_Tsrf_ave_S              =   0.0000000000000E+00
(PID.TID 0000.0001) %MON thSI_Tsrf_ave_N              =  -9.1004130898270E+00
(PID.TID 0000.0001) %MON thSI_Tsrf_min_S              =   0.0000000000000E+00
(PID.TID 0000.0001) %MON thSI_Tsrf_min_N              =  -9.7019814795930E+00
(PID.TID 0000.0001) %MON thSI_Tsrf_max_S              =   0.0000000000000E+00
(PID.TID 0000.0001) %MON thSI_Tsrf_max_N              =  -5.2714945547305E+00
(PID.TID 0000.0001) %MON thSI_Tic1_ave_G              =  -7.0914986418111E+00
(PID.TID 0000.0001) %MON thSI_Tic1_ave_S              =   0.0000000000000E+00
(PID.TID 0000.0001) %MON thSI_Tic1_ave_N              =  -7.0914986418111E+00
(PID.TID 0000.0001) %MON thSI_Tic1_min_S              =   0.0000000000000E+00
(PID.TID 0000.0001) %MON thSI_Tic1_min_N              =  -7.4682286049465E+00
(PID.TID 0000.0001) %MON thSI_Tic1_max_S              =   0.0000000000000E+00
(PID.TID 0000.0001) %MON thSI_Tic1_max_N              =  -3.3600265713548E+00
(PID.TID 0000.0001) %MON thSI_Tic2_ave_G              =  -3.4070378082872E+00
(PID.TID 0000.0001) %MON thSI_Tic2_ave_S              =   0.0000000000000E+00
(PID.TID 0000.0001) %MON thSI_Tic2_ave_N              =  -3.4070378082872E+00
(PID.TID 0000.0001) %MON thSI_Tic2_min_S              =   0.0000000000000E+00
(PID.TID 0000.0001) %MON thSI_Tic2_min_N              =  -3.5491955290385E+00
(PID.TID 0000.0001) %MON thSI_Tic2_max_S              =   0.0000000000000E+00
(PID.TID 0000.0001) %MON thSI_Tic2_max_N              =  -2.0808038417426E+00
(PID.TID 0000.0001) // =======================================================
(PID.TID 0000.0001) // End MONITOR Therm.SeaIce statistics
(PID.TID 0000.0001) // =======================================================
(PID.TID 0000.0001) %CHECKPOINT        40 ckptA
(PID.TID 0000.0001)   Seconds in section "ALL                    [THE_MODEL_MAIN]":
(PID.TID 0000.0001)           User time:   55.5499996952713
(PID.TID 0000.0001)         System time:  0.519999992102385
(PID.TID 0000.0001)     Wall clock time:   64.7181389331818
(PID.TID 0000.0001)          No. starts:           1
(PID.TID 0000.0001)           No. stops:           1
(PID.TID 0000.0001)   Seconds in section "INITIALISE_FIXED       [THE_MODEL_MAIN]":
(PID.TID 0000.0001)           User time:   4.61000011488795
(PID.TID 0000.0001)         System time:  0.320000004023314
(PID.TID 0000.0001)     Wall clock time:   10.7052841186523
(PID.TID 0000.0001)          No. starts:           1
(PID.TID 0000.0001)           No. stops:           1
(PID.TID 0000.0001)   Seconds in section "THE_MAIN_LOOP          [THE_MODEL_MAIN]":
(PID.TID 0000.0001)           User time:   50.8200006484985
(PID.TID 0000.0001)         System time:  0.159999966621399
(PID.TID 0000.0001)     Wall clock time:   53.2059948444366
(PID.TID 0000.0001)          No. starts:           1
(PID.TID 0000.0001)           No. stops:           1
(PID.TID 0000.0001)   Seconds in section "INITIALISE_VARIA    [THE_MAIN_LOOP]":
(PID.TID 0000.0001)           User time:  0.190000057220459
(PID.TID 0000.0001)         System time:   3.99999916553497D-002
(PID.TID 0000.0001)     Wall clock time:  0.257332086563110
(PID.TID 0000.0001)          No. starts:           1
(PID.TID 0000.0001)           No. stops:           1
(PID.TID 0000.0001)   Seconds in section "MONITOR             [THE_MAIN_LOOP]":
(PID.TID 0000.0001)           User time:  0.199999809265137
(PID.TID 0000.0001)         System time:   0.00000000000000D+000
(PID.TID 0000.0001)     Wall clock time:  0.194448947906494
(PID.TID 0000.0001)          No. starts:           1
(PID.TID 0000.0001)           No. stops:           1
(PID.TID 0000.0001)   Seconds in section "DO_THE_MODEL_IO     [THE_MAIN_LOOP]":
(PID.TID 0000.0001)           User time:  0.559999942779541
(PID.TID 0000.0001)         System time:   3.00000011920929D-002
(PID.TID 0000.0001)     Wall clock time:   1.96839809417725
(PID.TID 0000.0001)          No. starts:           1
(PID.TID 0000.0001)           No. stops:           1
(PID.TID 0000.0001)   Seconds in section "MAIN LOOP           [THE_MAIN_LOOP]":
(PID.TID 0000.0001)           User time:   49.8700008392334
(PID.TID 0000.0001)         System time:   8.99999737739563D-002
(PID.TID 0000.0001)     Wall clock time:   50.7856929302216
(PID.TID 0000.0001)          No. starts:           1
(PID.TID 0000.0001)           No. stops:           1
(PID.TID 0000.0001)   Seconds in section "FORWARD_STEP        [THE_MAIN_LOOP]":
(PID.TID 0000.0001)           User time:   49.8700008392334
(PID.TID 0000.0001)         System time:   8.99999737739563D-002
(PID.TID 0000.0001)     Wall clock time:   50.7848761081696
(PID.TID 0000.0001)          No. starts:          40
(PID.TID 0000.0001)           No. stops:          40
(PID.TID 0000.0001)   Seconds in section "EXTERNAL_FIELDS_LOAD[FORWARD_STEP]":
(PID.TID 0000.0001)           User time:   3.99999618530273D-002
(PID.TID 0000.0001)         System time:   0.00000000000000D+000
(PID.TID 0000.0001)     Wall clock time:  0.165999889373779
(PID.TID 0000.0001)          No. starts:          40
(PID.TID 0000.0001)           No. stops:          40
(PID.TID 0000.0001)   Seconds in section "CPL_EXPORT-IMPORT  [FORWARD_STEP]":
(PID.TID 0000.0001)           User time:   2.66999530792236
(PID.TID 0000.0001)         System time:   0.00000000000000D+000
(PID.TID 0000.0001)     Wall clock time:   2.67102718353271
(PID.TID 0000.0001)          No. starts:          40
(PID.TID 0000.0001)           No. stops:          40
(PID.TID 0000.0001)   Seconds in section "DO_ATMOSPHERIC_PHYS [FORWARD_STEP]":
(PID.TID 0000.0001)           User time:   7.84999752044678
(PID.TID 0000.0001)         System time:   2.00000107288361D-002
(PID.TID 0000.0001)     Wall clock time:   8.12891435623169
(PID.TID 0000.0001)          No. starts:          40
(PID.TID 0000.0001)           No. stops:          40
(PID.TID 0000.0001)   Seconds in section "AIM_DO_PHYSICS [DO_ATMOSPHERIC_PHYS]":
(PID.TID 0000.0001)           User time:   7.74999713897705
(PID.TID 0000.0001)         System time:   2.00000107288361D-002
(PID.TID 0000.0001)     Wall clock time:   7.99978685379028
(PID.TID 0000.0001)          No. starts:         240
(PID.TID 0000.0001)           No. stops:         240
(PID.TID 0000.0001)   Seconds in section "DO_OCEANIC_PHYS     [FORWARD_STEP]":
(PID.TID 0000.0001)           User time:   8.00018310546875D-002
(PID.TID 0000.0001)         System time:   0.00000000000000D+000
(PID.TID 0000.0001)     Wall clock time:   7.20505714416504D-002
(PID.TID 0000.0001)          No. starts:          40
(PID.TID 0000.0001)           No. stops:          40
(PID.TID 0000.0001)   Seconds in section "DYNAMICS            [FORWARD_STEP]":
(PID.TID 0000.0001)           User time:   7.68001556396484
(PID.TID 0000.0001)         System time:   9.99999046325684D-003
(PID.TID 0000.0001)     Wall clock time:   7.69134187698364
(PID.TID 0000.0001)          No. starts:          40
(PID.TID 0000.0001)           No. stops:          40
(PID.TID 0000.0001)   Seconds in section "UPDATE_R_STAR      [FORWARD_STEP]":
(PID.TID 0000.0001)           User time:  0.629980087280273
(PID.TID 0000.0001)         System time:   0.00000000000000D+000
(PID.TID 0000.0001)     Wall clock time:  0.624049425125122
(PID.TID 0000.0001)          No. starts:          40
(PID.TID 0000.0001)           No. stops:          40
(PID.TID 0000.0001)   Seconds in section "UPDATE_CG2D        [FORWARD_STEP]":
(PID.TID 0000.0001)           User time:  0.420004844665527
(PID.TID 0000.0001)         System time:   0.00000000000000D+000
(PID.TID 0000.0001)     Wall clock time:  0.417526483535767
(PID.TID 0000.0001)          No. starts:          40
(PID.TID 0000.0001)           No. stops:          40
(PID.TID 0000.0001)   Seconds in section "SOLVE_FOR_PRESSURE  [FORWARD_STEP]":
(PID.TID 0000.0001)           User time:   4.35999774932861
(PID.TID 0000.0001)         System time:   0.00000000000000D+000
(PID.TID 0000.0001)     Wall clock time:   4.38014674186707
(PID.TID 0000.0001)          No. starts:          40
(PID.TID 0000.0001)           No. stops:          40
(PID.TID 0000.0001)   Seconds in section "UV_CORRECTION_STEP  [FORWARD_STEP]":
(PID.TID 0000.0001)           User time:   4.80002021789551
(PID.TID 0000.0001)         System time:   0.00000000000000D+000
(PID.TID 0000.0001)     Wall clock time:   4.80451107025147
(PID.TID 0000.0001)          No. starts:          40
(PID.TID 0000.0001)           No. stops:          40
(PID.TID 0000.0001)   Seconds in section "UPDATE_ETAH        [FORWARD_STEP]":
(PID.TID 0000.0001)           User time:   2.00023651123047D-002
(PID.TID 0000.0001)         System time:   0.00000000000000D+000
(PID.TID 0000.0001)     Wall clock time:   2.12361812591553D-002
(PID.TID 0000.0001)          No. starts:          40
(PID.TID 0000.0001)           No. stops:          40
(PID.TID 0000.0001)   Seconds in section "CALC_R_STAR       [FORWARD_STEP]":
(PID.TID 0000.0001)           User time:  0.379974365234375
(PID.TID 0000.0001)         System time:   0.00000000000000D+000
(PID.TID 0000.0001)     Wall clock time:  0.378729104995728
(PID.TID 0000.0001)          No. starts:          40
(PID.TID 0000.0001)           No. stops:          40
(PID.TID 0000.0001)   Seconds in section "BLOCKING_EXCHANGES  [FORWARD_STEP]":
(PID.TID 0000.0001)           User time:  0.590013504028320
(PID.TID 0000.0001)         System time:   0.00000000000000D+000
(PID.TID 0000.0001)     Wall clock time:  0.581659555435181
(PID.TID 0000.0001)          No. starts:          80
(PID.TID 0000.0001)           No. stops:          80
(PID.TID 0000.0001)   Seconds in section "THERMODYNAMICS      [FORWARD_STEP]":
(PID.TID 0000.0001)           User time:   4.46000194549561
(PID.TID 0000.0001)         System time:   0.00000000000000D+000
(PID.TID 0000.0001)     Wall clock time:   4.45444631576538
(PID.TID 0000.0001)          No. starts:          40
(PID.TID 0000.0001)           No. stops:          40
(PID.TID 0000.0001)   Seconds in section "TS_CORRECTION_STEP  [FORWARD_STEP]":
(PID.TID 0000.0001)           User time:   4.32000732421875
(PID.TID 0000.0001)         System time:   0.00000000000000D+000
(PID.TID 0000.0001)     Wall clock time:   4.33143782615662
(PID.TID 0000.0001)          No. starts:          40
(PID.TID 0000.0001)           No. stops:          40
(PID.TID 0000.0001)   Seconds in section "DO_STATEVARS_DIAGS  [FORWARD_STEP]":
(PID.TID 0000.0001)           User time:   1.95997524261475
(PID.TID 0000.0001)         System time:   0.00000000000000D+000
(PID.TID 0000.0001)     Wall clock time:   1.97712850570679
(PID.TID 0000.0001)          No. starts:          40
(PID.TID 0000.0001)           No. stops:          40
(PID.TID 0000.0001)   Seconds in section "MONITOR             [FORWARD_STEP]":
(PID.TID 0000.0001)           User time:   7.50001239776611
(PID.TID 0000.0001)         System time:   0.00000000000000D+000
(PID.TID 0000.0001)     Wall clock time:   7.47774863243103
(PID.TID 0000.0001)          No. starts:          40
(PID.TID 0000.0001)           No. stops:          40
(PID.TID 0000.0001)   Seconds in section "DO_THE_MODEL_IO     [FORWARD_STEP]":
(PID.TID 0000.0001)           User time:   2.08999824523926
(PID.TID 0000.0001)         System time:   5.99999725818634D-002
(PID.TID 0000.0001)     Wall clock time:   2.58305215835571
(PID.TID 0000.0001)          No. starts:          40
(PID.TID 0000.0001)           No. stops:          40
(PID.TID 0000.0001)   Seconds in section "WRITE_CHECKPOINT    [FORWARD_STEP]":
(PID.TID 0000.0001)           User time:   0.00000000000000D+000
(PID.TID 0000.0001)         System time:   0.00000000000000D+000
(PID.TID 0000.0001)     Wall clock time:   1.02329254150391D-003
(PID.TID 0000.0001)          No. starts:          40
(PID.TID 0000.0001)           No. stops:          40
(PID.TID 0000.0001)   Seconds in section "WRITE_CHECKPOINT       [THE_MODEL_MAIN]":
(PID.TID 0000.0001)           User time:  0.119998931884766
(PID.TID 0000.0001)         System time:   4.00000214576721D-002
(PID.TID 0000.0001)     Wall clock time:  0.806758880615234
(PID.TID 0000.0001)          No. starts:           1
(PID.TID 0000.0001)           No. stops:           1
(PID.TID 0000.0001) // ======================================================
(PID.TID 0000.0001) // Tile <-> Tile communication statistics
(PID.TID 0000.0001) // ======================================================
(PID.TID 0000.0001) // o Tile number: 000001
(PID.TID 0000.0001) //         No. X exchanges =              0
(PID.TID 0000.0001) //            Max. X spins =              0
(PID.TID 0000.0001) //            Min. X spins =     1000000000
(PID.TID 0000.0001) //          Total. X spins =              0
(PID.TID 0000.0001) //            Avg. X spins =       0.00E+00
(PID.TID 0000.0001) //         No. Y exchanges =              0
(PID.TID 0000.0001) //            Max. Y spins =              0
(PID.TID 0000.0001) //            Min. Y spins =     1000000000
(PID.TID 0000.0001) //          Total. Y spins =              0
(PID.TID 0000.0001) //            Avg. Y spins =       0.00E+00
(PID.TID 0000.0001) // o Tile number: 000002
(PID.TID 0000.0001) //         No. X exchanges =              0
(PID.TID 0000.0001) //            Max. X spins =              0
(PID.TID 0000.0001) //            Min. X spins =     1000000000
(PID.TID 0000.0001) //          Total. X spins =              0
(PID.TID 0000.0001) //            Avg. X spins =       0.00E+00
(PID.TID 0000.0001) //         No. Y exchanges =              0
(PID.TID 0000.0001) //            Max. Y spins =              0
(PID.TID 0000.0001) //            Min. Y spins =     1000000000
(PID.TID 0000.0001) //          Total. Y spins =              0
(PID.TID 0000.0001) //            Avg. Y spins =       0.00E+00
(PID.TID 0000.0001) // o Tile number: 000003
(PID.TID 0000.0001) //         No. X exchanges =              0
(PID.TID 0000.0001) //            Max. X spins =              0
(PID.TID 0000.0001) //            Min. X spins =     1000000000
(PID.TID 0000.0001) //          Total. X spins =              0
(PID.TID 0000.0001) //            Avg. X spins =       0.00E+00
(PID.TID 0000.0001) //         No. Y exchanges =              0
(PID.TID 0000.0001) //            Max. Y spins =              0
(PID.TID 0000.0001) //            Min. Y spins =     1000000000
(PID.TID 0000.0001) //          Total. Y spins =              0
(PID.TID 0000.0001) //            Avg. Y spins =       0.00E+00
(PID.TID 0000.0001) // o Tile number: 000004
(PID.TID 0000.0001) //         No. X exchanges =              0
(PID.TID 0000.0001) //            Max. X spins =              0
(PID.TID 0000.0001) //            Min. X spins =     1000000000
(PID.TID 0000.0001) //          Total. X spins =              0
(PID.TID 0000.0001) //            Avg. X spins =       0.00E+00
(PID.TID 0000.0001) //         No. Y exchanges =              0
(PID.TID 0000.0001) //            Max. Y spins =              0
(PID.TID 0000.0001) //            Min. Y spins =     1000000000
(PID.TID 0000.0001) //          Total. Y spins =              0
(PID.TID 0000.0001) //            Avg. Y spins =       0.00E+00
(PID.TID 0000.0001) // o Tile number: 000005
(PID.TID 0000.0001) //         No. X exchanges =              0
(PID.TID 0000.0001) //            Max. X spins =              0
(PID.TID 0000.0001) //            Min. X spins =     1000000000
(PID.TID 0000.0001) //          Total. X spins =              0
(PID.TID 0000.0001) //            Avg. X spins =       0.00E+00
(PID.TID 0000.0001) //         No. Y exchanges =              0
(PID.TID 0000.0001) //            Max. Y spins =              0
(PID.TID 0000.0001) //            Min. Y spins =     1000000000
(PID.TID 0000.0001) //          Total. Y spins =              0
(PID.TID 0000.0001) //            Avg. Y spins =       0.00E+00
(PID.TID 0000.0001) // o Tile number: 000006
(PID.TID 0000.0001) //         No. X exchanges =              0
(PID.TID 0000.0001) //            Max. X spins =              0
(PID.TID 0000.0001) //            Min. X spins =     1000000000
(PID.TID 0000.0001) //          Total. X spins =              0
(PID.TID 0000.0001) //            Avg. X spins =       0.00E+00
(PID.TID 0000.0001) //         No. Y exchanges =              0
(PID.TID 0000.0001) //            Max. Y spins =              0
(PID.TID 0000.0001) //            Min. Y spins =     1000000000
(PID.TID 0000.0001) //          Total. Y spins =              0
(PID.TID 0000.0001) //            Avg. Y spins =       0.00E+00
(PID.TID 0000.0001) // o Thread number: 000001
(PID.TID 0000.0001) //            No. barriers =          54682
(PID.TID 0000.0001) //      Max. barrier spins =              1
(PID.TID 0000.0001) //      Min. barrier spins =              1
(PID.TID 0000.0001) //     Total barrier spins =          54682
(PID.TID 0000.0001) //      Avg. barrier spins =       1.00E+00
