(PID.TID 0000.0001) 
(PID.TID 0000.0001) // ======================================================
(PID.TID 0000.0001) //                      MITgcm UV
(PID.TID 0000.0001) //                      =========
(PID.TID 0000.0001) // ======================================================
(PID.TID 0000.0001) // execution environment starting up...
(PID.TID 0000.0001) 
(PID.TID 0000.0001) // MITgcmUV version:  checkpoint58v_post
(PID.TID 0000.0001) // Build user:        jmc
(PID.TID 0000.0001) // Build host:        a54-1727-073
(PID.TID 0000.0001) // Build date:        Thu Feb 15 18:31:42 EST 2007
(PID.TID 0000.0001) 
(PID.TID 0000.0001) // =======================================================
(PID.TID 0000.0001) // Execution Environment parameter file "eedata"
(PID.TID 0000.0001) // =======================================================
(PID.TID 0000.0001) ># Example "eedata" file
(PID.TID 0000.0001) ># Lines beginning "#" are comments
(PID.TID 0000.0001) ># nTx - No. threads per process in X
(PID.TID 0000.0001) ># nTy - No. threads per process in Y
(PID.TID 0000.0001) > &EEPARMS
(PID.TID 0000.0001) > useCoupler=.TRUE.,
(PID.TID 0000.0001) > useCubedSphereExchange=.TRUE.,
(PID.TID 0000.0001) ># Activate one line below to support 2, 3 or 6 way multi-threading
(PID.TID 0000.0001) > nTx=1,
(PID.TID 0000.0001) >#nTx=2,
(PID.TID 0000.0001) >#nTx=3,
(PID.TID 0000.0001) >#nTx=6,
(PID.TID 0000.0001) > &
(PID.TID 0000.0001) ># Note: Some systems use & as the
(PID.TID 0000.0001) ># namelist terminator. Other systems
(PID.TID 0000.0001) ># use a / character (as shown here).
(PID.TID 0000.0001) 
(PID.TID 0000.0001) // =======================================================
(PID.TID 0000.0001) // Computational Grid Specification ( see files "SIZE.h" )
(PID.TID 0000.0001) //                                  ( and "eedata"       )
(PID.TID 0000.0001) // =======================================================
(PID.TID 0000.0001)      nPx =    1 ; /* No. processes in X */
(PID.TID 0000.0001)      nPy =    1 ; /* No. processes in Y */
(PID.TID 0000.0001)      nSx =    6 ; /* No. tiles in X per process */
(PID.TID 0000.0001)      nSy =    1 ; /* No. tiles in Y per process */
(PID.TID 0000.0001)      sNx =   32 ; /* Tile size in X */
(PID.TID 0000.0001)      sNy =   32 ; /* Tile size in Y */
(PID.TID 0000.0001)      OLx =    2 ; /* Tile overlap distance in X */
(PID.TID 0000.0001)      OLy =    2 ; /* Tile overlap distance in Y */
(PID.TID 0000.0001)      nTx =    1 ; /* No. threads in X per process */
(PID.TID 0000.0001)      nTy =    1 ; /* No. threads in Y per process */
(PID.TID 0000.0001)       Nr =    5 ; /* No. levels in the vertical   */
(PID.TID 0000.0001)       nX =  192 ; /* Total domain size in X ( = nPx*nSx*sNx ) */
(PID.TID 0000.0001)       nY =   32 ; /* Total domain size in Y ( = nPy*nSy*sNy ) */
(PID.TID 0000.0001)   nTiles =    6 ; /* Total no. tiles per process ( = nSx*nSy ) */
(PID.TID 0000.0001)   nProcs =    1 ; /* Total no. processes ( = nPx*nPy ) */
(PID.TID 0000.0001) nThreads =    1 ; /* Total no. threads per process ( = nTx*nTy ) */
(PID.TID 0000.0001) usingMPI =    F ; /* Flag used to control whether MPI is in use */
(PID.TID 0000.0001)                   /*  note: To execute a program with MPI calls */
(PID.TID 0000.0001)                   /*  it must be launched appropriately e.g     */
(PID.TID 0000.0001)                   /*  "mpirun -np 64 ......"                    */
(PID.TID 0000.0001) useCoupler=   T ; /* Flag used to control communications with */
(PID.TID 0000.0001)                   /*  other model components, through a coupler */
(PID.TID 0000.0001) 
(PID.TID 0000.0001) ======= Starting MPI parallel Run =========
(PID.TID 0000.0001)  My Processor Name =                                        a54-1727-066.acesgrid.org
(PID.TID 0000.0001)  Located at (  0,  0) on processor grid (0:  0,0:  0)
(PID.TID 0000.0001)  Origin at  (   1,   1) on global grid (1: 192,1:  32)
(PID.TID 0000.0001)  North neighbor = processor 0000
(PID.TID 0000.0001)  South neighbor = processor 0000
(PID.TID 0000.0001)   East neighbor = processor 0000
(PID.TID 0000.0001)   West neighbor = processor 0000
(PID.TID 0000.0001) // ======================================================
(PID.TID 0000.0001) // Mapping of tiles to threads
(PID.TID 0000.0001) // ======================================================
(PID.TID 0000.0001) // -o- Thread   1, tiles (   1:   6,   1:   1)
(PID.TID 0000.0001) 
(PID.TID 0000.0001) // ======================================================
(PID.TID 0000.0001) // Tile <-> Tile connectvity table
(PID.TID 0000.0001) // ======================================================
(PID.TID 0000.0001) // Tile number: 000001 (process no. = 000000)
(PID.TID 0000.0001) //        WEST: Tile = 000006, Process = 000000, Comm = put
(PID.TID 0000.0001) //                bi = 000006, bj = 000001
(PID.TID 0000.0001) //        EAST: Tile = 000002, Process = 000000, Comm = put
(PID.TID 0000.0001) //                bi = 000002, bj = 000001
(PID.TID 0000.0001) //       SOUTH: Tile = 000001, Process = 000000, Comm = put
(PID.TID 0000.0001) //                bi = 000001, bj = 000001
(PID.TID 0000.0001) //       NORTH: Tile = 000001, Process = 000000, Comm = put
(PID.TID 0000.0001) //                bi = 000001, bj = 000001
(PID.TID 0000.0001) // Tile number: 000002 (process no. = 000000)
(PID.TID 0000.0001) //        WEST: Tile = 000001, Process = 000000, Comm = put
(PID.TID 0000.0001) //                bi = 000001, bj = 000001
(PID.TID 0000.0001) //        EAST: Tile = 000003, Process = 000000, Comm = put
(PID.TID 0000.0001) //                bi = 000003, bj = 000001
(PID.TID 0000.0001) //       SOUTH: Tile = 000002, Process = 000000, Comm = put
(PID.TID 0000.0001) //                bi = 000002, bj = 000001
(PID.TID 0000.0001) //       NORTH: Tile = 000002, Process = 000000, Comm = put
(PID.TID 0000.0001) //                bi = 000002, bj = 000001
(PID.TID 0000.0001) // Tile number: 000003 (process no. = 000000)
(PID.TID 0000.0001) //        WEST: Tile = 000002, Process = 000000, Comm = put
(PID.TID 0000.0001) //                bi = 000002, bj = 000001
(PID.TID 0000.0001) //        EAST: Tile = 000004, Process = 000000, Comm = put
(PID.TID 0000.0001) //                bi = 000004, bj = 000001
(PID.TID 0000.0001) //       SOUTH: Tile = 000003, Process = 000000, Comm = put
(PID.TID 0000.0001) //                bi = 000003, bj = 000001
(PID.TID 0000.0001) //       NORTH: Tile = 000003, Process = 000000, Comm = put
(PID.TID 0000.0001) //                bi = 000003, bj = 000001
(PID.TID 0000.0001) // Tile number: 000004 (process no. = 000000)
(PID.TID 0000.0001) //        WEST: Tile = 000003, Process = 000000, Comm = put
(PID.TID 0000.0001) //                bi = 000003, bj = 000001
(PID.TID 0000.0001) //        EAST: Tile = 000005, Process = 000000, Comm = put
(PID.TID 0000.0001) //                bi = 000005, bj = 000001
(PID.TID 0000.0001) //       SOUTH: Tile = 000004, Process = 000000, Comm = put
(PID.TID 0000.0001) //                bi = 000004, bj = 000001
(PID.TID 0000.0001) //       NORTH: Tile = 000004, Process = 000000, Comm = put
(PID.TID 0000.0001) //                bi = 000004, bj = 000001
(PID.TID 0000.0001) // Tile number: 000005 (process no. = 000000)
(PID.TID 0000.0001) //        WEST: Tile = 000004, Process = 000000, Comm = put
(PID.TID 0000.0001) //                bi = 000004, bj = 000001
(PID.TID 0000.0001) //        EAST: Tile = 000006, Process = 000000, Comm = put
(PID.TID 0000.0001) //                bi = 000006, bj = 000001
(PID.TID 0000.0001) //       SOUTH: Tile = 000005, Process = 000000, Comm = put
(PID.TID 0000.0001) //                bi = 000005, bj = 000001
(PID.TID 0000.0001) //       NORTH: Tile = 000005, Process = 000000, Comm = put
(PID.TID 0000.0001) //                bi = 000005, bj = 000001
(PID.TID 0000.0001) // Tile number: 000006 (process no. = 000000)
(PID.TID 0000.0001) //        WEST: Tile = 000005, Process = 000000, Comm = put
(PID.TID 0000.0001) //                bi = 000005, bj = 000001
(PID.TID 0000.0001) //        EAST: Tile = 000001, Process = 000000, Comm = put
(PID.TID 0000.0001) //                bi = 000001, bj = 000001
(PID.TID 0000.0001) //       SOUTH: Tile = 000006, Process = 000000, Comm = put
(PID.TID 0000.0001) //                bi = 000006, bj = 000001
(PID.TID 0000.0001) //       NORTH: Tile = 000006, Process = 000000, Comm = put
(PID.TID 0000.0001) //                bi = 000006, bj = 000001
(PID.TID 0000.0001) 
(PID.TID 0000.0001) ===== W2 TILE TOPLOGY =====
(PID.TID 0000.0001)  TILE:    1
(PID.TID 0000.0001)       NEIGHBOUR    1 = TILE    3 Comm = PUT ( PROC =    1)
(PID.TID 0000.0001)       NEIGHBOUR    2 = TILE    6 Comm = PUT ( PROC =    1)
(PID.TID 0000.0001)       NEIGHBOUR    3 = TILE    2 Comm = PUT ( PROC =    1)
(PID.TID 0000.0001)       NEIGHBOUR    4 = TILE    5 Comm = PUT ( PROC =    1)
(PID.TID 0000.0001)  TILE:    2
(PID.TID 0000.0001)       NEIGHBOUR    1 = TILE    3 Comm = PUT ( PROC =    1)
(PID.TID 0000.0001)       NEIGHBOUR    2 = TILE    6 Comm = PUT ( PROC =    1)
(PID.TID 0000.0001)       NEIGHBOUR    3 = TILE    4 Comm = PUT ( PROC =    1)
(PID.TID 0000.0001)       NEIGHBOUR    4 = TILE    1 Comm = PUT ( PROC =    1)
(PID.TID 0000.0001)  TILE:    3
(PID.TID 0000.0001)       NEIGHBOUR    1 = TILE    5 Comm = PUT ( PROC =    1)
(PID.TID 0000.0001)       NEIGHBOUR    2 = TILE    2 Comm = PUT ( PROC =    1)
(PID.TID 0000.0001)       NEIGHBOUR    3 = TILE    4 Comm = PUT ( PROC =    1)
(PID.TID 0000.0001)       NEIGHBOUR    4 = TILE    1 Comm = PUT ( PROC =    1)
(PID.TID 0000.0001)  TILE:    4
(PID.TID 0000.0001)       NEIGHBOUR    1 = TILE    5 Comm = PUT ( PROC =    1)
(PID.TID 0000.0001)       NEIGHBOUR    2 = TILE    2 Comm = PUT ( PROC =    1)
(PID.TID 0000.0001)       NEIGHBOUR    3 = TILE    6 Comm = PUT ( PROC =    1)
(PID.TID 0000.0001)       NEIGHBOUR    4 = TILE    3 Comm = PUT ( PROC =    1)
(PID.TID 0000.0001)  TILE:    5
(PID.TID 0000.0001)       NEIGHBOUR    1 = TILE    1 Comm = PUT ( PROC =    1)
(PID.TID 0000.0001)       NEIGHBOUR    2 = TILE    4 Comm = PUT ( PROC =    1)
(PID.TID 0000.0001)       NEIGHBOUR    3 = TILE    6 Comm = PUT ( PROC =    1)
(PID.TID 0000.0001)       NEIGHBOUR    4 = TILE    3 Comm = PUT ( PROC =    1)
(PID.TID 0000.0001)  TILE:    6
(PID.TID 0000.0001)       NEIGHBOUR    1 = TILE    1 Comm = PUT ( PROC =    1)
(PID.TID 0000.0001)       NEIGHBOUR    2 = TILE    4 Comm = PUT ( PROC =    1)
(PID.TID 0000.0001)       NEIGHBOUR    3 = TILE    2 Comm = PUT ( PROC =    1)
(PID.TID 0000.0001)       NEIGHBOUR    4 = TILE    5 Comm = PUT ( PROC =    1)
(PID.TID 0000.0001) Tile    1(proc =   1) sends points i=  34:  -1, j=  31:  32
(PID.TID 0000.0001)                          to points i=  -1:   0, j=  -1:  34 in tile    3(proc =   1)
(PID.TID 0000.0001) Tile    1(proc =   1) sends points i=  -1:  34, j=   1:   2
(PID.TID 0000.0001)                          to points i=  -1:  34, j=  33:  34 in tile    6(proc =   1)
(PID.TID 0000.0001) Tile    1(proc =   1) sends points i=  31:  32, j=  -1:  34
(PID.TID 0000.0001)                          to points i=  -1:   0, j=  -1:  34 in tile    2(proc =   1)
(PID.TID 0000.0001) Tile    1(proc =   1) sends points i=   1:   2, j=  34:  -1
(PID.TID 0000.0001)                          to points i=  -1:  34, j=  33:  34 in tile    5(proc =   1)
(PID.TID 0000.0001) Tile    2(proc =   1) sends points i=  -1:  34, j=  31:  32
(PID.TID 0000.0001)                          to points i=  -1:  34, j=  -1:   0 in tile    3(proc =   1)
(PID.TID 0000.0001) Tile    2(proc =   1) sends points i=  34:  -1, j=   1:   2
(PID.TID 0000.0001)                          to points i=  33:  34, j=  -1:  34 in tile    6(proc =   1)
(PID.TID 0000.0001) Tile    2(proc =   1) sends points i=  31:  32, j=  34:  -1
(PID.TID 0000.0001)                          to points i=  -1:  34, j=  -1:   0 in tile    4(proc =   1)
(PID.TID 0000.0001) Tile    2(proc =   1) sends points i=   1:   2, j=  -1:  34
(PID.TID 0000.0001)                          to points i=  33:  34, j=  -1:  34 in tile    1(proc =   1)
(PID.TID 0000.0001) Tile    3(proc =   1) sends points i=  34:  -1, j=  31:  32
(PID.TID 0000.0001)                          to points i=  -1:   0, j=  -1:  34 in tile    5(proc =   1)
(PID.TID 0000.0001) Tile    3(proc =   1) sends points i=  -1:  34, j=   1:   2
(PID.TID 0000.0001)                          to points i=  -1:  34, j=  33:  34 in tile    2(proc =   1)
(PID.TID 0000.0001) Tile    3(proc =   1) sends points i=  31:  32, j=  -1:  34
(PID.TID 0000.0001)                          to points i=  -1:   0, j=  -1:  34 in tile    4(proc =   1)
(PID.TID 0000.0001) Tile    3(proc =   1) sends points i=   1:   2, j=  34:  -1
(PID.TID 0000.0001)                          to points i=  -1:  34, j=  33:  34 in tile    1(proc =   1)
(PID.TID 0000.0001) Tile    4(proc =   1) sends points i=  -1:  34, j=  31:  32
(PID.TID 0000.0001)                          to points i=  -1:  34, j=  -1:   0 in tile    5(proc =   1)
(PID.TID 0000.0001) Tile    4(proc =   1) sends points i=  34:  -1, j=   1:   2
(PID.TID 0000.0001)                          to points i=  33:  34, j=  -1:  34 in tile    2(proc =   1)
(PID.TID 0000.0001) Tile    4(proc =   1) sends points i=  31:  32, j=  34:  -1
(PID.TID 0000.0001)                          to points i=  -1:  34, j=  -1:   0 in tile    6(proc =   1)
(PID.TID 0000.0001) Tile    4(proc =   1) sends points i=   1:   2, j=  -1:  34
(PID.TID 0000.0001)                          to points i=  33:  34, j=  -1:  34 in tile    3(proc =   1)
(PID.TID 0000.0001) Tile    5(proc =   1) sends points i=  34:  -1, j=  31:  32
(PID.TID 0000.0001)                          to points i=  -1:   0, j=  -1:  34 in tile    1(proc =   1)
(PID.TID 0000.0001) Tile    5(proc =   1) sends points i=  -1:  34, j=   1:   2
(PID.TID 0000.0001)                          to points i=  -1:  34, j=  33:  34 in tile    4(proc =   1)
(PID.TID 0000.0001) Tile    5(proc =   1) sends points i=  31:  32, j=  -1:  34
(PID.TID 0000.0001)                          to points i=  -1:   0, j=  -1:  34 in tile    6(proc =   1)
(PID.TID 0000.0001) Tile    5(proc =   1) sends points i=   1:   2, j=  34:  -1
(PID.TID 0000.0001)                          to points i=  -1:  34, j=  33:  34 in tile    3(proc =   1)
(PID.TID 0000.0001) Tile    6(proc =   1) sends points i=  -1:  34, j=  31:  32
(PID.TID 0000.0001)                          to points i=  -1:  34, j=  -1:   0 in tile    1(proc =   1)
(PID.TID 0000.0001) Tile    6(proc =   1) sends points i=  34:  -1, j=   1:   2
(PID.TID 0000.0001)                          to points i=  33:  34, j=  -1:  34 in tile    4(proc =   1)
(PID.TID 0000.0001) Tile    6(proc =   1) sends points i=  31:  32, j=  34:  -1
(PID.TID 0000.0001)                          to points i=  -1:  34, j=  -1:   0 in tile    2(proc =   1)
(PID.TID 0000.0001) Tile    6(proc =   1) sends points i=   1:   2, j=  -1:  34
(PID.TID 0000.0001)                          to points i=  33:  34, j=  -1:  34 in tile    5(proc =   1)
(PID.TID 0000.0001) Tile    1(proc =   1)recv to points i=  -1:  34, j=  33:  34from tile   3(proc =   1)
(PID.TID 0000.0001) Tile    1(proc =   1)recv to points i=  -1:  34, j=  -1:   0from tile   6(proc =   1)
(PID.TID 0000.0001) Tile    1(proc =   1)recv to points i=  33:  34, j=  -1:  34from tile   2(proc =   1)
(PID.TID 0000.0001) Tile    1(proc =   1)recv to points i=  -1:   0, j=  -1:  34from tile   5(proc =   1)
(PID.TID 0000.0001) Tile    2(proc =   1)recv to points i=  -1:  34, j=  33:  34from tile   3(proc =   1)
(PID.TID 0000.0001) Tile    2(proc =   1)recv to points i=  -1:  34, j=  -1:   0from tile   6(proc =   1)
(PID.TID 0000.0001) Tile    2(proc =   1)recv to points i=  33:  34, j=  -1:  34from tile   4(proc =   1)
(PID.TID 0000.0001) Tile    2(proc =   1)recv to points i=  -1:   0, j=  -1:  34from tile   1(proc =   1)
(PID.TID 0000.0001) Tile    3(proc =   1)recv to points i=  -1:  34, j=  33:  34from tile   5(proc =   1)
(PID.TID 0000.0001) Tile    3(proc =   1)recv to points i=  -1:  34, j=  -1:   0from tile   2(proc =   1)
(PID.TID 0000.0001) Tile    3(proc =   1)recv to points i=  33:  34, j=  -1:  34from tile   4(proc =   1)
(PID.TID 0000.0001) Tile    3(proc =   1)recv to points i=  -1:   0, j=  -1:  34from tile   1(proc =   1)
(PID.TID 0000.0001) Tile    4(proc =   1)recv to points i=  -1:  34, j=  33:  34from tile   5(proc =   1)
(PID.TID 0000.0001) Tile    4(proc =   1)recv to points i=  -1:  34, j=  -1:   0from tile   2(proc =   1)
(PID.TID 0000.0001) Tile    4(proc =   1)recv to points i=  33:  34, j=  -1:  34from tile   6(proc =   1)
(PID.TID 0000.0001) Tile    4(proc =   1)recv to points i=  -1:   0, j=  -1:  34from tile   3(proc =   1)
(PID.TID 0000.0001) Tile    5(proc =   1)recv to points i=  -1:  34, j=  33:  34from tile   1(proc =   1)
(PID.TID 0000.0001) Tile    5(proc =   1)recv to points i=  -1:  34, j=  -1:   0from tile   4(proc =   1)
(PID.TID 0000.0001) Tile    5(proc =   1)recv to points i=  33:  34, j=  -1:  34from tile   6(proc =   1)
(PID.TID 0000.0001) Tile    5(proc =   1)recv to points i=  -1:   0, j=  -1:  34from tile   3(proc =   1)
(PID.TID 0000.0001) Tile    6(proc =   1)recv to points i=  -1:  34, j=  33:  34from tile   1(proc =   1)
(PID.TID 0000.0001) Tile    6(proc =   1)recv to points i=  -1:  34, j=  -1:   0from tile   4(proc =   1)
(PID.TID 0000.0001) Tile    6(proc =   1)recv to points i=  33:  34, j=  -1:  34from tile   2(proc =   1)
(PID.TID 0000.0001) Tile    6(proc =   1)recv to points i=  -1:   0, j=  -1:  34from tile   5(proc =   1)
(PID.TID 0000.0001) // =======================================================
(PID.TID 0000.0001) // Model parameter file "data"
(PID.TID 0000.0001) // =======================================================
(PID.TID 0000.0001) ># ====================
(PID.TID 0000.0001) ># | Model parameters |
(PID.TID 0000.0001) ># ====================
(PID.TID 0000.0001) >#
(PID.TID 0000.0001) ># Continuous equation parameters
(PID.TID 0000.0001) > &PARM01
(PID.TID 0000.0001) > tRef=289.6, 298.1, 314.5, 335.8, 437.4,
(PID.TID 0000.0001) > sRef=5*0.,
(PID.TID 0000.0001) > no_slip_sides=.FALSE.,
(PID.TID 0000.0001) > no_slip_bottom=.FALSE.,
(PID.TID 0000.0001) > buoyancyRelation='ATMOSPHERIC',
(PID.TID 0000.0001) > eosType='IDEALGAS',
(PID.TID 0000.0001) > atm_Rq=0.6078E-3,
(PID.TID 0000.0001) > Integr_GeoPot=2,
(PID.TID 0000.0001) > selectFindRoSurf=1,
(PID.TID 0000.0001) > gravity=9.81,
(PID.TID 0000.0001) > rhoConst=1.0,
(PID.TID 0000.0001) > rhoConstFresh=1000.,
(PID.TID 0000.0001) > implicitFreeSurface=.TRUE.,
(PID.TID 0000.0001) > exactConserv=.TRUE.,
(PID.TID 0000.0001) > select_rStar=2,
(PID.TID 0000.0001) > nonlinFreeSurf=4,
(PID.TID 0000.0001) > hFacInf=0.2,
(PID.TID 0000.0001) > hFacSup=2.0,
(PID.TID 0000.0001) > uniformLin_PhiSurf=.FALSE.,
(PID.TID 0000.0001) > hFacMin=0.2,
(PID.TID 0000.0001) > saltAdvScheme=3,
(PID.TID 0000.0001) > vectorInvariantMomentum=.TRUE.,
(PID.TID 0000.0001) > useJamartWetPoints=.TRUE.,
(PID.TID 0000.0001) > staggerTimeStep=.TRUE.,
(PID.TID 0000.0001) > readBinaryPrec=64,
(PID.TID 0000.0001) > writeBinaryPrec=64,
(PID.TID 0000.0001) > &
(PID.TID 0000.0001) >
(PID.TID 0000.0001) ># Elliptic solver parameters
(PID.TID 0000.0001) > &PARM02
(PID.TID 0000.0001) > cg2dMaxIters=200,
(PID.TID 0000.0001) >#cg2dTargetResidual=1.E-12,
(PID.TID 0000.0001) > cg2dTargetResWunit=1.E-17,
(PID.TID 0000.0001) > &
(PID.TID 0000.0001) >
(PID.TID 0000.0001) ># Time stepping parameters
(PID.TID 0000.0001) > &PARM03
(PID.TID 0000.0001) > nIter0=0,
(PID.TID 0000.0001) > nTimeSteps=40,
(PID.TID 0000.0001) ># 10yr:
(PID.TID 0000.0001) >#endTime=311040000.,
(PID.TID 0000.0001) > deltaT=450.0,
(PID.TID 0000.0001) > abEps=0.1,
(PID.TID 0000.0001) >#forcing_In_AB=.FALSE.,
(PID.TID 0000.0001) > tracForcingOutAB=1,
(PID.TID 0000.0001) > cAdjFreq=0.,
(PID.TID 0000.0001) > pChkptFreq=2592000.,
(PID.TID 0000.0001) > taveFreq=2592000.,
(PID.TID 0000.0001) > dumpFreq=2592000.,
(PID.TID 0000.0001) > monitorFreq=86400.,
(PID.TID 0000.0001) > monitorFreq=1.,
(PID.TID 0000.0001) > &
(PID.TID 0000.0001) >
(PID.TID 0000.0001) ># Gridding parameters
(PID.TID 0000.0001) > &PARM04
(PID.TID 0000.0001) > usingCurvilinearGrid=.TRUE.,
(PID.TID 0000.0001) > horizGridFile='grid_cs32',
(PID.TID 0000.0001) > delR=100.E2, 250.E2, 300.E2, 200.E2, 150.E2,
(PID.TID 0000.0001) > Ro_SeaLevel=1.E5,
(PID.TID 0000.0001) > rSphere=6370.E3,
(PID.TID 0000.0001) > &
(PID.TID 0000.0001) >
(PID.TID 0000.0001) ># Input datasets
(PID.TID 0000.0001) > &PARM05
(PID.TID 0000.0001) > topoFile='topo.cpl_FM.bin',
(PID.TID 0000.0001) > &
(PID.TID 0000.0001) 
(PID.TID 0000.0001) S/R INI_PARMS ; starts to read PARM01
(PID.TID 0000.0001) S/R INI_PARMS ; read PARM01 : OK
(PID.TID 0000.0001) S/R INI_PARMS ; starts to read PARM02
(PID.TID 0000.0001) S/R INI_PARMS ; read PARM02 : OK
(PID.TID 0000.0001) S/R INI_PARMS ; starts to read PARM03
(PID.TID 0000.0001) S/R INI_PARMS ; read PARM03 : OK
(PID.TID 0000.0001) S/R INI_PARMS ; starts to read PARM04
(PID.TID 0000.0001) S/R INI_PARMS ; read PARM04 : OK
(PID.TID 0000.0001) S/R INI_PARMS ; starts to read PARM05
(PID.TID 0000.0001) S/R INI_PARMS ; read PARM05 : OK
(PID.TID 0000.0001)  PACKAGES_BOOT: opening data.pkg
(PID.TID 0000.0001)  OPEN_COPY_DATA_FILE: opening file data.pkg
(PID.TID 0000.0001) // =======================================================
(PID.TID 0000.0001) // Parameter file "data.pkg"
(PID.TID 0000.0001) // =======================================================
(PID.TID 0000.0001) ># Packages
(PID.TID 0000.0001) >#     useAIM  :: use Atmospheric Intermediate complexity Model
(PID.TID 0000.0001) >#     useLand :: use (simple) Land package to compute surf. BC over land
(PID.TID 0000.0001) >#   useThSIce :: use Therm. SeaIce package (+slab ocean)
(PID.TID 0000.0001) > &PACKAGES
(PID.TID 0000.0001) > useAIM=.TRUE.,
(PID.TID 0000.0001) > useLand=.TRUE.,
(PID.TID 0000.0001) > useThSIce=.TRUE.,
(PID.TID 0000.0001) > useSHAP_FILT=.TRUE.,
(PID.TID 0000.0001) >#useMNC=.TRUE.,
(PID.TID 0000.0001) > &
(PID.TID 0000.0001) 
(PID.TID 0000.0001)  PACKAGES_BOOT: finished reading data.pkg
(PID.TID 0000.0001)  SHAP_FILT_READPARMS: opening data.shap
(PID.TID 0000.0001)  OPEN_COPY_DATA_FILE: opening file data.shap
(PID.TID 0000.0001) // =======================================================
(PID.TID 0000.0001) // Parameter file "data.shap"
(PID.TID 0000.0001) // =======================================================
(PID.TID 0000.0001) ># Shapiro Filter parameters
(PID.TID 0000.0001) > &SHAP_PARM01
(PID.TID 0000.0001) > shap_filt_uvStar=.FALSE.,
(PID.TID 0000.0001) > shap_filt_TrStagg=.TRUE.,
(PID.TID 0000.0001) > Shap_funct=2,
(PID.TID 0000.0001) > nShapT=4,
(PID.TID 0000.0001) > nShapUV=4,
(PID.TID 0000.0001) > nShapTrPhys=1,
(PID.TID 0000.0001) > nShapUVPhys=0,
(PID.TID 0000.0001) > Shap_TrLength=140000.,
(PID.TID 0000.0001) >#Shap_uvLength=140000.,
(PID.TID 0000.0001) > Shap_Trtau=5400.,
(PID.TID 0000.0001) > Shap_uvtau=1800.,
(PID.TID 0000.0001) >#Shap_diagFreq=2592000.,
(PID.TID 0000.0001) > &
(PID.TID 0000.0001) 
(PID.TID 0000.0001)  SHAP_FILT_READPARMS: finished reading data.shap
(PID.TID 0000.0001) Shap_funct =   /* select Shapiro filter function */
(PID.TID 0000.0001)                       2
(PID.TID 0000.0001)     ;
(PID.TID 0000.0001) nShapT =   /* power of Shapiro filter for Temperat */
(PID.TID 0000.0001)                       4
(PID.TID 0000.0001)     ;
(PID.TID 0000.0001) nShapS =   /* power of Shapiro filter for Salinity */
(PID.TID 0000.0001)                       4
(PID.TID 0000.0001)     ;
(PID.TID 0000.0001) nShapUV =   /* power of Shapiro filter for momentum */
(PID.TID 0000.0001)                       4
(PID.TID 0000.0001)     ;
(PID.TID 0000.0001) shap_filt_uvStar = /* apply filter before Press. Solver */
(PID.TID 0000.0001)                   F
(PID.TID 0000.0001)     ;
(PID.TID 0000.0001) shap_filt_TrStagg = /* filter T,S before calc PhiHyd (staggerTimeStep) */
(PID.TID 0000.0001)                   T
(PID.TID 0000.0001)     ;
(PID.TID 0000.0001) Shap_alwaysExchUV = /* always exch(U,V)    nShapUV times*/
(PID.TID 0000.0001)                   T
(PID.TID 0000.0001)     ;
(PID.TID 0000.0001) Shap_alwaysExchTr = /* always exch(Tracer) nShapTr times*/
(PID.TID 0000.0001)                   F
(PID.TID 0000.0001)     ;
(PID.TID 0000.0001) nShapTrPhys =   /* power of physical-space filter (Tracer) */
(PID.TID 0000.0001)                       1
(PID.TID 0000.0001)     ;
(PID.TID 0000.0001) nShapUVPhys =   /* power of physical-space filter (Momentum) */
(PID.TID 0000.0001)                       0
(PID.TID 0000.0001)     ;
(PID.TID 0000.0001) Shap_Trtau =   /* time scale of Shapiro filter (Tracer) */
(PID.TID 0000.0001)                 5.400000000000000E+03
(PID.TID 0000.0001)     ;
(PID.TID 0000.0001) Shap_TrLength =   /* Length scale of Shapiro filter (Tracer) */
(PID.TID 0000.0001)                 1.400000000000000E+05
(PID.TID 0000.0001)     ;
(PID.TID 0000.0001) Shap_uvtau =   /* time scale of Shapiro filter (Momentum) */
(PID.TID 0000.0001)                 1.800000000000000E+03
(PID.TID 0000.0001)     ;
(PID.TID 0000.0001) Shap_uvLength =   /* Length scale of Shapiro filter (Momentum) */
(PID.TID 0000.0001)                 0.000000000000000E+00
(PID.TID 0000.0001)     ;
(PID.TID 0000.0001) Shap_noSlip =  /* No-slip parameter (0=Free-slip ; 1=No-slip)*/
(PID.TID 0000.0001)                 0.000000000000000E+00
(PID.TID 0000.0001)     ;
(PID.TID 0000.0001) Shap_diagFreq =   /* Frequency^-1 for diagnostic output (s)*/
(PID.TID 0000.0001)                 0.000000000000000E+00
(PID.TID 0000.0001)     ;
(PID.TID 0000.0001)  THSICE_READPARMS: opening data.ice
(PID.TID 0000.0001)  OPEN_COPY_DATA_FILE: opening file data.ice
(PID.TID 0000.0001) // =======================================================
(PID.TID 0000.0001) // Parameter file "data.ice"
(PID.TID 0000.0001) // =======================================================
(PID.TID 0000.0001) > &THSICE_CONST
(PID.TID 0000.0001) > Tf0kel  = 273.15,
(PID.TID 0000.0001) > rhosw   = 1030.,
(PID.TID 0000.0001) >#- with LANL albedo:
(PID.TID 0000.0001) >#albWarmSnow=0.75,
(PID.TID 0000.0001) >#- for full ice-fraction :
(PID.TID 0000.0001) >#icemaskmin = 1.,
(PID.TID 0000.0001) >#himin0     = 0.01,
(PID.TID 0000.0001) >#frac_energy= 0.,
(PID.TID 0000.0001) >#hihig      =100.,
(PID.TID 0000.0001) >#- with fractional ice:
(PID.TID 0000.0001) > iceMaskmin = 0.01,
(PID.TID 0000.0001) > himin0     = 0.1,
(PID.TID 0000.0001) > hiMax      = 10.,
(PID.TID 0000.0001) > hsMax      = 10.,
(PID.TID 0000.0001) >#albIceMax  =0.7,
(PID.TID 0000.0001) >#albIceMin  =0.7,
(PID.TID 0000.0001) > &
(PID.TID 0000.0001) >
(PID.TID 0000.0001) > &THSICE_PARM01
(PID.TID 0000.0001) >#startIceModel=1,
(PID.TID 0000.0001) >#stepFwd_oceMxL=.TRUE.,
(PID.TID 0000.0001) > ocean_deltaT=3600.,
(PID.TID 0000.0001) >#tauRelax_MxL=5184000.,
(PID.TID 0000.0001) > stressReduction=0.,
(PID.TID 0000.0001) >#thSIce_taveFreq=2592000.,
(PID.TID 0000.0001) > thSIce_diagFreq=5184000.,
(PID.TID 0000.0001) >#thSIce_monFreq=864000.,
(PID.TID 0000.0001) >#thSIce_diagFreq=0.,
(PID.TID 0000.0001) > &
(PID.TID 0000.0001) >
(PID.TID 0000.0001) 
(PID.TID 0000.0001)  THSICE_READPARMS: read THSICE_CONST
(PID.TID 0000.0001)  THSICE_READPARMS: read THSICE_PARM01
 ThSI: rhos    =   330.000000000000     
 ThSI: rhoi    =   900.000000000000     
 ThSI: rhosw   =   1030.00000000000     
 ThSI: rhofw   =   1000.00000000000     
 ThSI: rhoiw   =   130.000000000000     
 ThSI: cpice   =   2106.00000000000     
 ThSI: cpwater =   3994.00000000000     
 ThSI: kice    =   2.03000000000000     
 ThSI: ksnow   =  0.300000000000000     
 ThSI: transcoef=  6.000000000000000E-003
 ThSI: Lfresh  =   334000.000000000     
 ThSI: qsnow   =   334000.000000000     
 ThSI: albColdSnow=  0.850000000000000     
 ThSI: albWarmSnow=  0.700000000000000     
 ThSI: tempSnowAlb=  -10.0000000000000     
 ThSI: albOldSnow =  0.550000000000000     
 ThSI: hNewSnowAge=  2.000000000000000E-003
 ThSI: snowAgTime =   4320000.00000000     
 ThSI: albIceMax =  0.650000000000000     
 ThSI: albIceMin =  0.200000000000000     
 ThSI: hAlbIce   =  0.500000000000000     
 ThSI: hAlbSnow  =  0.300000000000000     
 ThSI: i0      =  0.300000000000000     
 ThSI: ksolar  =   1.50000000000000     
 ThSI: saltice =   4.00000000000000     
 ThSI: S_winton=   1.00000000000000     
 ThSI: mu_Tf   =  5.400000000000000E-002
 ThSI: Tf0kel  =   273.150000000000     
 ThSI: Tmlt1   = -5.400000000000000E-002
 ThSI: himin   =  1.000000000000000E-002
 ThSI: Terrmax =  0.500000000000000     
 ThSI: nitMaxTsf=          20
 ThSI: hiMax   =   10.0000000000000     
 ThSI: hsMax   =   10.0000000000000     
 ThSI: iceMaskmax=   1.00000000000000     
 ThSI: iceMaskmin=  1.000000000000000E-002
 ThSI: himin0  =  0.100000000000000     
 ThSI: frac_energy  0.400000000000000     
 ThSI: hihig   =   2.50000000000000     
 ThSI: stressReduction =  0.000000000000000E+000
 ThSI: thSIce_deltaT =   450.000000000000     
 ThSI: ocean_deltaT  =   3600.00000000000     
 ThSI: stepFwd_oceMxL= F
 ThSI: tauRelax_MxL  =  0.000000000000000E+000
 ThSI: hMxL_default  =   50.0000000000000     
 ThSI: sMxL_default  =   35.0000000000000     
 ThSI: vMxL_default  =  5.000000000000000E-002
 ThSI: thSIce_taveFreq=   2592000.00000000     
 ThSI: thSIce_diagFreq=   5184000.00000000     
 ThSI: thSIce_monFreq =   1.00000000000000     
 ThSI: startIceModel =           0
(PID.TID 0000.0001)  CPL_READPARMS: opening data.cpl
(PID.TID 0000.0001)  OPEN_COPY_DATA_FILE: opening file data.cpl
(PID.TID 0000.0001) // =======================================================
(PID.TID 0000.0001) // Parameter file "data.cpl"
(PID.TID 0000.0001) // =======================================================
(PID.TID 0000.0001) ># Coupling package parameters, ATM component:
(PID.TID 0000.0001) ># cpl_earlyExpImpCall :: call coupler early in the time stepping call sequence
(PID.TID 0000.0001) >#     cpl_oldPickup  :: restart from an old pickup (= until ckpt 52m_post)
(PID.TID 0000.0001) >#     useImportMxlD  :: True => use Imported Mix.Layer Detph from coupler
(PID.TID 0000.0001) >#     useImportSST   :: True => use the Imported SST from coupler
(PID.TID 0000.0001) >#     useImportSSS   :: True => use the Imported SSS from coupler
(PID.TID 0000.0001) >#     useImportVsq   :: True => use the Imported Surf. velocity^2
(PID.TID 0000.0001) >#     cpl_atmSendFrq :: Frequency^-1 for sending data to coupler (s)
(PID.TID 0000.0001) > &CPL_ATM_PARAM
(PID.TID 0000.0001) ># cpl_earlyExpImpCall=.FALSE.,
(PID.TID 0000.0001) ># cpl_oldPickup=.TRUE.,
(PID.TID 0000.0001) ># useImportMxlD=.FALSE.,
(PID.TID 0000.0001) ># useImportSST =.FALSE.,
(PID.TID 0000.0001) ># useImportSSS =.FALSE.,
(PID.TID 0000.0001) ># useImportVsq =.FALSE.,
(PID.TID 0000.0001) >  cpl_atmSendFrq=3600.,
(PID.TID 0000.0001) > &
(PID.TID 0000.0001) >
(PID.TID 0000.0001) 
(PID.TID 0000.0001)  CPL_READPARMS: finished reading data.cpl
(PID.TID 0000.0001) 
(PID.TID 0000.0001) // ===================================
(PID.TID 0000.0001) // Coupling package parameters :
(PID.TID 0000.0001) // ===================================
(PID.TID 0000.0001) cpl_earlyExpImpCall= /* call coupler early in the time-stepping */
(PID.TID 0000.0001)                   T
(PID.TID 0000.0001)     ;
(PID.TID 0000.0001) cpl_oldPickup = /* restart from old pickup on/off flag */
(PID.TID 0000.0001)                   F
(PID.TID 0000.0001)     ;
(PID.TID 0000.0001) useImportMxlD = /* use Imported MxL. Depth from Coupler flag */
(PID.TID 0000.0001)                   T
(PID.TID 0000.0001)     ;
(PID.TID 0000.0001) useImportSST = /* use Imported SST from Coupler on/off flag */
(PID.TID 0000.0001)                   T
(PID.TID 0000.0001)     ;
(PID.TID 0000.0001) useImportSSS = /* use Imported SSS from Coupler on/off flag */
(PID.TID 0000.0001)                   T
(PID.TID 0000.0001)     ;
(PID.TID 0000.0001) useImportVsq = /* use Imported surf.Vel^2 from Coupler flag */
(PID.TID 0000.0001)                   T
(PID.TID 0000.0001)     ;
(PID.TID 0000.0001) cpl_atmSendFrq = /* Frequency^o-1 for sending data to Coupler (s) */
(PID.TID 0000.0001)                 3.600000000000000E+03
(PID.TID 0000.0001)     ;
(PID.TID 0000.0001) cplSendFrq_iter =   /* send data to coupler every "cplSendFrq" iter */
(PID.TID 0000.0001)                       8
(PID.TID 0000.0001)     ;
(PID.TID 0000.0001) SET_PARMS: done
(PID.TID 0000.0001) Enter INI_VERTICAL_GRID: setInterFDr=    T ; setCenterDr=    F
(PID.TID 0000.0001) tile:   1 ; Read from file grid_cs32.face001.bin
(PID.TID 0000.0001)   => xC yC dxF dyF rA xG yG dxV dyU rAz dxC dyC rAw rAs dxG dyG AngleCS AngleSN
(PID.TID 0000.0001) tile:   2 ; Read from file grid_cs32.face002.bin
(PID.TID 0000.0001)   => xC yC dxF dyF rA xG yG dxV dyU rAz dxC dyC rAw rAs dxG dyG AngleCS AngleSN
(PID.TID 0000.0001) tile:   3 ; Read from file grid_cs32.face003.bin
(PID.TID 0000.0001)   => xC yC dxF dyF rA xG yG dxV dyU rAz dxC dyC rAw rAs dxG dyG AngleCS AngleSN
(PID.TID 0000.0001) tile:   4 ; Read from file grid_cs32.face004.bin
(PID.TID 0000.0001)   => xC yC dxF dyF rA xG yG dxV dyU rAz dxC dyC rAw rAs dxG dyG AngleCS AngleSN
(PID.TID 0000.0001) tile:   5 ; Read from file grid_cs32.face005.bin
(PID.TID 0000.0001)   => xC yC dxF dyF rA xG yG dxV dyU rAz dxC dyC rAw rAs dxG dyG AngleCS AngleSN
(PID.TID 0000.0001) tile:   6 ; Read from file grid_cs32.face006.bin
(PID.TID 0000.0001)   => xC yC dxF dyF rA xG yG dxV dyU rAz dxC dyC rAw rAs dxG dyG AngleCS AngleSN
(PID.TID 0000.0001) %MON XC_max                       =   1.7854351589505E+02
(PID.TID 0000.0001) %MON XC_min                       =  -1.7854351589505E+02
(PID.TID 0000.0001) %MON XC_mean                      =  -4.6999441375798E-15
(PID.TID 0000.0001) %MON XC_sd                        =   1.0355545336287E+02
(PID.TID 0000.0001) %MON XG_max                       =   1.8000000000000E+02
(PID.TID 0000.0001) %MON XG_min                       =  -1.7708797161002E+02
(PID.TID 0000.0001) %MON XG_mean                      =   1.8796250616675E+00
(PID.TID 0000.0001) %MON XG_sd                        =   1.0410625309932E+02
(PID.TID 0000.0001) %MON DXC_max                      =   3.2375185836900E+05
(PID.TID 0000.0001) %MON DXC_min                      =   1.1142031410131E+05
(PID.TID 0000.0001) %MON DXC_mean                     =   2.8605689051214E+05
(PID.TID 0000.0001) %MON DXC_sd                       =   3.4042087138252E+04
(PID.TID 0000.0001) %MON DXF_max                      =   3.2369947500827E+05
(PID.TID 0000.0001) %MON DXF_min                      =   1.2020820513318E+05
(PID.TID 0000.0001) %MON DXF_mean                     =   2.8605437324820E+05
(PID.TID 0000.0001) %MON DXF_sd                       =   3.4050524252539E+04
(PID.TID 0000.0001) %MON DXG_max                      =   3.2375195872773E+05
(PID.TID 0000.0001) %MON DXG_min                      =   1.0098378008791E+05
(PID.TID 0000.0001) %MON DXG_mean                     =   2.8603818508931E+05
(PID.TID 0000.0001) %MON DXG_sd                       =   3.4140406908005E+04
(PID.TID 0000.0001) %MON DXV_max                      =   3.2380418162750E+05
(PID.TID 0000.0001) %MON DXV_min                      =   8.0152299824136E+04
(PID.TID 0000.0001) %MON DXV_mean                     =   2.8603970633619E+05
(PID.TID 0000.0001) %MON DXV_sd                       =   3.4145142117723E+04
(PID.TID 0000.0001) %MON YC_max                       =   8.7940663871962E+01
(PID.TID 0000.0001) %MON YC_min                       =  -8.7940663871962E+01
(PID.TID 0000.0001) %MON YC_mean                      =   0.0000000000000E+00
(PID.TID 0000.0001) %MON YC_sd                        =   3.8676242969072E+01
(PID.TID 0000.0001) %MON YG_max                       =   9.0000000000000E+01
(PID.TID 0000.0001) %MON YG_min                       =  -9.0000000000000E+01
(PID.TID 0000.0001) %MON YG_mean                      =  -1.2094344438470E-15
(PID.TID 0000.0001) %MON YG_sd                        =   3.9086186579984E+01
(PID.TID 0000.0001) %MON DYC_max                      =   3.2375185836900E+05
(PID.TID 0000.0001) %MON DYC_min                      =   1.1142031410131E+05
(PID.TID 0000.0001) %MON DYC_mean                     =   2.8605689051214E+05
(PID.TID 0000.0001) %MON DYC_sd                       =   3.4042087138252E+04
(PID.TID 0000.0001) %MON DYF_max                      =   3.2369947500827E+05
(PID.TID 0000.0001) %MON DYF_min                      =   1.2020820513318E+05
(PID.TID 0000.0001) %MON DYF_mean                     =   2.8605437324820E+05
(PID.TID 0000.0001) %MON DYF_sd                       =   3.4050524252539E+04
(PID.TID 0000.0001) %MON DYG_max                      =   3.2375195872773E+05
(PID.TID 0000.0001) %MON DYG_min                      =   1.0098378008791E+05
(PID.TID 0000.0001) %MON DYG_mean                     =   2.8603818508931E+05
(PID.TID 0000.0001) %MON DYG_sd                       =   3.4140406908005E+04
(PID.TID 0000.0001) %MON DYU_max                      =   3.2380418162750E+05
(PID.TID 0000.0001) %MON DYU_min                      =   8.0152299824136E+04
(PID.TID 0000.0001) %MON DYU_mean                     =   2.8603970633619E+05
(PID.TID 0000.0001) %MON DYU_sd                       =   3.4145142117723E+04
(PID.TID 0000.0001) %MON RA_max                       =   1.0479260248419E+11
(PID.TID 0000.0001) %MON RA_min                       =   1.4019007022556E+10
(PID.TID 0000.0001) %MON RA_mean                      =   8.2992246709265E+10
(PID.TID 0000.0001) %MON RA_sd                        =   1.7509089299457E+10
(PID.TID 0000.0001) %MON RAW_max                      =   1.0480965274559E+11
(PID.TID 0000.0001) %MON RAW_min                      =   1.2166903467143E+10
(PID.TID 0000.0001) %MON RAW_mean                     =   8.2992246709235E+10
(PID.TID 0000.0001) %MON RAW_sd                       =   1.7481917919656E+10
(PID.TID 0000.0001) %MON RAS_max                      =   1.0480965274559E+11
(PID.TID 0000.0001) %MON RAS_min                      =   1.2166903467143E+10
(PID.TID 0000.0001) %MON RAS_mean                     =   8.2992246709235E+10
(PID.TID 0000.0001) %MON RAS_sd                       =   1.7481917919656E+10
(PID.TID 0000.0001) %MON RAZ_max                      =   1.0484349334619E+11
(PID.TID 0000.0001) %MON RAZ_min                      =   8.8317900612505E+09
(PID.TID 0000.0001) %MON RAZ_mean                     =   8.2992246709235E+10
(PID.TID 0000.0001) %MON RAZ_sd                       =   1.7482297311044E+10
(PID.TID 0000.0001) %MON AngleCS_max                  =   9.9999994756719E-01
(PID.TID 0000.0001) %MON AngleCS_min                  =  -9.9968286884824E-01
(PID.TID 0000.0001) %MON AngleCS_mean                 =   3.3078850405987E-01
(PID.TID 0000.0001) %MON AngleCS_sd                   =   6.2496317138039E-01
(PID.TID 0000.0001) %MON AngleSN_max                  =   9.9968286884824E-01
(PID.TID 0000.0001) %MON AngleSN_min                  =  -9.9999994756719E-01
(PID.TID 0000.0001) %MON AngleSN_mean                 =  -3.3078850405987E-01
(PID.TID 0000.0001) %MON AngleSN_sd                   =   6.2496317138039E-01
(PID.TID 0000.0001) 
(PID.TID 0000.0001) INI_PHIREF: PhiRef/g [m] at level Center (integer)
(PID.TID 0000.0001)                      and at level Interface (half-int.) :
(PID.TID 0000.0001)  K=  0.5  ;  r=  100000.0  ;  phiRef/g=       0.000
(PID.TID 0000.0001)  K=  1.0  ;  r=   95000.0  ;  phiRef/g=     431.199
(PID.TID 0000.0001)  K=  1.5  ;  r=   90000.0  ;  phiRef/g=    1256.487
(PID.TID 0000.0001)  K=  2.0  ;  r=   77500.0  ;  phiRef/g=    2105.998
(PID.TID 0000.0001)  K=  2.5  ;  r=   65000.0  ;  phiRef/g=    3775.246
(PID.TID 0000.0001)  K=  3.0  ;  r=   50000.0  ;  phiRef/g=    5536.327
(PID.TID 0000.0001)  K=  3.5  ;  r=   35000.0  ;  phiRef/g=    7908.298
(PID.TID 0000.0001)  K=  4.0  ;  r=   25000.0  ;  phiRef/g=   10440.915
(PID.TID 0000.0001)  K=  4.5  ;  r=   15000.0  ;  phiRef/g=   13806.721
(PID.TID 0000.0001)  K=  5.0  ;  r=    7500.0  ;  phiRef/g=   18190.889
(PID.TID 0000.0001)  K=  5.5  ;  r=       0.0  ;  phiRef/g=   39547.504
(PID.TID 0000.0001)  MDS_READ_FIELD: opening global file: topo.cpl_FM.bin
(PID.TID 0000.0001) // =======================================================
(PID.TID 0000.0001) // Field Model R_low (ini_masks_etc) at iteration          1
(PID.TID 0000.0001) // CMIN =          1.000000000000000E+32
(PID.TID 0000.0001) // CMAX =         -1.000000000000000E+32
(PID.TID 0000.0001) // CINT =          0.000000000000000E+00
(PID.TID 0000.0001) // SYMBOLS (CMIN->CMAX): -abcdefghijklmnopqrstuvwxyz+
(PID.TID 0000.0001) //                  0.0: .
(PID.TID 0000.0001) // RANGE I (Lo:Hi:Step):(  -1: 194:   1)
(PID.TID 0000.0001) // RANGE J (Lo:Hi:Step):(  34:  -1:  -1)
(PID.TID 0000.0001) // RANGE K (Lo:Hi:Step):(   1:   1:   1)
(PID.TID 0000.0001) // =======================================================
(PID.TID 0000.0001) // =======================================================
(PID.TID 0000.0001) // END OF FIELD                                          =
(PID.TID 0000.0001) // =======================================================
(PID.TID 0000.0001) 
(PID.TID 0000.0001) // =======================================================
(PID.TID 0000.0001) // Field Model Ro_surf (ini_masks_etc) at iteration          1
(PID.TID 0000.0001) // CMIN =          4.905667583685931E+04
(PID.TID 0000.0001) // CMAX =          1.000000000000000E+05
(PID.TID 0000.0001) // CINT =          1.886789783820026E+03
(PID.TID 0000.0001) // SYMBOLS (CMIN->CMAX): -abcdefghijklmnopqrstuvwxyz+
(PID.TID 0000.0001) //                  0.0: .
(PID.TID 0000.0001) // RANGE I (Lo:Hi:Step):(  -1: 194:   1)
(PID.TID 0000.0001) // RANGE J (Lo:Hi:Step):(  34:  -1:  -1)
(PID.TID 0000.0001) // RANGE K (Lo:Hi:Step):(   1:   1:   1)
(PID.TID 0000.0001) // =======================================================
(PID.TID 0000.0001) K =   1
(PID.TID 0000.0001) //                I=8       I=18      I=28      I=34      I=44      I=54      I=64      I=70      I=80      I=90      I=96      I=106     I=116     I=126     I=132     I=142     I=152     I=162     I=168     I=178     I=188
(PID.TID 0000.0001) // |--J--|101234567|901234567|901234567|901234123|567890123|567890123|567890123|563456789|123456789|123456789|123456785|789012345|789012345|789012345|789078901|345678901|345678901|345678901|901234567|901234567|901234567|901234
(PID.TID 0000.0001) //     34 ++++++++++++++++++zxwwwwwy++++nmnounnounny+zzzzzxxwwrnmmmqsuvvxxw+++++++++++++++++++++xxyzyxwtmlnnoy+++++++++++++++++++++++++++++++++++++++++++++++++++++++++++++++yxxwwxy++++++++++++++++++++++++++++++++++++++++++++++
(PID.TID 0000.0001) //     33 ++++++++++++++++++wttvwww++ywqstuuuouuuooy+yyzzyxwwqoomlmqtvutwyy++++++++++++++++++++xxxyyyxwunmnopx+++++++++++++++++++++++++++++++++++++++++++++++++++++++++++++++zyxwwwwy+++++++++++++++++++++++++++++++++++++++++++++
(PID.TID 0000.0001) //     32 ++++++++++++++++++wy+y+ww+xsrtwxyxvoyxvonrywwzywommlmpppqtttsuy++yy++yyy++++++++++++yxxyyxxxxvqmnpqw+++++++++++++++++++++++++++++++++++++++++++++++++++++++++++++++zyxwwwww+++++++++++++++++++++++++++++++++++++++++++++
(PID.TID 0000.0001) //     31 ++++++++++++++++wv++++++y+yxywxxyywqyywqnotsswwphglqttrnnqssswz++++++++++++++++++++zxxxyyxxyxwuport++++++++++++++++++++++++++++++++++++++++++++++++++++++++++++++++zyyxwwwww++++++++++++++++++++++++++++++++++++++++++++
(PID.TID 0000.0001) //     30 ++++++++++++++++w+++++++++++++wwxzyuxzyumnstsspmfdhmlhgfekosuxz+++++++++++++++++++++xxxyzyyyxwwsptx+++++++++++++++++++++++++++++++++++++++++++++++++++++++++++++zzzzyyxxwxxwwy++++++++++++++++++++++++++++++++++++++++++
(PID.TID 0000.0001) //     29 ++++++++++++++++++wwx+++++++++wwxyzxxyzxrnosspllkeabbaabdhmsvyzz++++++++++++++++++zxwwx++zyyxxwtps++++++++++++++++++++++++++++++++++++++++++++++++++++++++++++++yyzzyxxxxxxxxxz+++++++++++++++++++++++++++++++++++++++++
(PID.TID 0000.0001) //     28 +++++++++++++++xsvwxxxy+zzzzywwwwxyzwxyzypnorqnrwnc--aaabelsvxyx++++++++++++++++++zxxxx+++zyxxwvpr++++++++++++++++++++++++++++++++++++++++++++++++++++++++++++++yyzzyyxxyyyyyyzz++++++++++++++++++++++++++++++++++++++++
(PID.TID 0000.0001) //     27 +++++++++++++++vvwxxxxxxzzzyxwwvvwxyvwxyz+++trrwzwkdabccbenvwxxw++++++++++++++++++++xxyz++zyxxxwst+++++++++++++++++++++++++++++++++++++++++++++++++++++++++++++ywyz+zyxxyzz++zzz++++++++++++++++++++++++++++++++++++++++
(PID.TID 0000.0001) //     26 ++++++++++++++yxxyxwwwwxyyxxyxyyvwwxvwwxz++++yyyyyxvnmmmhhnuwxxy++++++++++++++++++++++++++zyxxxwss++++++++++++++++++++++++++++++++++++++++++++++++++++++++++++ywwx++zyyyxxxz++++z+++z+++++++++++++++++++++++++++++++++++
(PID.TID 0000.0001) //     25 +++++++++++++yyyyyxvuvwwwxwxyxy+vvwxvvwxzzx++++zxxxyxywwqorwxyy+++++++++++++++++++++++x++yyyxxxwss++++++++++++++++++++++++++++++++++++++++++++++++++++++++++++ywvwz+zzzwmkmrwyyzz+++z+++++++++++++++++++++++++++++++++++
(PID.TID 0000.0001) //     24 +++++++++++++yyyyyxwwwwstwwxyxy+wswxwswxyzz+++++xxxxy++xutvx++++++++++++++++++++++++++xx+yyzyxxvst++++++++++++++++++++++++++++++++++++++++++++++++++++++++++++ywxz++zzukgfghkqvxzz++zz++++++++++++++++++++++++++++++++++
(PID.TID 0000.0001) //     23 +++++++++++++zyyyyxxwwxxwwwxxxw++pvw+pvwxz++++++yxxy+++ywwwx+++++++++++++++++++++++oq+++xxzzyyxvsr++++++++++++++++++++++++++++++++++++++++++++++z+++++++++++++trwy+++wher+yumhkrwxy+wxy+++++++++++++++ww++++++++++++++++
(PID.TID 0000.0001) //     22 +++++++++++++zyyyyxyxxyyxwwwxxvr++wy++wy++++++++yxy+++++yxxw+++++++++++++++++++++++vlr+++x++zzywusw+++++++++++++++++++++++++++++++++++++++++++++xy++++++++++++wpqvy+xrht++++++xuuvwwuvww+++++++++++++lhhknw+++++++++++++
(PID.TID 0000.0001) //     21 +++++++++++++yxxyyyyxxyyxwwwxxrnv+++v++++++++++++yy++++++zyxy++++++++++++++++++++++vkkn++++++++xuutw++++++++++++++++++++++++++++++++++++++++++++xxx++++++++++++ywqsuop++++++++++++wu++wuwy++++++++++pkhghkklw+++++++++++
(PID.TID 0000.0001) //     20 +++++++++++++yxxyyyxxwxxxwwxxxpmqvwxqvwx+++++++++y++++++++++++++++++++++++++++++++++khknwt++++++wwwx++++++++++++++++++++++++++++++++++++++++++++xxxxxz++++++++++++wuw+++++++++++++++++++++++++x+++++okhhhhklr+++++++++++
(PID.TID 0000.0001) //     19 ++++++++++++++yyyyyyxwwwxwwxxwrnqwxyqwxy+++++++++++++++++y+++++++++++++++++++++++x++qlkmxx++++++xyy+++++++++++++++++++++++++++++++++++++++++++++yyxxwxz+++++++y++++++++++++++++++++++++++++++++ws++xqkhgghlow+++++++++++
(PID.TID 0000.0001) //     18 +++++++++++++++++++++wwxxxxwwwutwxz+wxz+++++++++++++++++yy++++yy++++++++w++++z++++++++rs++++++++++++++++++++++++++++++++++++++++++++++++++++++++yyyyxxz++++++y++++++++++++++++++++++++++++++++++xv+xqlhgfghkr+++++++++++
(PID.TID 0000.0001) //     17 +++++++++++++++++++++yxxyyxwturuy+++y++++++++++++++++++++yy++ywy++++++++v+++zy++++++++++++++++++++y+++++++++++++++++++++++++++++++++++++++++++++xxyzzyz++++zw+++++++++++++++++++++++++++++++++++xuwupkhgffghkq++++++++++
(PID.TID 0000.0001) //     16 +++++++++++++++++++++zxxxxxvrtqtz+++z+++++++++++++++++++++y++yy++++++z+++wwzz++++++++++++++++++++xxy++++++++++++++++++++++++++++++++++++++++++++xxyyyzz++++yw+++++++++++++++++++++++++++++++++++xsonnkhhggghho++++++++++
(PID.TID 0000.0001) //     15 zzzy++++++++++++++++++yxxxxvsusv+++++++++++++++++++++++++++z++++++++++yw+ytxy++xw++++++++++++++++wwx++++++++++++++++++++++++++++++++++++++++y+++yxxxxyz++++y+++++++++++++++++++++++++++++++++++++uoqsvkkhhhhkp++++++++++
(PID.TID 0000.0001) //     14 yyyxxy++++++++++++++++ywwwwvtttw++++++++++++++++++++++++++++++++++++++++++twxzzxwwwx++++++++++++zxwx+++++++++++++++++++++++++++++++++++++++++yy+xxwwxxxyz++v+++++++++++++++++++++++++++++++++++++woux+xmkhhklv++++++++++
(PID.TID 0000.0001) //     13 yxxxx++++++++++++++++++vvvvutsux+++++++++++++++++++++++++++++++++++++++++yvwxz++zzyy+++++++++++zyxwxx+++++++++++++++++++++++++++++++++++++++++++wvuttvwwvqot++++++++++++++++++++++++++++++++++++++vwy++plkkko+++++++++++
(PID.TID 0000.0001) //     12 xwwwy+++++++++++++++++xsuvuuuuwx++++++++++++++++++++++++++++++++++++++++++wwxzzzzzyy+++++++z+++xwwv++x++++++++++++++++++++++++++++++++++++++++++uqnmlossqoq++++++++++++++++++++++++++++++++++++++++++++qlkklw+++++++++++
(PID.TID 0000.0001) //     11 wwww++++++++++++++++++wtvvvvvvwy+++y+++y++++++++++++++++++++++++++zzzz+++wwwxyzzzzzz+++++zzyzywvtrv+++++++++++++++++++++++++++++++++++++++++++++pmmllnqpqw+++++++++++++++++++++++++++++++++++++++++++++qmmmq++++++++++++
(PID.TID 0000.0001) //     10 wwwx++++++++++++++++++xuvwwvuwy+++xw++xw+++++++++++++++++++++++++zyyyyzzywwwxyzzzzzzzzy++zxxxywvtsx+++++++++++++++++++++++++++++++++++++++++++++onnnoquw++++++++++++++++++++++++++++++++++++++++++++++++ww++++++++++++++
(PID.TID 0000.0001) //      9 wwwy+++++++++++++++++++tuvwvvw++++w+++w+++++++++++++++++++++++++zzyxyyyy+++yzzzzzzzzyxxzzywwxxyxxwx+++++++++++++++++++++++++++++++++++++++++++++rponrwy+++++++++++++++++++++++++++++++++++++++++++++++++++++++++++++++++
(PID.TID 0000.0001) //      8 wwy++++++++++++++++++++tuvvvwy++++x+++x+++++++++++++++++++++++yxxyxxxxyyyx+++zzzzzzyxyz+zzwwxxyxxwwxy+++++++++++++++++++++++++++++++++++++++++++tqposx++++++++++++++++++++++++++++++++++++++++++++++++++++++++++++++++++
(PID.TID 0000.0001) //      7 w++++++++++++++++++++++wvvusuz++++y+++y+++++++++++++++++++++++yxxxxxxxyzxsy++zzzzzzyyzzzzzxxxxwwwvvvxx+++++++++++++++++++++++++++++++++yxxxyy++++wxyy+++++++++++++++++++++++++++++++++++++++++++++++++++++++++++++++++++
(PID.TID 0000.0001) //      6 +++++++++++++++++++++++ywusqw+++++++++++++++++++++++++++++++++yxxxxxxxz+yrw++wzzzzyxyzzzzzxxxwuuwwxwxx++++++++++++++++++++++++++++++++zyyyyxxy++++++++++++++++++++++++++++++++++++++++++++++++++++++++++++++++++++++++++
(PID.TID 0000.0001) //      5 ++++++++++++++++++++++++vtrv++++++++++++++++++++++++++++++++++yxxyyyyyzzwtq++py++zyxzzzzzyxxxwsuwwxxxx+++++++++++++++++++++++++++++++yyxyzzzyy++++++++++++++++++++++++++++++++++++++++++++++++++++++++++++++++++++++++++
(PID.TID 0000.0001) //      4 ++++++++++++++++++++++++yyy+++++++++++++++++++++++++++++++++++yyyzzzzzzyxwsnnny++zyyyyzzywvtuvtvwwxxwx+++y+++y++++++++++++++++++w+++xxyyzzzzzz++++++++++++++++++++++++++++++++++++++++++++++++++++++++++++++++++++++++++
(PID.TID 0000.0001) //      3 +++++++++++++++++++++++++++++++++++++++++++++++++++++++++++++++++++++zzyxxtmnvz+zzzyxxxxwqpnotsuvwyxwy++++y+++y++++++++++++++++wv+++zyzzzzzyz+++++++++++++++++++++++++++++++++++++++++++++++++++++++++++++++++++++++++++
(PID.TID 0000.0001) //      2 ++++++++++++++++++++++++++++++++++++++++++++++++++++++++++++++++++++++zyyyunny+zzzzzxxwwrnmmmqsuvvxxw+++++y+++y++++++++++++++++w++++zyyz+zyyy+++++++++++++++++++++++++++++++++++++++++++++++++++++++++++++++++++++++++++
(PID.TID 0000.0001) //      1 ++++++++++++++++++++++++++++++++++++++++++++++++++++++++++++++++++++++++yxuooy+yyzzyxwwqoomlmqtvutwyy+++++y+++y++++++++++++++++y++++zyyyzzzzz+++++++++++++++++++++++++++++++++++++++++++++++++++++++++++y+++++++++++++++
(PID.TID 0000.0001) //      0 ++++++++++++++++++++++++++++++++++++++++++++++++++++++++++++++++++++++++wvvonrywwzywommlmpppqtttsuy++yy++yy++yy+++++++++++++++z++++zyyxxxyzz++++++++++++++++++++++++++++++++++++++++++++++++++++++++++++y+++++++yyz++++z
(PID.TID 0000.0001) //     -1 ++++++++++++++++++++++++++++++++++++++++++++++++++++++++++++++++++++++++qowqnotsswwphglqttrnnqssswz++++++++++++++++++++++++++++++++zyyxxxyz++++++++++++++++++++++++++++++++++++++++++++++++++++++++++++y+++++++yxyzzyz+y
(PID.TID 0000.0001) // =======================================================
(PID.TID 0000.0001) // END OF FIELD                                          =
(PID.TID 0000.0001) // =======================================================
(PID.TID 0000.0001) 
(PID.TID 0000.0001) // =======================================================
(PID.TID 0000.0001) // Field hFacC at iteration          1
(PID.TID 0000.0001) // CMIN =          2.000000000000000E-01
(PID.TID 0000.0001) // CMAX =          1.000000000000000E+00
(PID.TID 0000.0001) // CINT =          2.962962962962963E-02
(PID.TID 0000.0001) // SYMBOLS (CMIN->CMAX): -abcdefghijklmnopqrstuvwxyz+
(PID.TID 0000.0001) //                  0.0: .
(PID.TID 0000.0001) // RANGE I (Lo:Hi:Step):(  -1: 194:   1)
(PID.TID 0000.0001) // RANGE J (Lo:Hi:Step):(  34:  -1:  -1)
(PID.TID 0000.0001) // RANGE K (Lo:Hi:Step):(   1:   1:   1)
(PID.TID 0000.0001) // =======================================================
(PID.TID 0000.0001) K =   1
(PID.TID 0000.0001) //                I=8       I=18      I=28      I=34      I=44      I=54      I=64      I=70      I=80      I=90      I=96      I=106     I=116     I=126     I=132     I=142     I=152     I=162     I=168     I=178     I=188
(PID.TID 0000.0001) // |--J--|101234567|901234567|901234567|901234123|567890123|567890123|567890123|563456789|123456789|123456789|123456785|789012345|789012345|789012345|789078901|345678901|345678901|345678901|901234567|901234567|901234567|901234
(PID.TID 0000.0001) //     34 ++++++++++++++++++qe--bbap++++...........k+vtutskgc-..........hj-+++++++++++++++++++++hiorojd......k+++++++++++++++++++++++++++++++++++++++++++++++++++++++++++++++mgecdel++++++++++++++++++++++++++++++++++++++++++++++
(PID.TID 0000.0001) //     33 ++++++++++++++++++b...bac++k-............k+pqvspec-...........elk++++++++++++++++++++ihknomid......e+++++++++++++++++++++++++++++++++++++++++++++++++++++++++++++++tnhdc--l+++++++++++++++++++++++++++++++++++++++++++++
(PID.TID 0000.0001) //     32 ++++++++++++++++++ak+k+c-+e...bilg..lg....kaaro-..............k++kl++kkk++++++++++++mgillkije......d++++++++++++++++++++++++++++++++++++++++++++++++++++++++++++++ysnheba--+++++++++++++++++++++++++++++++++++++++++++++
(PID.TID 0000.0001) //     31 ++++++++++++++++-.++++++k+kfkdeipp-.pp-......db..............ar++++++++++++++++++++vkfilljikga.....+++++++++++++++++++++++++++++++++++++++++++++++++++++++++++++++yspmhbadcc++++++++++++++++++++++++++++++++++++++++++++
(PID.TID 0000.0001) //     30 ++++++++++++++++c+++++++++++++-citk.itk......................ju+++++++++++++++++++++hfipsnkmhc-...k+++++++++++++++++++++++++++++++++++++++++++++++++++++++++++++wuvrmlkgdhha-l++++++++++++++++++++++++++++++++++++++++++
(PID.TID 0000.0001) //     29 ++++++++++++++++++baf+++++++++-bfmvkfmvk.....................ouw++++++++++++++++++rkddi++tpoifa...++++++++++++++++++++++++++++++++++++++++++++++++++++++++++++++qoutnjjgfijgfhr+++++++++++++++++++++++++++++++++++++++++
(PID.TID 0000.0001) //     28 +++++++++++++++e..-fhjm+uuvtl---bfnwbfnwl.......-............kki++++++++++++++++++rjeej+++uoigc...++++++++++++++++++++++++++++++++++++++++++++++++++++++++++++++lovwolkjnpooqqrv++++++++++++++++++++++++++++++++++++++++
(PID.TID 0000.0001) //     27 +++++++++++++++..egiifekstspjd-..beo.beot+++...bta..........bjhd++++++++++++++++++++kint++xpige-..+++++++++++++++++++++++++++++++++++++++++++++++++++++++++++++ldmwytniiouwxxxvw++++++++++++++++++++++++++++++++++++++++
(PID.TID 0000.0001) //     26 ++++++++++++++kfimidbcdgkmiknill.-bj.-bjw++++llpmpe.........bfgl++++++++++++++++++++++++++vpjiga..++++++++++++++++++++++++++++++++++++++++++++++++++++++++++++m--iyzvnmnffiszxxxv+++v+++++++++++++++++++++++++++++++++++
(PID.TID 0000.0001) //     25 +++++++++++++qmmonf...b-agcgnil+..bj..bjutg++++vhhknhkc-...-ill+++++++++++++++++++++++j++qopkih-..++++++++++++++++++++++++++++++++++++++++++++++++++++++++++++l-.euzwtr-....dlpus+++s+++++++++++++++++++++++++++++++++++
(PID.TID 0000.0001) //     24 ++++++++++++xplmnng--a-..achmil+-.-i-.-inus+++++ighho++e...h++++++++++++++++++++++++++jh+pqslih...++++++++++++++++++++++++++++++++++++++++++++++++++++++++++++lbkrxxxu.........isw++sw++++++++++++++++++++++++++++++++++
(PID.TID 0000.0001) //     23 ++++++++++++ysnmmlhf-bifdcbgijc++..c+..cht++++++lgil+++ob-bg+++++++++++++++++++++++..+++jjrwpli...++++++++++++++++++++++++++++++++++++++++++++++v+++++++++++++..-qyyxc...+l.....afm+afm+++++++++++++++-c++++++++++++++++
(PID.TID 0000.0001) //     22 ++++++++++++ysonmmjkfhmnia-cfi..++al++al++++++++ofk+++++nigc+++++++++++++++++++++++...+++h++rrna..a+++++++++++++++++++++++++++++++++++++++++++++km++++++++++++e...nxi...++++++e...-d..-d+++++++++++++.....-+++++++++++++
(PID.TID 0000.0001) //     21 ++++++++++++yojkmnmlhjmmha-cfe...+++.++++++++++++ll++++++spjl++++++++++++++++++++++....++++++++j...a++++++++++++++++++++++++++++++++++++++++++++fgi++++++++++++l-.....++++++++++++e.++e.-l++++++++++........-+++++++++++
(PID.TID 0000.0001) //     20 +++++++++++++lfhlnljecfiidbgie....af..af+++++++++l+++++++++y++++++++++++++++++++++++....-.++++++-cej++++++++++++++++++++++++++++++++++++++++++++iihhjr++++++++++++-.c+++++++++++++++++++++++++j+++++.........+++++++++++
(PID.TID 0000.0001) //     19 ++++++++++++++lkoqpqi--bfdcegd...-fm.-fm+++++++++++++++++q+++++++++++++++++++++++j++....jj++++++kmp+++++++++++++++++++++++++++++++++++++++++++++llkidfsz++++++l++++++++++++++++++++++++++++++++b.++j........a+++++++++++
(PID.TID 0000.0001) //     18 +++++++++++++++++++++bbehgeb--..-kr+-kr+++++++++++++++++ll++++ll++++++++-++++t++++++++..++++++++++++++++++++++++++++++++++++++++++++++++++++++++llnoihr++++++l++++++++++++++++++++++++++++++++++j.+j.........+++++++++++
(PID.TID 0000.0001) //     17 +++++++++++++++++++++lghlkh-....lx++lx+++++++++++++++++++lp++lal++++++++.+++ro++++++++++++++++++++o+++++++++++++++++++++++++++++++++++++++++++++jkorrqv++++tc+++++++++++++++++++++++++++++++++++j.a...........++++++++++
(PID.TID 0000.0001) //     16 yy+++++++++++++++++++rhhkkg.....r+++r+++++++++++++++++++++l++pl++++++r+++abqw++++++++++++++++++++fim++++++++++++++++++++++++++++++++++++++++++++iimoorwz+++n-+++++++++++++++++++++++++++++++++++j.............++++++++++
(PID.TID 0000.0001) //     15 sstm++++++++++++++++++lfghe.....+++++++++++++++++++++++++++s++++++++++l-+k.eq++fc++++++++++++++++dbj++++++++++++++++++++++++++++++++++++++++o+++kjijkntx+++l+++++++++++++++++++++++++++++++++++++.............++++++++++
(PID.TID 0000.0001) //     14 pnnghl++++++++++++++++l--aa....a++++++++++++++++++++++++++++++++++++++++++.-kxwjccbj++++++++++++ufah+++++++++++++++++++++++++++++++++++++++++kl+geddegins++.+++++++++++++++++++++++++++++++++++++a..i+j.......++++++++++
(PID.TID 0000.0001) //     13 mhhei++++++++++++++++++........e+++++++++++++++++++++++++++++++++++++++++k.-guy+vsll+++++++++++uqe-jj+++++++++++++++++++++++++++++++++++++++++++a.....--....++++++++++++++++++++++++++++++++++++++.cn++......+++++++++++
(PID.TID 0000.0001) //     12 hedcn+++++++++++++++++g.......-g+++++++++++++++++++++++++++++++++++++x++++bbgsvwwuqp+++++++r+++gb-.++k++++++++++++++++++++++++++++++++++++++++++...........++++++++++++++++++++++++++++++++++++++++++++.....a+++++++++++
(PID.TID 0000.0001) //     11 bbcd++++++++++++++++++c.......al+++l+++l++++++++++++++++++++++++++sttt+++cabfqstuutu+++++wsqtna....+++++++++++++++++++++++++++++++++++++++++++++.........b+++++++++++++++++++++++++++++++++++++++++++++.....++++++++++++
(PID.TID 0000.0001) //     10 aa-e++++++++++++++++++e..--..-k+++gd++gd+++++++++++++++++++++++++vkknpswk-cafqsrrttuusqxytiijkb...j+++++++++++++++++++++++++++++++++++++++++++++.......-++++++++++++++++++++++++++++++++++++++++++++++++-a++++++++++++++
(PID.TID 0000.0001) //      9 d--l+++++++++++++++++++...-..c++++a+++a+++++++++++++++++++++++++urlkkmoq+++prtsrsuttmghtxnabejljh-j+++++++++++++++++++++++++++++++++++++++++++++.....-l+++++++++++++++++++++++++++++++++++++++++++++++++++++++++++++++++
(PID.TID 0000.0001) //      8 c-l++++++++++++++++++++.....-o++++f+++f+++++++++++++++++++++++ohilkihhmpke++yvsstutqjnsxxrddfikie--ko+++++++++++++++++++++++++++++++++++++++++++.....f++++++++++++++++++++++++++++++++++++++++++++++++++++++++++++++++++
(PID.TID 0000.0001) //      7 c++++++++++++++++++++++a.....s++++l+++l+++++++++++++++++++++++nggiigfhouf.k++rvtstsnmuxwvshghgc--...ek+++++++++++++++++++++++++++++++++piffkk++++dekk+++++++++++++++++++++++++++++++++++++++++++++++++++++++++++++++++++
(PID.TID 0000.0001) //      6 +++++++++++++++++++++++l-...a+++++++++++++++++++++++++++++++++nhhiiggjtyk.-++-swwumhowxwwtiihb..-bfafk++++++++++++++++++++++++++++++++sklnlifm++++++++++++++++++++++++++++++++++++++++++++++++++++++++++++++++++++++++++
(PID.TID 0000.0001) //      5 ++++++++++++++++++++++++....++++++++++++++++++++++++++++++++++oijlnmnqvxd..++.l+zuliquvxwqkhe-..-bjgge+++++++++++++++++++++++++++++++nmjottuqp++++++++++++++++++++++++++++++++++++++++++++++++++++++++++++++++++++++++++
(PID.TID 0000.0001) //      4 ++++++++++++++++++++++++kkk+++++++++++++++++++++++++++++++++++qmosuutttqeb....m++toooorul-......--jgck+++k+++k++++++++++++++++++-+++jglpsuuvvu++++++++++++++++++++++++++++++++++++++++++++++++++++++++++++++++++++++++++
(PID.TID 0000.0001) //      3 +++++++++++++++++++++++++++++++++++++++++++++++++++++++++++++++++++++vrnii....tyvtrqjhhh-........-kjak++++k+++k++++++++++++++++-.++xtprtvwtpr+++++++++++++++++++++++++++++++++++++++++++++++++++++++++++++++++++++++++++
(PID.TID 0000.0001) //      2 ++++++++++++++++++++++++++++++++++++++++++++++++++++++++++++++++++++++sppl...k+vtutskgc-..........hj-+++++k+++k++++++++++++++++-++++wqpuyxqnp+++++++++++++++++++++++++++++++++++++++++++++++++++++++++++++++++++++++++++
(PID.TID 0000.0001) //      1 ++++++++++++++++++++++++++++++++++++++++++++++++++++++++++++++++++++++++pg...k+pqvspec-...........elk+++++k+++k++++++++++++++++l++++somotvtrs+++++++++++++++++++++++++++++++++++++++++++++++++++++++++++l+++++++++++++++
(PID.TID 0000.0001) //      0 ++++++++++++++++++++++++++++++++++++++++++++++++++++++++++++++++++++++++-.....kaaro-..............k++kl++kk++kk+++++++++++++++r+++xtpmhhjqtv++++++++++++++++++++++++++++++++++++++++++++++++++++++++++++k+++++++mpu++++s
(PID.TID 0000.0001) //     -1 ++++++++++++++++++++++++++++++++++++++++++++++++++++++++++++++++++++++++..-......db..............ar++++++++++++++++++++++++++++++++tnkhfgnt++++++++++++++++++++++++++++++++++++++++++++++++++++++++++++o+++++++kfqvrps+p
(PID.TID 0000.0001) // =======================================================
(PID.TID 0000.0001) // END OF FIELD                                          =
(PID.TID 0000.0001) // =======================================================
(PID.TID 0000.0001) 
(PID.TID 0000.0001) // =======================================================
(PID.TID 0000.0001) // Field hFacW at iteration          1
(PID.TID 0000.0001) // CMIN =          2.000000000000000E-01
(PID.TID 0000.0001) // CMAX =          1.000000000000000E+00
(PID.TID 0000.0001) // CINT =          2.962962962962963E-02
(PID.TID 0000.0001) // SYMBOLS (CMIN->CMAX): -abcdefghijklmnopqrstuvwxyz+
(PID.TID 0000.0001) //                  0.0: .
(PID.TID 0000.0001) // RANGE I (Lo:Hi:Step):(  -1: 194:   1)
(PID.TID 0000.0001) // RANGE J (Lo:Hi:Step):(  34:  -1:  -1)
(PID.TID 0000.0001) // RANGE K (Lo:Hi:Step):(   1:   1:   1)
(PID.TID 0000.0001) // =======================================================
(PID.TID 0000.0001) K =   1
(PID.TID 0000.0001) //                I=8       I=18      I=28      I=34      I=44      I=54      I=64      I=70      I=80      I=90      I=96      I=106     I=116     I=126     I=132     I=142     I=152     I=162     I=168     I=178     I=188
(PID.TID 0000.0001) // |--J--|101234567|901234567|901234567|901234123|567890123|567890123|567890123|563456789|123456789|123456789|123456785|789012345|789012345|789012345|789078901|345678901|345678901|345678901|901234567|901234567|901234567|901234
(PID.TID 0000.0001) //     34 ++++++++++++++++++qe---baap+++............kvtttskgc-...........h--++++k+++++++++++++++hhioojd.......k++++++++++++++++++++++++++++++++++++++++++++++++++++++++++++++mgeccdel+++++++++++++++++++++++++++++++++++++++++++++
(PID.TID 0000.0001) //     33 ++++++++++++++++++b....aac+k-.............kppqspec-............ekk++++k++++++++++++++ihhknmid.......e++++++++++++++++++++++++++++++++++++++++++++++++++++++++++++++tnhdc---l++++++++++++++++++++++++++++++++++++++++++++
(PID.TID 0000.0001) //     32 ++++++++++++++++++aakkkc--e....big..ig.....aaao-...............k+kkl+kkk++++++++++++mggilkiie.......d+++++++++++++++++++++++++++++++++++++++++++++++++++++++++++++ysnheba---++++++++++++++++++++++++++++++++++++++++++++
(PID.TID 0000.0001) //     31 ++++++++++++++++-..+++++kkkffddeip-.ip-.......b...............ar+++++++++++++++++++vkffiljiiga......++++++++++++++++++++++++++++++++++++++++++++++++++++++++++++++yspmhbaaccc+++++++++++++++++++++++++++++++++++++++++++
(PID.TID 0000.0001) //     30 ++++++++++++++++cc++++++++++++--cik.cik.......................ju++++++++++++++++++++hffipnkkhc-....k++++++++++++++++++++++++++++++++++++++++++++++++++++++++++++wuurmlkgddha--l+++++++++++++++++++++++++++++++++++++++++
(PID.TID 0000.0001) //     29 ++++++++++++++++++baaf++++++++--bfmkbfmk......................ouw+++++++++++++++++rkdddi+tpoifa....+++++++++++++++++++++++++++++++++++++++++++++++++++++++++++++qootnjjgffigffhr++++++++++++++++++++++++++++++++++++++++
(PID.TID 0000.0001) //     28 +++++++++++++++e...-fhjmuuutl----bfn-bfnl.....................kii+++++++++++++++++rjeeej++uoigc....+++++++++++++++++++++++++++++++++++++++++++++++++++++++++++++llovolkjjnoooqqrv+++v+++++++++++++++++++++++++++++++++++
(PID.TID 0000.0001) //     27 +++++++++++++++...egifeeksspjd-...be..beot++....ba...........bhdd+++++++++++++++++++kiint+xpige-...++++++++++++++++++++++++++++++++++++++++++++++++++++++++++++lddmwtniiiouwxxvvw+++w+++++++++++++++++++++++++++++++++++
(PID.TID 0000.0001) //     26 ++++++++++++++kffiidbbcdgkiikiil..-b..-bjw+++lllmme..........bfgl+++++++++++++++++++++++++vpjiga...+++++++++++++++++++++++++++++++++++++++++++++++++++++++++++m---iyvnmmfffisxxxvv++vv++++++++++++++++++++++++++++++++++
(PID.TID 0000.0001) //     25 +++++++++++++qmmmnf....--accgiil...b...bjtgg+++vhhhkhhc-....-ill++++++++++++++++++++++jj+qookih-...+++++++++++++++++++++++++++++++++++++++++++++++++++++++++++l-..euwtr-.....dlpss++ss++++++++++++++++++++++++++++++++++
(PID.TID 0000.0001) //     24 ++++++++++++xpllmng----...achiil-..--..-inss++++igghho+e....h+++++++++++++++++++++++++jhhppqlih....+++++++++++++++++++++++++++++++++++++++++++++++++++++++++++lbbkrxxu..........isw+isw+++++++++++++++++++++++++++++++++
(PID.TID 0000.0001) //     23 ++++++++++++ysnmmlhf--bfdcbbgicc+...+...cht+++++lggil++ob--bg++++++++++++++++++++++...++jjjrpli....+++++++++++++++++++++++++++++++++++++++++++++vv++++++++++++...-qyxc....l......afm.afm++++++++++++++--c+++++++++++++++
(PID.TID 0000.0001) //     22 ++++++++++++ysonmmjjffhmia--cf...+aa.+aal+++++++offk++++nigcc++++++++++++++++++++++....++hh+rrna...a++++++++++++++++++++++++++++++++++++++++++++hkm+++++++++++e....ni....+++++e....-...-d++++++++++++......-++++++++++++
(PID.TID 0000.0001) //     21 ++++++++++++yojjkmmlhhjmha--ce....++..+++++++++++lll+++++spjjl+++++++++++++++++++++.....+++++++j....a+++++++++++++++++++++++++++++++++++++++++++ffgi+++++++++++l-......+++++++++++e.++e..-l+++++++++.........-++++++++++
(PID.TID 0000.0001) //     20 +++++++++++++lffhlljeccfidbbge.....a...af++++++++ll++++++++yy+++++++++++++++++++++++.......+++++--cej+++++++++++++++++++++++++++++++++++++++++++iihhhjr+++++++++++-..c++++++++++++++++++++++++jj++++..........++++++++++
(PID.TID 0000.0001) //     19 ++++++++++++++lkkoppi---bdcced....-f..-fm++++++++++++++++qq++++++++++++++++++++++jj+.....jj+++++kkmp++++++++++++++++++++++++++++++++++++++++++++llkiddfsz+++++ll+++++++++++++++++++++++++++++++b..+j.........a++++++++++
(PID.TID 0000.0001) //     18 w++++++++++++++++++++bbbegeb--...-kr.-kr++++++++++++++++lll+++lll+++++++--+++tt+++++++...+++++++++++++++++++++++++++++++++++++++++++++++++++++++lllnihhr+++++ll+++++++++++++++++++++++++++++++++j..j..........++++++++++
(PID.TID 0000.0001) //     17 u++++++++++++++++++++lgghkh-.....lx+.lx++++++++++++++++++llp+laal+++++++..++roo+++++++++++++++++++oo++++++++++++++++++++++++++++++++++++++++++++jjkorqqv+++tcc++++++++++++++++++++++++++++++++++j..............+++++++++
(PID.TID 0000.0001) //     16 vyy++++++++++++++++++rhhhkg......r++.r++++++++++++++++++++ll+pll+++++rr++aabqw+++++++++++++++++++ffim+++++++++++++++++++++++++++++++++++++++++++iiimoorwz++n--++++++++++++++++++++++++++++++++++j..............+++++++++
(PID.TID 0000.0001) //     15 rssmm+++++++++++++++++lffge......+++.++++++++++++++++++++++ss+++++++++l-+k..eq+fcc+++++++++++++++dbbj+++++++++++++++++++++++++++++++++++++++oo++kjiijkntx++ll++++++++++++++++++++++++++++++++++++..............+++++++++
(PID.TID 0000.0001) //     14 mnngghl+++++++++++++++l---a.....a+++a+++++++++++++++++++++++++++++++++++++..-kwjccbbj+++++++++++ufaah++++++++++++++++++++++++++++++++++++++++kklgedddegins+..++++++++++++++++++++++++++++++++++++a...ij........+++++++++
(PID.TID 0000.0001) //     13 lhheei+++++++++++++++++.........e+++e++++++++++++++++++++++++++++++++++++k..-guyvslll++++++++++uqe--jj++++++++++++++++++++++++++++++++++++++++++a......-.....+++++++++++++++++++++++++++++++++++++..cn+.......++++++++++
(PID.TID 0000.0001) //     12 hedccn++++++++++++++++g........-g+++g++++++++++++++++++++++++++++++++xx+++bbbgsvwuqpp++++++rr++gb-..+kk+++++++++++++++++++++++++++++++++++++++++............+++++++++++++++++++++++++++++++++++++++++++......a++++++++++
(PID.TID 0000.0001) //     11 bbbcd+++++++++++++++++c........al++ll++ll+++++++++++++++++++++++++ssttt++caabfqstuttu++++wsqqna.....++++++++++++++++++++++++++++++++++++++++++++..........b++++++++++++++++++++++++++++++++++++++++++++......+++++++++++
(PID.TID 0000.0001) //     10 aa--e+++++++++++++++++e...-...-k++gd++gdd++++++++++++++++++++++++vkkknpsk--aafqrrrttusqqxtiiijb....j++++++++++++++++++++++++++++++++++++++++++++........-+++++++++++++++++++++++++++++++++++++++++++++++--a+++++++++++++
(PID.TID 0000.0001) //      9 d---l++++++++++++++++++.......c+++aa++aa++++++++++++++++++++++++urlkkkmo+++pprsrrsttmgghtnaabejjh--j++++++++++++++++++++++++++++++++++++++++++++......-l++++++++++++++++++++++++++++++++++++++++++++++++++++++++++++++++
(PID.TID 0000.0001) //      8 c--l+++++++++++++++++++......-o+++ff++ff++++++++++++++++++++++ohhikihhhmkee+yvsssttqjjnsxrdddfiie---ko++++++++++++++++++++++++++++++++++++++++++......f+++++++++++++++++++++++++++++++++++++++++++++++++++++++++++++++++
(PID.TID 0000.0001) //      7 ac+++++++++++++++++++++a......s+++ll++ll++++++++++++++++++++++ngggigffhof..k+rrtsssnmmuwvshgggc--....ek++++++++++++++++++++++++++++++++pifffkk+++ddekk++++++++++++++++++++++++++++++++++++++++++++++++++++++++++++++++++
(PID.TID 0000.0001) //      6 -++++++++++++++++++++++l-....a++++++++++++++++++++++++++++++++nhhhigggjtk..-+--swumhhowwwtiihb...-baafk+++++++++++++++++++++++++++++++skklliffm+++++++++++++++++++++++++++++++++++++++++++++++++++++++++++++++++++++++++
(PID.TID 0000.0001) //      5 l+++++++++++++++++++++++.....+++++++++++++++++++++++++++++++++oiijlmmnqvd...+..lzuliiquvwqkhe-...-bggee++++++++++++++++++++++++++++++nmjjottqpp+++++++++++++++++++++++++++++++++++++++++++++++++++++++++++++++++++++++++
(PID.TID 0000.0001) //      4 ++++++++++++++++++++++++kkkk++++++++++++++++++++++++++++++++++qmmosutttq-b.....m+tooooorl-.......--gcck++kk++kk+++++++++++++++++--++jgglpsuuvuu+++++++++++++++++++++++++++++++++++++++++++++++++++++++++++++++++++++++++
(PID.TID 0000.0001) //      3 +++++++++++++++++++++++++++++++++++++++++++++++++++++++++++++++++++++vrnci.....tvtrqjhhh-.........-jaak+++kk++kk+++++++++++++++-..+xtpprtvtppr++++++++++++++++++++++++++++++++++++++++++++++++++++++++++++++++++++++++++
(PID.TID 0000.0001) //      2 ++++++++++++++++++++++++++++++++++++++++++++++++++++++++++++++++++++++spil....kvtttskgc-...........h--++++kk++kk+++++++++++++++--+++wqppuxqnnp++++++++++++++++++++++++++++++++++++++++++++++++++++++++++++++++++++++++++
(PID.TID 0000.0001) //      1 ++++++++++++++++++++++++++++++++++++++++++++++++++++++++++++++++++++++++pg....kppqspec-............ekk++++kk++kk+++++++++++++++ll+++sommottrrs++++++++++++++++++++++++++++++++++++++++++++++++++++++++++ll++++++++++++++
(PID.TID 0000.0001) //      0 ++++++++++++++++++++++++++++++++++++++++++++++++++++++++++++++++++++++++-......aaao-...............k+kkl+kkk+kkk++++++++++++++rr++xtpmhhhjqtv+++++++++++++++++++++++++++++++++++++++++++++++++++++++++++kk++++++mmpu+++s
(PID.TID 0000.0001) //     -1 ++++++++++++++++++++++++++++++++++++++++++++++++++++++++++++++++++++++++..-.......b...............ar+++++++++++++++++++++++++++++++tnkhffgnt+++++++++++++++++++++++++++++++++++++++++++++++++++++++++++oo++++++kffqrppsp
(PID.TID 0000.0001) // =======================================================
(PID.TID 0000.0001) // END OF FIELD                                          =
(PID.TID 0000.0001) // =======================================================
(PID.TID 0000.0001) 
(PID.TID 0000.0001) // =======================================================
(PID.TID 0000.0001) // Field hFacS at iteration          1
(PID.TID 0000.0001) // CMIN =          2.000000000000000E-01
(PID.TID 0000.0001) // CMAX =          1.000000000000000E+00
(PID.TID 0000.0001) // CINT =          2.962962962962963E-02
(PID.TID 0000.0001) // SYMBOLS (CMIN->CMAX): -abcdefghijklmnopqrstuvwxyz+
(PID.TID 0000.0001) //                  0.0: .
(PID.TID 0000.0001) // RANGE I (Lo:Hi:Step):(  -1: 194:   1)
(PID.TID 0000.0001) // RANGE J (Lo:Hi:Step):(  34:  -1:  -1)
(PID.TID 0000.0001) // RANGE K (Lo:Hi:Step):(   1:   1:   1)
(PID.TID 0000.0001) // =======================================================
(PID.TID 0000.0001) K =   1
(PID.TID 0000.0001) //                I=8       I=18      I=28      I=34      I=44      I=54      I=64      I=70      I=80      I=90      I=96      I=106     I=116     I=126     I=132     I=142     I=152     I=162     I=168     I=178     I=188
(PID.TID 0000.0001) // |--J--|101234567|901234567|901234567|901234123|567890123|567890123|567890123|563456789|123456789|123456789|123456785|789012345|789012345|789012345|789078901|345678901|345678901|345678901|901234567|901234567|901234567|901234
(PID.TID 0000.0001) //     34 ++++++++++++++++++b...baap+k-........g...k+pquspec-...........ej-+++++k++++++++++++++ihinomid......e+++++++++++++++++++++++++++++++++++++++++++++++++++++++++++++++mgecc--l+++++++++++++++++++++++++++++++++++++++++++++
(PID.TID 0000.0001) //     33 ++++++++++++++++++a...ba-+e...............kaaro-..............elkkl++kkk++++++++++++mghklkiid......d++++++++++++++++++++++++++++++++++++++++++++++++++++++++++++++ysnhdb---+++++++++++++++++++++++++++++++++++++++++++++
(PID.TID 0000.0001) //     32 ++++++++++++++++-.ak+k+c-+e...bilg..lg.......db...............k++kl++kkk+++++++++++vkfilljije......d++++++++++++++++++++++++++++++++++++++++++++++++++++++++++++++ysnheba--c++++++++++++++++++++++++++++++++++++++++++++
(PID.TID 0000.0001) //     31 ++++++++++++++++-.++++++k+kfkd-cip-.ip-......................ar++++++++++++++++++++vhfilljikga.....+++++++++++++++++++++++++++++++++++++++++++++++++++++++++++++wuvrmlhbadca-l++++++++++++++++++++++++++++++++++++++++++
(PID.TID 0000.0001) //     30 ++++++++++++++++c+baf+++++++++-bfmk.fmk......................juw++++++++++++++++++rkddipsnkmhc-...k+++++++++++++++++++++++++++++++++++++++++++++++++++++++++++++qourmjjgdhha-hr+++++++++++++++++++++++++++++++++++++++++
(PID.TID 0000.0001) //     29 +++++++++++++++e..-afjm+uuvtl---bfnkbfnk.....................kki++++++++++++++++++rjddi++tpoifa...++++++++++++++++++++++++++++++++++++++++++++++++++++++++++++++loutnjjgfijgfhrv++++++++++++++++++++++++++++++++++++++++
(PID.TID 0000.0001) //     28 +++++++++++++++...-fhfekstspj--..beo.beol.......-............jhd++++++++++++++++++rjeejt++uoigc...+++++++++++++++++++++++++++++++++++++++++++++++++++++++++++++ldmvwoliinpooqqrv++++++++++++++++++++++++++++++++++++++++
(PID.TID 0000.0001) //     27 ++++++++++++++k..egdbcdgkmikjd-..-bj.-bjt+++...bma..........bfgd++++++++++++++++++++kint++vpige-..++++++++++++++++++++++++++++++++++++++++++++++++++++++++++++m--iwytniiffisxxvwv+++v+++++++++++++++++++++++++++++++++++
(PID.TID 0000.0001) //     26 +++++++++++++qkfimf...b-agcgnill..bj..bjutg++llphhe.........bfgl++++++++++++++++++++++j++qopjig-..++++++++++++++++++++++++++++++++++++++++++++++++++++++++++++l-.euzvnm-....dlpus+++s+++++++++++++++++++++++++++++++++++
(PID.TID 0000.0001) //     25 ++++++++++++xplmnnf...-..acgmil+..-i..-intg++++vhghhhkc-...-ill+++++++++++++++++++++++jh+popkih...++++++++++++++++++++++++++++++++++++++++++++++++++++++++++++l-.euxwt.........isw++sw++++++++++++++++++++++++++++++++++
(PID.TID 0000.0001) //     24 ++++++++++++xplmmlg--a-..abgiic+-..c-..chts+++++ighho++e...g+++++++++++++++++++++++..+jhjjqslih...++++++++++++++++++++++++++++++++++++++++++++++v+++++++++++++..-qxxxc..........afm+afm+++++++++++++++-c++++++++++++++++
(PID.TID 0000.0001) //     23 ++++++++++++ysnmmlhf-bifda-cfi..+..c+..cht++++++lfil+++ob-bc+++++++++++++++++++++++...++jhrwpli...a+++++++++++++++++++++++++++++++++++++++++++++km++++++++++++....nxi....+l.......-d..-d+++++++++++++.....-+++++++++++++
(PID.TID 0000.0001) //     22 ++++++++++++yojkmmjkfhmmha-cfe...+al.+al++++++++ofk+++++nigcl++++++++++++++++++++++....++h++rrna...a++++++++++++++++++++++++++++++++++++++++++++fgi+++++++++++e.........++++++e...-...-.-l++++++++++........-+++++++++++
(PID.TID 0000.0001) //     21 ++++++++++++ylfhlnljecfiha-cfe....af..af+++++++++ll++++++spjl++++++++++++++++++++++.....-.+++++j...a++++++++++++++++++++++++++++++++++++++++++++fghhjr+++++++++l-.....++++++++++++e.++e.-l++++j+++++.........+++++++++++
(PID.TID 0000.0001) //     20 +++++++++++++lfhlnlje--bfdbegd....af..af+++++++++l+++++++q+y+++++++++++++++++++++j++....-.++++++-cej++++++++++++++++++++++++++++++++++++++++++++iihhdfsz++++++l+++-.c+++++++++++++++++++++++++jb.++j.........+++++++++++
(PID.TID 0000.0001) //     19 ++++++++++++++lkoqpqi--bfdcb--...-fm.-fm++++++++++++++++ll++++ll++++++++-++++t+++j++....jj++++++kmp+++++++++++++++++++++++++++++++++++++++++++++llkidfrz+++++ll++++++++++++++++++++++++++++++++b..+j.........+++++++++++
(PID.TID 0000.0001) //     18 +++++++++++++++++++++bbehge-....-kr+-kr+++++++++++++++++llp++lal++++++++.+++ro++++++++..++++++++++o+++++++++++++++++++++++++++++++++++++++++++++jknoihr++++tcl++++++++++++++++++++++++++++++++++j.a...........++++++++++
(PID.TID 0000.0001) //     17 yy+++++++++++++++++++lghkkg.....lx++lx+++++++++++++++++++ll++lal+++++r++.abqro+++++++++++++++++++fim++++++++++++++++++++++++++++++++++++++++++++iimooqvz+++n-+++++++++++++++++++++++++++++++++++j.............++++++++++
(PID.TID 0000.0001) //     16 sstm+++++++++++++++++rhfghe.....r+++r+++++++++++++++++++++ls+pl++++++rl-+a.eq++fc++++++++++++++++dbj++++++++++++++++++++++++++++++++++++++++o+++iiijkntx+++l-+++++++++++++++++++++++++++++++++++j.............++++++++++
(PID.TID 0000.0001) //     15 pnnghl++++++++++++++++l--aa.....+++++++++++++++++++++++++++s++++++++++l-+k.-kxwfccbj++++++++++++udah++++++++++++++++++++++++++++++++++++++++okl+geddegins++.+++++++++++++++++++++++++++++++++++++.............++++++++++
(PID.TID 0000.0001) //     14 mhhehl++++++++++++++++l........a+++++++++++++++++++++++++++++++++++++++++k.-guwjccbj+++++++++++uqe-hj++++++++++++++++++++++++++++++++++++++++kl+a.....--....+++++++++++++++++++++++++++++++++++++a..i+j.......++++++++++
(PID.TID 0000.0001) //     13 hedci+++++++++++++++++g........e+++++++++++++++++++++++++++++++++++++x+++k.-gsvwvsll+++++++r+++gb-.jjk++++++++++++++++++++++++++++++++++++++++++............++++++++++++++++++++++++++++++++++++++.cn++......+++++++++++
(PID.TID 0000.0001) //     12 bbccn+++++++++++++++++c.......-g+++l+++l++++++++++++++++++++++++++sttt+++cabfqstuuqp+++++wsqtna....++k++++++++++++++++++++++++++++++++++++++++++...........++++++++++++++++++++++++++++++++++++++++++++.....a+++++++++++
(PID.TID 0000.0001) //     11 aa-d++++++++++++++++++c.......al++gd++gd+++++++++++++++++++++++++vkknpswk-aafqsrrttuusqxytiijka....+++++++++++++++++++++++++++++++++++++++++++++.........b+++++++++++++++++++++++++++++++++++++++++++++.....++++++++++++
(PID.TID 0000.0001) //     10 a--e++++++++++++++++++e...-..-k+++ad++ad++++++++++++++++++++++++urkkkmoqk-cafqsrrtttmghtxnabejb...j+++++++++++++++++++++++++++++++++++++++++++++.......-++++++++++++++++++++++++++++++++++++++++++++++++-a++++++++++++++
(PID.TID 0000.0001) //      9 c--l+++++++++++++++++++......c++++a+++a+++++++++++++++++++++++ohilkihhmpke+prtsrsutqjghtxnabeikie--ko+++++++++++++++++++++++++++++++++++++++++++.....-l+++++++++++++++++++++++++++++++++++++++++++++++++++++++++++++++++
(PID.TID 0000.0001) //      8 c-l++++++++++++++++++++......o++++f+++f+++++++++++++++++++++++nggiigfhmpf.k+yrssstsnjnswvrddfgc--...ek+++++++++++++++++++++++++++++++++piffkk+++.....f++++++++++++++++++++++++++++++++++++++++++++++++++++++++++++++++++
(PID.TID 0000.0001) //      7 c++++++++++++++++++++++a.....s++++l+++l+++++++++++++++++++++++nggiigfhouf.-++-ststmhmuxwvshghb..-...ek++++++++++++++++++++++++++++++++skiffifm+++dekk+++++++++++++++++++++++++++++++++++++++++++++++++++++++++++++++++++
(PID.TID 0000.0001) //      6 +++++++++++++++++++++++l....a+++++++++++++++++++++++++++++++++nhhiiggjtxd..++.lwwulhouvwwqihe-..-bfafe+++++++++++++++++++++++++++++++nmjlnlifm++++++++++++++++++++++++++++++++++++++++++++++++++++++++++++++++++++++++++
(PID.TID 0000.0001) //      5 ++++++++++++++++++++++++....++++++++++++++++++++++++++++++++++oijlnmnqtqd.....l+ztlioorul-......--jgce+++k+++k++++++++++++++++++-+++jgljottuqp++++++++++++++++++++++++++++++++++++++++++++++++++++++++++++++++++++++++++
(PID.TID 0000.0001) //      4 ++++++++++++++++++++++++kkk+++++++++++++++++++++++++++++++++++qmosuuttrneb....myvtoojhhh-........-jgak+++kk++kk++++++++++++++++-.++xjglpsutpru++++++++++++++++++++++++++++++++++++++++++++++++++++++++++++++++++++++++++
(PID.TID 0000.0001) //      3 +++++++++++++++++++++++++++++++++++++++++++++++++++++++++++++++++++++vrnii....tvttrqjgc-..........hj-k++++k+++k++++++++++++++++-.++xtpptvwqnp+++++++++++++++++++++++++++++++++++++++++++++++++++++++++++++++++++++++++++
(PID.TID 0000.0001) //      2 ++++++++++++++++++++++++++++++++++++++++++++++++++++++++++++++++++++++sppg...k+pquspec-...........ej-+++++k+++k++++++++++++++++-++++somotvqnp+++++++++++++++++++++++++++++++++++++++++++++++++++++++++++l+++++++++++++++
(PID.TID 0000.0001) //      1 ++++++++++++++++++++++++++++++++++++++++++++++++++++++++++++++++++++++++-.....kaaro-..............elkkl++kk++kk+++++++++++++++rl++xtpmhhjqtrs+++++++++++++++++++++++++++++++++++++++++++++++++++++++++++k+++++++mpu++++s
(PID.TID 0000.0001) //      0 ++++++++++++++++++++++++++++++++++++++++++++++++++++++++++++++++++++++++.g.......db...............k++kl++kk+++k+++++++++++++++r+++xtnkhfgntv+++++++++++++++++++++++++++++++++++++++++++++++++++++++++++ok++++++kfpurps+p
(PID.TID 0000.0001) //     -1 +++++++++++++++++++++++++++++++++++++++++++++++++++++++++++++++++++++++pip-......................ar++++++++++++++++++++++++++++++++tkkhfgmt++++++++++++++++++++++++++++++++++++++++++++++++++++++++++++o+++++++kfqvpnrv+
(PID.TID 0000.0001) // =======================================================
(PID.TID 0000.0001) // END OF FIELD                                          =
(PID.TID 0000.0001) // =======================================================
(PID.TID 0000.0001) 
(PID.TID 0000.0001) 
(PID.TID 0000.0001) // ===================================
(PID.TID 0000.0001) // GAD parameters :
(PID.TID 0000.0001) // ===================================
(PID.TID 0000.0001) tempAdvScheme =   /* Temp. Horiz.Advection scheme selector */
(PID.TID 0000.0001)                       2
(PID.TID 0000.0001)     ;
(PID.TID 0000.0001) tempVertAdvScheme =   /* Temp. Vert. Advection scheme selector */
(PID.TID 0000.0001)                       2
(PID.TID 0000.0001)     ;
(PID.TID 0000.0001) tempMultiDimAdvec =   /* use Muti-Dim Advec method for Temp */
(PID.TID 0000.0001)                   F
(PID.TID 0000.0001)     ;
(PID.TID 0000.0001) tempSOM_Advection = /* use 2nd Order Moment Advection for Temp */
(PID.TID 0000.0001)                   F
(PID.TID 0000.0001)     ;
(PID.TID 0000.0001) AdamsBashforthGt = /* apply Adams-Bashforth extrapolation on Gt */
(PID.TID 0000.0001)                   T
(PID.TID 0000.0001)     ;
(PID.TID 0000.0001) AdamsBashforth_T = /* apply Adams-Bashforth extrapolation on Temp */
(PID.TID 0000.0001)                   F
(PID.TID 0000.0001)     ;
(PID.TID 0000.0001) saltAdvScheme =   /* Salt. Horiz.advection scheme selector */
(PID.TID 0000.0001)                       3
(PID.TID 0000.0001)     ;
(PID.TID 0000.0001) saltVertAdvScheme =   /* Salt. Vert. Advection scheme selector */
(PID.TID 0000.0001)                       3
(PID.TID 0000.0001)     ;
(PID.TID 0000.0001) saltMultiDimAdvec =   /* use Muti-Dim Advec method for Salt */
(PID.TID 0000.0001)                   F
(PID.TID 0000.0001)     ;
(PID.TID 0000.0001) saltSOM_Advection = /* use 2nd Order Moment Advection for Salt */
(PID.TID 0000.0001)                   F
(PID.TID 0000.0001)     ;
(PID.TID 0000.0001) AdamsBashforthGs = /* apply Adams-Bashforth extrapolation on Gs */
(PID.TID 0000.0001)                   T
(PID.TID 0000.0001)     ;
(PID.TID 0000.0001) AdamsBashforth_S = /* apply Adams-Bashforth extrapolation on Salt */
(PID.TID 0000.0001)                   F
(PID.TID 0000.0001)     ;
(PID.TID 0000.0001) // ===================================
- INPHYS: k,SIG, SIGH,   SIGL,   WVI(1),  WVI(2):
  1   0.0750   0.1500  -2.5903   0.8306   0.5757
  2   0.2500   0.3500  -1.3863   1.4427   0.4854
  3   0.5000   0.6500  -0.6931   2.2818   0.5987
  4   0.7750   0.9000  -0.2549   4.9116   0.7344
  5   0.9500   1.0000  -0.0513   0.0000   0.0377
- INPHYS: end setup WVI.
(PID.TID 0000.0001)  AIM_READ_PHYSPARMS: opening data.aimphys
(PID.TID 0000.0001)  OPEN_COPY_DATA_FILE: opening file data.aimphys
(PID.TID 0000.0001) // =======================================================
(PID.TID 0000.0001) // Parameter file "data.aimphys"
(PID.TID 0000.0001) // =======================================================
(PID.TID 0000.0001) ># AIM physics package parameters:
(PID.TID 0000.0001) >
(PID.TID 0000.0001) >C--   AIM interface parameter (namelist AIM_PARAMS):
(PID.TID 0000.0001) >#     aim_useFMsurfBC :: select surface B.C. from Franco Molteni
(PID.TID 0000.0001) >#     aim_useMMsurfFc :: select Monthly Mean surface forcing (e.g., NCEP)
(PID.TID 0000.0001) >#     aim_surfPotTemp :: surf.Temp input file is in Pot.Temp (aim_useMMsurfFc)
(PID.TID 0000.0001) >#     aim_energPrecip :: account for energy of precipitation (snow & rain temp)
(PID.TID 0000.0001) >#     aim_splitSIOsFx :: compute separately Sea-Ice & Ocean surf. Flux
(PID.TID 0000.0001) >#     aim_LandFile :: file name for Land fraction [0-1]
(PID.TID 0000.0001) >#     aim_MMsufx   :: sufix for all Monthly Mean surface forcing files
(PID.TID 0000.0001) >#     aim_MMsufxLength :: Length of sufix (Monthly Mean surf. forc. files)
(PID.TID 0000.0001) >#     aim_albFile  :: file name for Albedo input file   (F.M. surfBC)
(PID.TID 0000.0001) >#     aim_vegFile  :: file name for vegetation fraction (F.M. surfBC)
(PID.TID 0000.0001) >#     aim_sstFile  :: file name for  Sea.Surf.Temp      (F.M. surfBC)
(PID.TID 0000.0001) >#     aim_lstFile  :: file name for Land.Surf.Temp      (F.M. surfBC)
(PID.TID 0000.0001) >#     aim_oiceFile :: file name for Sea Ice fraction    (F.M. surfBC)
(PID.TID 0000.0001) >#     aim_snowFile :: file name for Snow depth          (F.M. surfBC)
(PID.TID 0000.0001) >#     aim_swcFile  :: file name for Soil Water content  (F.M. surfBC)
(PID.TID 0000.0001) >#     aim_dragStrato :: stratospheric-drag damping time scale (s)
(PID.TID 0000.0001) >#     aim_clrSkyDiag :: compute clear-sky radiation for diagnostics
(PID.TID 0000.0001) >#     aim_taveFreq :: Frequency^-1 for time-average output (s)
(PID.TID 0000.0001) >#     aim_diagFreq :: Frequency^-1 for diagnostic output (s)
(PID.TID 0000.0001) >#     aim_tendFreq :: Frequency^-1 for tendencies output (s)
(PID.TID 0000.0001) > &AIM_PARAMS
(PID.TID 0000.0001) >#  aim_useFMsurfBC=.FALSE.,
(PID.TID 0000.0001) >#  aim_useMMsurfFc=.TRUE.,
(PID.TID 0000.0001) >#  aim_surfPotTemp=.TRUE.,
(PID.TID 0000.0001) >   aim_energPrecip=.TRUE.,
(PID.TID 0000.0001) >   aim_splitSIOsFx=.TRUE.,
(PID.TID 0000.0001) >   aim_LandFile= 'landFrc.cpl_FM.bin',
(PID.TID 0000.0001) >   aim_albFile = 'albedo_cs32.bin',
(PID.TID 0000.0001) >   aim_vegFile = 'vegetFrc.cpl_FM.bin',
(PID.TID 0000.0001) >   aim_sstFile = 'seaSurfT.cpl_FM.bin',
(PID.TID 0000.0001) >   aim_lstFile = 'lndSurfT.cpl_FM.bin',
(PID.TID 0000.0001) >   aim_oiceFile= 'seaIce.cpl3FM.bin',
(PID.TID 0000.0001) >   aim_snowFile= 'snowDepth.cpl_FM.bin',
(PID.TID 0000.0001) >   aim_swcFile = 'soilMoist.cpl_FM.bin',
(PID.TID 0000.0001) >   aim_dragStrato= 2592000.,
(PID.TID 0000.0001) >#  aim_clrSkyDiag=.TRUE.,
(PID.TID 0000.0001) >#  aim_diagFreq=3600.,
(PID.TID 0000.0001) > &
(PID.TID 0000.0001) >
(PID.TID 0000.0001) >#--   Physical constants
(PID.TID 0000.0001) >#       P0    = reference pressure                 [Pa=N/m2]
(PID.TID 0000.0001) >#       GG    = gravity accel.                     [m/s2]
(PID.TID 0000.0001) >#       RD    = gas constant for dry air           [J/kg/K]
(PID.TID 0000.0001) >#       CP    = specific heat at constant pressure [J/kg/K]
(PID.TID 0000.0001) >#       ALHC  = latent heat of condensation        [J/g]
(PID.TID 0000.0001) >#       ALHF  = latent heat of freezing            [J/g]
(PID.TID 0000.0001) >#       SBC   = Stefan-Boltzmann constant
(PID.TID 0000.0001) >#     rainCP  = heat capacity of liquid water      [J/g/K]
(PID.TID 0000.0001) >#     tFreeze = freezing temperature of pure water [K]
(PID.TID 0000.0001) >
(PID.TID 0000.0001) >#--   Constants for forcing fields (namelist AIM_PAR_FOR):
(PID.TID 0000.0001) >#      SOLC   = Solar constant (area averaged) in W/m^2
(PID.TID 0000.0001) >#      ALBSEA = Albedo over sea
(PID.TID 0000.0001) >#      ALBICE = Albedo over sea ice (for ice fraction = 1)
(PID.TID 0000.0001) >#      ALBSN  = Albedo over snow (for snow depth > SDALB)
(PID.TID 0000.0001) >#      SDALB  = Snow depth (mm water) corresponding to maximum albedo
(PID.TID 0000.0001) >#      SWCAP  = Soil wetness at field capacity (volume fraction)
(PID.TID 0000.0001) >#      SWWIL  = Soil wetness at wilting point  (volume fraction)
(PID.TID 0000.0001) >#      hSnowWetness :: snow depth (m) corresponding to maximum wetness
(PID.TID 0000.0001) > &AIM_PAR_FOR
(PID.TID 0000.0001) > &
(PID.TID 0000.0001) >
(PID.TID 0000.0001) >#--   Constants for surface fluxes (namelist AIM_PAR_SFL):
(PID.TID 0000.0001) >#      FWIND0 = ratio of near-sfc wind to lowest-level wind
(PID.TID 0000.0001) >#      FTEMP0 = weight for near-sfc temperature extrapolation (0-1) :
(PID.TID 0000.0001) >#               1 : linear extrapolation from two lowest levels
(PID.TID 0000.0001) >#               0 : constant potential temperature ( = lowest level)
(PID.TID 0000.0001) >#      FHUM0  = weight for near-sfc specific humidity extrapolation (0-1) :
(PID.TID 0000.0001) >#               1 : extrap. with constant relative hum. ( = lowest level)
(PID.TID 0000.0001) >#               0 : constant specific hum. ( = lowest level)
(PID.TID 0000.0001) >#      CDL    = drag coefficient for momentum over land
(PID.TID 0000.0001) >#      CDS    = drag coefficient for momentum over sea
(PID.TID 0000.0001) >#      CHL    = heat exchange coefficient over land
(PID.TID 0000.0001) >#      CHS    = heat exchange coefficient over sea
(PID.TID 0000.0001) >#      VGUST  = wind speed for sub-grid-scale gusts
(PID.TID 0000.0001) >#      CTDAY  = daily-cycle correction (dTskin/dSSRad)
(PID.TID 0000.0001) >#      DTHETA = Potential temp. gradient for stability correction
(PID.TID 0000.0001) >#      dTstab = potential temp. increment for stability function derivative
(PID.TID 0000.0001) >#      FSTAB  = Amplitude of stability correction (fraction)
(PID.TID 0000.0001) >#      HDRAG  = Height scale for orographic correction
(PID.TID 0000.0001) >#      FHDRAG = Amplitude of orographic correction (fraction)
(PID.TID 0000.0001) > &AIM_PAR_SFL
(PID.TID 0000.0001) >#  FTEMP0 = 0.,
(PID.TID 0000.0001) >#  FHUM0  = 0.,
(PID.TID 0000.0001) >#  dTstab = 0.,
(PID.TID 0000.0001) > &
(PID.TID 0000.0001) >
(PID.TID 0000.0001) >#--   Convection constants (namelist AIM_PAR_CNV):
(PID.TID 0000.0001) >#      PSMIN  = minimum (norm.) sfc. pressure for the occurrence of convection
(PID.TID 0000.0001) >#      TRCNV  = time of relaxation (in hours) towards reference state
(PID.TID 0000.0001) >#      QBL    = specific hum. threshold in the boundary layer
(PID.TID 0000.0001) >#      RHBL   = relative hum. threshold in the boundary layer
(PID.TID 0000.0001) >#      RHIL   = rel. hum. threshold in intermed. layers for secondary mass flux
(PID.TID 0000.0001) >#      ENTMAX = max. entrainment as a fraction of cloud-base mass flux
(PID.TID 0000.0001) >#      SMF    = ratio between secondary and primary mass flux at cloud-base
(PID.TID 0000.0001) > &AIM_PAR_CNV
(PID.TID 0000.0001) > &
(PID.TID 0000.0001) >
(PID.TID 0000.0001) >#--   Constants for large-scale condensation (namelist AIM_PAR_LSC):
(PID.TID 0000.0001) >#      TRLSC  = Relaxation time (in hours) for specific humidity
(PID.TID 0000.0001) >#      RHLSC  = Maximum relative humidity threshold (at sigma=1)
(PID.TID 0000.0001) >#      DRHLSC = Vertical range of relative humidity threshold
(PID.TID 0000.0001) >#      QSMAX  = used to define the maximum latent heat release
(PID.TID 0000.0001) > &AIM_PAR_LSC
(PID.TID 0000.0001) > &
(PID.TID 0000.0001) >
(PID.TID 0000.0001) >#--   Radiation constants (namelist AIM_PAR_RAD):
(PID.TID 0000.0001) >#      RHCL1  = relative hum. corresponding to cloud cover = 0
(PID.TID 0000.0001) >#      RHCL2  = relative hum. corresponding to cloud cover = 1
(PID.TID 0000.0001) >#      QACL1  = specific hum. threshold for cloud cover in the upper troposphere
(PID.TID 0000.0001) >#      QACL2  = specific hum. threshold for cloud cover in the upper troposphere
(PID.TID 0000.0001) >#      ALBCL  = cloud albedo (for cloud cover = 1)
(PID.TID 0000.0001) >#      EPSSW  = fraction of incoming solar radiation absorbed by ozone
(PID.TID 0000.0001) >#      EPSLW  = fraction of surface LW radiation emitted directly to space
(PID.TID 0000.0001) >#      EMISFC = longwave surface emissivity
(PID.TID 0000.0001) >#--:            shortwave absorptivities (for dp = 10^5 Pa) :
(PID.TID 0000.0001) >#      ABSDRY = abs. of dry air      (visible band)
(PID.TID 0000.0001) >#      ABSAER = abs. of aerosols     (visible band)
(PID.TID 0000.0001) >#      ABSWV1 = abs. of water vapour (visible band, for dq = 1 g/kg)
(PID.TID 0000.0001) >#      ABSWV2 = abs. of water vapour (near IR band, for dq = 1 g/kg)
(PID.TID 0000.0001) >#      ABSCL1 = abs. of clouds       (visible band, constant term)
(PID.TID 0000.0001) >#      ABSCL2 = abs. of clouds       (visible band, for dw = 1 g/kg)
(PID.TID 0000.0001) >#--:            longwave absorptivities (per dp = 10^5 Pa) :
(PID.TID 0000.0001) >#      ABLWIN = abs. of air in "window" band
(PID.TID 0000.0001) >#      ABLCO2 = abs. of air in CO2 band
(PID.TID 0000.0001) >#      ABLWV1 = abs. of water vapour in H2O band 1 (weak),   for dq = 1 g/kg
(PID.TID 0000.0001) >#      ABLWV2 = abs. of water vapour in H2O band 2 (strong), for dq = 1 g/kg
(PID.TID 0000.0001) >#      ABLCL1 = abs. of clouds       in "window" band,       constant term
(PID.TID 0000.0001) >#      ABLCL2 = abs. of clouds       in "window" band,       for dw = 1 g/kg
(PID.TID 0000.0001) > &AIM_PAR_RAD
(PID.TID 0000.0001) > &
(PID.TID 0000.0001) >
(PID.TID 0000.0001) >#--   Constants for vertical dif. and sh. conv. (namelist AIM_PAR_VDI):
(PID.TID 0000.0001) >#      TRSHC  = relaxation time (in hours) for shallow convection
(PID.TID 0000.0001) >#      TRVDI  = relaxation time (in hours) for moisture diffusion
(PID.TID 0000.0001) >#      TRVDS  = relaxation time (in hours) for super-adiab. conditions
(PID.TID 0000.0001) >#      RHGRAD = maximum gradient of relative humidity (d_RH/d_sigma)
(PID.TID 0000.0001) >#      SEGRAD = minimum gradient of dry static energy (d_DSE/d_phi)
(PID.TID 0000.0001) > &AIM_PAR_VDI
(PID.TID 0000.0001) > &
(PID.TID 0000.0001) >
(PID.TID 0000.0001) 
(PID.TID 0000.0001)  AIM_READ_PHYSPARMS: finished reading data.aimphys
(PID.TID 0000.0001) 
(PID.TID 0000.0001) // ===================================
(PID.TID 0000.0001) // AIM physics parameters :
(PID.TID 0000.0001) // ===================================
(PID.TID 0000.0001) useLand =   /* use Land package for surf.BC over land  */
(PID.TID 0000.0001)                   T
(PID.TID 0000.0001)     ;
(PID.TID 0000.0001) aim_useFMsurfBC =   /* F.Molteni surf. BC scheme on/off flag */
(PID.TID 0000.0001)                   T
(PID.TID 0000.0001)     ;
(PID.TID 0000.0001) aim_useMMsurfFc =   /* Monthly Mean surf. Forcing on/off flag */
(PID.TID 0000.0001)                   F
(PID.TID 0000.0001)     ;
(PID.TID 0000.0001) aim_surfForc_TimePeriod = /* Length of forcing time period (s) */
(PID.TID 0000.0001)                 2.592000000000000E+06
(PID.TID 0000.0001)     ;
(PID.TID 0000.0001) aim_surfForc_NppCycle   = /* Number of time period per Cycle */
(PID.TID 0000.0001)                      12
(PID.TID 0000.0001)     ;
(PID.TID 0000.0001) aim_surfForc_TransRatio = /* transition ratio from one month to the next */
(PID.TID 0000.0001)                 1.000000000000000E+00
(PID.TID 0000.0001)     ;
(PID.TID 0000.0001) aim_surfPotTemp =   /* Surf Temp file in Pot.Temp on/off flag */
(PID.TID 0000.0001)                   F
(PID.TID 0000.0001)     ;
(PID.TID 0000.0001) aim_energPrecip = /* account for energy of precip. on/off flag */
(PID.TID 0000.0001)                   T
(PID.TID 0000.0001)     ;
(PID.TID 0000.0001) aim_splitSIOsFx = /* separate Sea-Ice & Ocean Flux on/off flag */
(PID.TID 0000.0001)                   T
(PID.TID 0000.0001)     ;
(PID.TID 0000.0001) aim_dragStrato= /* stratospheric-drag damping time scale (s) */
(PID.TID 0000.0001)                 2.592000000000000E+06
(PID.TID 0000.0001)     ;
(PID.TID 0000.0001) aim_clrSkyDiag = /* do clear-sky radiation diagnostics */
(PID.TID 0000.0001)                   F
(PID.TID 0000.0001)     ;
(PID.TID 0000.0001) aim_taveFreq =   /* Frequency^-1 for time-Aver. output (s) */
(PID.TID 0000.0001)                 2.592000000000000E+06
(PID.TID 0000.0001)     ;
(PID.TID 0000.0001) aim_diagFreq =   /* Frequency^-1 for diagnostic output (s) */
(PID.TID 0000.0001)                 2.592000000000000E+06
(PID.TID 0000.0001)     ;
(PID.TID 0000.0001) aim_tendFreq =   /* Frequency^-1 for tendencies output (s) */
(PID.TID 0000.0001)                 0.000000000000000E+00
(PID.TID 0000.0001)     ;
(PID.TID 0000.0001) aim_selectOceAlbedo =   /* Ocean albedo(latitude) flag */
(PID.TID 0000.0001)                       0
(PID.TID 0000.0001)     ;
(PID.TID 0000.0001) AIM_FOR:   SOLC =   /* Solar constant (area averaged) in W/m2 */
(PID.TID 0000.0001)                 3.420000000000000E+02
(PID.TID 0000.0001)     ;
(PID.TID 0000.0001) AIM_FOR: ALBSEA =   /* Albedo over sea [0-1]      */
(PID.TID 0000.0001)                 7.000000000000001E-02
(PID.TID 0000.0001)     ;
(PID.TID 0000.0001) AIM_FOR: ALBICE =   /* Albedo over sea ice (for ice fraction =1) */
(PID.TID 0000.0001)                 6.000000000000000E-01
(PID.TID 0000.0001)     ;
(PID.TID 0000.0001) AIM_FOR:  ALBSN =   /* Albedo over snow (for snow depth > SDALB) */
(PID.TID 0000.0001)                 6.000000000000000E-01
(PID.TID 0000.0001)     ;
(PID.TID 0000.0001) AIM_FOR:  SDALB =   /* Snow depth (mm H2O) corresp. maximum albedo */
(PID.TID 0000.0001)                 6.000000000000000E+01
(PID.TID 0000.0001)     ;
(PID.TID 0000.0001) AIM_FOR:  SWCAP =   /* Soil wetness at field capacity (Vol.fract.) */
(PID.TID 0000.0001)                 3.000000000000000E-01
(PID.TID 0000.0001)     ;
(PID.TID 0000.0001) AIM_FOR:  SWWIL =   /* Soil wetness at wilting point  (Vol.fract.) */
(PID.TID 0000.0001)                 1.700000000000000E-01
(PID.TID 0000.0001)     ;
(PID.TID 0000.0001) AIM_FOR: hSnowWetness=   /* snow depth corresp. maximum wetness (m) */
(PID.TID 0000.0001)                 1.000000000000000E-02
(PID.TID 0000.0001)     ;
(PID.TID 0000.0001) AIM_SFL: FWIND0 =   /* ratio of near-sfc wind to lowest-level wind */
(PID.TID 0000.0001)                 6.000000000000000E-01
(PID.TID 0000.0001)     ;
(PID.TID 0000.0001) AIM_SFL: FTEMP0 =  /* weight for near-sfc temp. extrapolation (0-1)*/
(PID.TID 0000.0001)                 1.000000000000000E+00
(PID.TID 0000.0001)     ;
(PID.TID 0000.0001) AIM_SFL:  FHUM0 =  /* weight for near-sfc spec.humid. extrap. (0-1)*/
(PID.TID 0000.0001)                 1.000000000000000E+00
(PID.TID 0000.0001)     ;
(PID.TID 0000.0001) AIM_SFL:    CDL =   /* drag coefficient for momentum over land */
(PID.TID 0000.0001)                 1.800000000000000E-03
(PID.TID 0000.0001)     ;
(PID.TID 0000.0001) AIM_SFL:    CDS =   /* drag coefficient for momentum over sea  */
(PID.TID 0000.0001)                 8.000000000000000E-04
(PID.TID 0000.0001)     ;
(PID.TID 0000.0001) AIM_SFL:    CHL =   /* heat exchange coefficient over land */
(PID.TID 0000.0001)                 1.200000000000000E-03
(PID.TID 0000.0001)     ;
(PID.TID 0000.0001) AIM_SFL:    CHS =   /* heat exchange coefficient over sea  */
(PID.TID 0000.0001)                 8.000000000000000E-04
(PID.TID 0000.0001)     ;
(PID.TID 0000.0001) AIM_SFL:  VGUST =   /* wind speed [m/s] for sub-grid-scale gusts */
(PID.TID 0000.0001)                 5.000000000000000E+00
(PID.TID 0000.0001)     ;
(PID.TID 0000.0001) AIM_SFL:  CTDAY =   /* daily-cycle correction (dTskin/dSSRad) */
(PID.TID 0000.0001)                 1.000000000000000E-02
(PID.TID 0000.0001)     ;
(PID.TID 0000.0001) AIM_SFL: DTHETA =   /* Pot.Temp. gradient for stability correction */
(PID.TID 0000.0001)                 3.000000000000000E+00
(PID.TID 0000.0001)     ;
(PID.TID 0000.0001) AIM_SFL: dTstab =   /* Pot.Temp. increment for stab.funct. derivative */
(PID.TID 0000.0001)                 1.000000000000000E+00
(PID.TID 0000.0001)     ;
(PID.TID 0000.0001) AIM_SFL:  FSTAB =   /* Amplitude of stability correction (fract.) */
(PID.TID 0000.0001)                 6.700000000000000E-01
(PID.TID 0000.0001)     ;
(PID.TID 0000.0001) AIM_SFL:  HDRAG =   /* Height scale for orographic correction */
(PID.TID 0000.0001)                 2.000000000000000E+03
(PID.TID 0000.0001)     ;
(PID.TID 0000.0001) AIM_SFL: FHDRAG =   /* Amplitude of orographic correction (fract.)*/
(PID.TID 0000.0001)                 8.000000000000000E-01
(PID.TID 0000.0001)     ;
(PID.TID 0000.0001) AIM_CNV:  PSMIN =   /* min norm.sfc.P. for occurrence of convect. */
(PID.TID 0000.0001)                 7.000000000000000E-01
(PID.TID 0000.0001)     ;
(PID.TID 0000.0001) AIM_CNV:  TRCNV =   /* time of relaxation [h] towards ref state */
(PID.TID 0000.0001)                 6.000000000000000E+00
(PID.TID 0000.0001)     ;
(PID.TID 0000.0001) AIM_CNV:    QBL =   /* specific hum. threshold in the Bound.layer */
(PID.TID 0000.0001)                 1.500000000000000E+01
(PID.TID 0000.0001)     ;
(PID.TID 0000.0001) AIM_CNV:   RHBL =   /* relative hum. threshold in the Bound.layer */
(PID.TID 0000.0001)                 8.000000000000000E-01
(PID.TID 0000.0001)     ;
(PID.TID 0000.0001) AIM_CNV:   RHIL =   /* rel.hum. threshold (intern) for 2nd mass.Flx*/
(PID.TID 0000.0001)                 7.000000000000000E-01
(PID.TID 0000.0001)     ;
(PID.TID 0000.0001) AIM_CNV: ENTMAX =   /* time of relaxation [h] towards neutral eq. */
(PID.TID 0000.0001)                 5.000000000000000E-01
(PID.TID 0000.0001)     ;
(PID.TID 0000.0001) AIM_CNV:    SMF =   /* ratio 2ndary/primary mass.Flx at cloud-base*/
(PID.TID 0000.0001)                 5.000000000000000E-01
(PID.TID 0000.0001)     ;
(PID.TID 0000.0001) AIM_LSC:  TRLSC =   /* relaxation time [h] for supersat. spec.hum. */
(PID.TID 0000.0001)                 4.000000000000000E+00
(PID.TID 0000.0001)     ;
(PID.TID 0000.0001) AIM_LSC:  RHLSC =   /* Max rel.humidity threshold (at sigma=1) */
(PID.TID 0000.0001)                 9.000000000000000E-01
(PID.TID 0000.0001)     ;
(PID.TID 0000.0001) AIM_LSC: DRHLSC =   /* Vertical range of rel.humidity threshold */
(PID.TID 0000.0001)                 1.000000000000000E-01
(PID.TID 0000.0001)     ;
(PID.TID 0000.0001) AIM_LSC:  QSMAX =   /* Define the maximum latent heat release */
(PID.TID 0000.0001)                 5.000000000000000E+01
(PID.TID 0000.0001)     ;
(PID.TID 0000.0001) AIM_RAD:  RHCL1 =   /*  rel.hum. corresponding to cloud cover = 0 */
(PID.TID 0000.0001)                 4.500000000000000E-01
(PID.TID 0000.0001)     ;
(PID.TID 0000.0001) AIM_RAD:  RHCL2 =   /*  rel.hum. corresponding to cloud cover = 1 */
(PID.TID 0000.0001)                 8.500000000000000E-01
(PID.TID 0000.0001)     ;
(PID.TID 0000.0001) AIM_RAD:  QACL1 =   /* spec.hum. threshold for cloud, upper trop. */
(PID.TID 0000.0001)                 1.000000000000000E-01
(PID.TID 0000.0001)     ;
(PID.TID 0000.0001) AIM_RAD:  QACL2 =   /* spec.hum. threshold for cloud, upper trop. */
(PID.TID 0000.0001)                 1.000000000000000E+00
(PID.TID 0000.0001)     ;
(PID.TID 0000.0001) AIM_RAD:  ALBCL =   /*  cloud albedo (for cloud cover = 1) */
(PID.TID 0000.0001)                 4.000000000000000E-01
(PID.TID 0000.0001)     ;
(PID.TID 0000.0001) AIM_RAD:  EPSSW =   /*  fract. of inc.solar rad. absorbed by ozone */
(PID.TID 0000.0001)                 1.500000000000000E-02
(PID.TID 0000.0001)     ;
(PID.TID 0000.0001) AIM_RAD:  EPSLW =   /*  fract. of sfc LW emitted directly to space */
(PID.TID 0000.0001)                 0.000000000000000E+00
(PID.TID 0000.0001)     ;
(PID.TID 0000.0001) AIM_RAD: EMISFC =   /*  longwave surface emissivity */
(PID.TID 0000.0001)                 9.800000000000000E-01
(PID.TID 0000.0001)     ;
(PID.TID 0000.0001)  AIM_RAD : ShortWave absorptivities (for dp = 10^5 Pa) :
(PID.TID 0000.0001) AIM_RAD: ABSDRY =   /* abs. of dry air (visible band) */
(PID.TID 0000.0001)                 3.300000000000000E-02
(PID.TID 0000.0001)     ;
(PID.TID 0000.0001) AIM_RAD: ABSAER =   /* abs. of aerosols (visible band) */
(PID.TID 0000.0001)                 3.300000000000000E-02
(PID.TID 0000.0001)     ;
(PID.TID 0000.0001) AIM_RAD: ABSWV1 =   /* abs. of water vap. (vis. band)(/dq, 1g/kg) */
(PID.TID 0000.0001)                 2.200000000000000E-02
(PID.TID 0000.0001)     ;
(PID.TID 0000.0001) AIM_RAD: ABSWV2 =   /* abs. of water vap.(near IR bd)(/dq, 1g/kg) */
(PID.TID 0000.0001)                 1.500000000000000E+01
(PID.TID 0000.0001)     ;
(PID.TID 0000.0001) AIM_RAD: ABSCL1 =   /* abs. of clouds (vis.band)(constant term) */
(PID.TID 0000.0001)                 0.000000000000000E+00
(PID.TID 0000.0001)     ;
(PID.TID 0000.0001) AIM_RAD: ABSCL2 =   /* abs. of clouds (vis.band) (/dw, 1g/kg) */
(PID.TID 0000.0001)                 1.000000000000000E-02
(PID.TID 0000.0001)     ;
(PID.TID 0000.0001) AIM_RAD: ABLWIN =   /* abs. of air in "window" band */
(PID.TID 0000.0001)                 7.000000000000000E-01
(PID.TID 0000.0001)     ;
(PID.TID 0000.0001) AIM_RAD: ABLCO2 =   /* abs. of air in CO2 band */
(PID.TID 0000.0001)                 4.000000000000000E+00
(PID.TID 0000.0001)     ;
(PID.TID 0000.0001) AIM_RAD: ABLWV1 =   /* abs. of Water vap. H2O bd-1(weak)(/dq,1g/kg)*/
(PID.TID 0000.0001)                 7.000000000000000E-01
(PID.TID 0000.0001)     ;
(PID.TID 0000.0001) AIM_RAD: ABLWV2 =   /* abs. of W. vap., H2O bd-2(strong)(/dq,1g/kg)*/
(PID.TID 0000.0001)                 5.000000000000000E+01
(PID.TID 0000.0001)     ;
(PID.TID 0000.0001) AIM_RAD: ABLCL1 =   /* abs. of clouds in window band (const term) */
(PID.TID 0000.0001)                 1.200000000000000E+01
(PID.TID 0000.0001)     ;
(PID.TID 0000.0001) AIM_RAD: ABLCL2 =   /* abs. of clouds in window band (/dw, 1g/kg) */
(PID.TID 0000.0001)                 0.000000000000000E+00
(PID.TID 0000.0001)     ;
(PID.TID 0000.0001) AIM_VDI:  TRSHC =   /* relaxation time [h] for shallow convection */
(PID.TID 0000.0001)                 2.400000000000000E+01
(PID.TID 0000.0001)     ;
(PID.TID 0000.0001) AIM_VDI:  TRVDI =   /* relaxation time [h] for moisture diffusion */
(PID.TID 0000.0001)                 4.000000000000000E+01
(PID.TID 0000.0001)     ;
(PID.TID 0000.0001) AIM_VDI:  TRVDS =   /* relaxation time [h] for super-adiab. cond. */
(PID.TID 0000.0001)                 5.000000000000000E+00
(PID.TID 0000.0001)     ;
(PID.TID 0000.0001) AIM_VDI: RHGRAD =   /* max gradient of rel.humidity (d_RH/d_sigma)*/
(PID.TID 0000.0001)                 5.000000000000000E-01
(PID.TID 0000.0001)     ;
(PID.TID 0000.0001) AIM_VDI: RHGRAD =   /* max grad. of dry static Energy(d_DSE/d_phi)*/
(PID.TID 0000.0001)                 5.000000000000000E-01
(PID.TID 0000.0001)     ;
(PID.TID 0000.0001)  MDS_READ_FIELD: opening global file: landFrc.cpl_FM.bin
(PID.TID 0000.0001)  LAND_READPARMS: opening data.land
(PID.TID 0000.0001)  OPEN_COPY_DATA_FILE: opening file data.land
(PID.TID 0000.0001) // =======================================================
(PID.TID 0000.0001) // Parameter file "data.land"
(PID.TID 0000.0001) // =======================================================
(PID.TID 0000.0001) ># Land package parameters:
(PID.TID 0000.0001) >
(PID.TID 0000.0001) >#--  Land model parameter (namelist LAND_MODEL_PAR):
(PID.TID 0000.0001) >#     land_calc_grT  :: step forward ground Temperature
(PID.TID 0000.0001) >#     land_calc_grW  :: step forward soil moiture
(PID.TID 0000.0001) >#     land_impl_grT  :: solve ground Temperature implicitly
(PID.TID 0000.0001) >#     land_calc_snow :: step forward snow thickness
(PID.TID 0000.0001) >#     land_calc_alb  :: compute albedo of snow over land
(PID.TID 0000.0001) >#     land_oldPickup :: restart from an old pickup (=before checkpoint 52l)
(PID.TID 0000.0001) >#     land_grT_iniFile  :: File containing initial ground Temp.
(PID.TID 0000.0001) >#     land_grW_iniFile  :: File containing initial ground Water.
(PID.TID 0000.0001) >#     land_snow_iniFile :: File containing initial snow thickness.
(PID.TID 0000.0001) >#     land_deltaT   :: land model time-step
(PID.TID 0000.0001) >#     land_taveFreq :: Frequency^-1 for time-Aver. output (s)
(PID.TID 0000.0001) >#     land_diagFreq :: Frequency^-1 for diagnostic output (s)
(PID.TID 0000.0001) >#     land_monFreq  :: Frequency^-1 for monitor    output (s)
(PID.TID 0000.0001) >#     land_dzF      :: layer thickness
(PID.TID 0000.0001) > &LAND_MODEL_PAR
(PID.TID 0000.0001) ># land_calc_grT =.FALSE.,
(PID.TID 0000.0001) ># land_calc_grW =.FALSE.,
(PID.TID 0000.0001) ># land_impl_grT =.FALSE.,
(PID.TID 0000.0001) ># land_calc_snow=.FALSE.,
(PID.TID 0000.0001) ># land_calc_alb =.FALSE.,
(PID.TID 0000.0001) >  land_grT_iniFile='land_grT_ini.cpl.bin',
(PID.TID 0000.0001) >  land_grW_iniFile='land_grW_ini.mn.bin',
(PID.TID 0000.0001) >  land_snow_iniFile='land_snw_ini.cpl.bin',
(PID.TID 0000.0001) ># land_oldPickup=.TRUE.,
(PID.TID 0000.0001) >  land_dzF= 0.1, 4.0,
(PID.TID 0000.0001) ># land_diagFreq=2592000.,
(PID.TID 0000.0001) > &
(PID.TID 0000.0001) >
(PID.TID 0000.0001) >#--  Physical constants (namelist LAND_PHYS_PAR):
(PID.TID 0000.0001) >#     land_grdLambda  :: Thermal conductivity of the ground (W/m/K)
(PID.TID 0000.0001) >#     land_heatCs     :: Heat capacity of dry soil (J/m3/K)
(PID.TID 0000.0001) >#     land_CpWater    :: Heat capacity of water    (J/kg/K)
(PID.TID 0000.0001) >#     land_wTauDiff   :: soil moisture diffusion time scale
(PID.TID 0000.0001) >#     land_waterCap   :: field capacity per meter of soil
(PID.TID 0000.0001) >#     land_fractRunOff:: fraction of water in excess which run-off
(PID.TID 0000.0001) >#     land_rhoLiqW    :: density of liquid water (kg/m3)
(PID.TID 0000.0001) >#     land_rhoSnow    :: density of snow (kg/m3)
(PID.TID 0000.0001) >#     land_Lfreez     :: Latent heat of freezing (J/kg)
(PID.TID 0000.0001) >#     land_hMaxSnow   :: Maximum snow-thickness  (m)
(PID.TID 0000.0001) >#     diffKsnow       :: thermal conductivity of snow (W/m/K)
(PID.TID 0000.0001) >#     timeSnowAge     :: snow aging time scale   (s)
(PID.TID 0000.0001) >#     hNewSnowAge     :: new snow thickness that refresh the snow-age (by 1/e)
(PID.TID 0000.0001) >#     albColdSnow     :: albedo of cold (=dry) new snow (Tsfc < -10)
(PID.TID 0000.0001) >#     albWarmSnow     :: albedo of warm (=wet) new snow (Tsfc = 0)
(PID.TID 0000.0001) >#     albOldSnow      :: albedo of old snow (snowAge > 35.d)
(PID.TID 0000.0001) >#     hAlbSnow        :: snow thickness for albedo transition: snow/ground
(PID.TID 0000.0001) > &LAND_PHYS_PAR
(PID.TID 0000.0001) ># land_Lfreez=0.,
(PID.TID 0000.0001) >  land_hMaxSnow=10.,
(PID.TID 0000.0001) > &
(PID.TID 0000.0001) 
(PID.TID 0000.0001)  LAND_READPARMS: finished reading data.land
(PID.TID 0000.0001) 
(PID.TID 0000.0001) // ===================================
(PID.TID 0000.0001) // Land package parameters :
(PID.TID 0000.0001) // ===================================
(PID.TID 0000.0001) land_calc_grT = /* step forward ground Temp. on/off flag */
(PID.TID 0000.0001)                   T
(PID.TID 0000.0001)     ;
(PID.TID 0000.0001) land_calc_grW = /* step forward soil moiture on/off flag */
(PID.TID 0000.0001)                   T
(PID.TID 0000.0001)     ;
(PID.TID 0000.0001) land_impl_grT = /* solve ground temperature implicitly */
(PID.TID 0000.0001)                   T
(PID.TID 0000.0001)     ;
(PID.TID 0000.0001) land_calc_snow = /* step forward snow thickness */
(PID.TID 0000.0001)                   T
(PID.TID 0000.0001)     ;
(PID.TID 0000.0001) land_calc_alb = /* compute land+snow albedo */
(PID.TID 0000.0001)                   T
(PID.TID 0000.0001)     ;
(PID.TID 0000.0001) land_grT_iniFile = /* Initial ground-Temp Input-File */
(PID.TID 0000.0001)                 land_grT_ini.cpl.bin
(PID.TID 0000.0001)     ;
(PID.TID 0000.0001) land_grW_iniFile = /* Initial soil-Water Input-File */
(PID.TID 0000.0001)                 land_grW_ini.mn.bin
(PID.TID 0000.0001)     ;
(PID.TID 0000.0001) land_snow_iniFile= /* Initial snow thickness Input-File */
(PID.TID 0000.0001)                 land_grW_ini.mn.bin
(PID.TID 0000.0001)     ;
(PID.TID 0000.0001) land_deltaT = /* land model Time-Step (s) */
(PID.TID 0000.0001)                 4.500000000000000E+02
(PID.TID 0000.0001)     ;
(PID.TID 0000.0001) land_taveFreq = /* Frequency^-1 for time-Aver. output (s) */
(PID.TID 0000.0001)                 2.592000000000000E+06
(PID.TID 0000.0001)     ;
(PID.TID 0000.0001) land_diagFreq = /* Frequency^-1 for diagnostic output (s) */
(PID.TID 0000.0001)                 2.592000000000000E+06
(PID.TID 0000.0001)     ;
(PID.TID 0000.0001) land_monFreq = /* Frequency^-1 for monitor output (s) */
(PID.TID 0000.0001)                 2.592000000000000E+06
(PID.TID 0000.0001)     ;
(PID.TID 0000.0001) land_dzF = /* layer thickness ( m ) */
(PID.TID 0000.0001)                 1.000000000000000E-01,      /* K =  1 */
(PID.TID 0000.0001)                 4.000000000000000E+00       /* K =  2 */
(PID.TID 0000.0001)     ;
(PID.TID 0000.0001) land_rec_dzC= /* recip. vertical spacing (m-1) */
(PID.TID 0000.0001)                 2.000000000000000E+01,      /* K =  1 */
(PID.TID 0000.0001)                 4.878048780487805E-01       /* K =  2 */
(PID.TID 0000.0001)     ;
(PID.TID 0000.0001) land_timeave_mdsio = /* use MDSIO for Tave output */
(PID.TID 0000.0001)                   T
(PID.TID 0000.0001)     ;
(PID.TID 0000.0001) land_timeave_mnc = /* use MNC for Tave output */
(PID.TID 0000.0001)                   F
(PID.TID 0000.0001)     ;
(PID.TID 0000.0001) land_snapshot_mdsio = /* use MDSIO for snapshot output */
(PID.TID 0000.0001)                   T
(PID.TID 0000.0001)     ;
(PID.TID 0000.0001) land_snapshot_mnc = /* use MNC for snapshot output */
(PID.TID 0000.0001)                   F
(PID.TID 0000.0001)     ;
(PID.TID 0000.0001) land_mon_stdio = /* use STDOUT for monitor output */
(PID.TID 0000.0001)                   T
(PID.TID 0000.0001)     ;
(PID.TID 0000.0001) land_mon_mnc = /* use MNC for monitor output */
(PID.TID 0000.0001)                   F
(PID.TID 0000.0001)     ;
(PID.TID 0000.0001) land_pickup_write_mnc = /* use MNC for writing pickups */
(PID.TID 0000.0001)                   F
(PID.TID 0000.0001)     ;
(PID.TID 0000.0001) land_pickup_read_mnc = /* use MNC for reading pickups */
(PID.TID 0000.0001)                   F
(PID.TID 0000.0001)     ;
(PID.TID 0000.0001) land_grdLambda = /* Thermal conductivity of the ground (W/m/K)*/
(PID.TID 0000.0001)                 4.200000000000000E-01
(PID.TID 0000.0001)     ;
(PID.TID 0000.0001) land_heatCs = /* Heat capacity of dry soil (J/m3/K) */
(PID.TID 0000.0001)                 1.130000000000000E+06
(PID.TID 0000.0001)     ;
(PID.TID 0000.0001) land_CpWater = /* Heat capacity of water    (J/kg/K) */
(PID.TID 0000.0001)                 4.200000000000000E+03
(PID.TID 0000.0001)     ;
(PID.TID 0000.0001) land_wTauDiff = /* soil moisture diffusion time scale (s) */
(PID.TID 0000.0001)                 1.728000000000000E+05
(PID.TID 0000.0001)     ;
(PID.TID 0000.0001) land_waterCap = /* field capacity per meter of soil (1) */
(PID.TID 0000.0001)                 2.400000000000000E-01
(PID.TID 0000.0001)     ;
(PID.TID 0000.0001) land_fractRunOff= /* fraction of water in excess which run-off */
(PID.TID 0000.0001)                 5.000000000000000E-01
(PID.TID 0000.0001)     ;
(PID.TID 0000.0001) land_rhoLiqW = /* density of liquid water (kg/m3) */
(PID.TID 0000.0001)                 1.000000000000000E+03
(PID.TID 0000.0001)     ;
(PID.TID 0000.0001) land_rhoSnow = /* density of snow (kg/m3) */
(PID.TID 0000.0001)                 3.300000000000000E+02
(PID.TID 0000.0001)     ;
(PID.TID 0000.0001) land_Lfreez = /* Latent heat of freezing (J/kg) */
(PID.TID 0000.0001)                 3.340000000000000E+05
(PID.TID 0000.0001)     ;
(PID.TID 0000.0001) land_hMaxSnow = /* maximum snow-thickness (m) */
(PID.TID 0000.0001)                 1.000000000000000E+01
(PID.TID 0000.0001)     ;
(PID.TID 0000.0001) diffKsnow = /* thermal conductivity of snow (W/m/K) */
(PID.TID 0000.0001)                 3.000000000000000E-01
(PID.TID 0000.0001)     ;
(PID.TID 0000.0001) timeSnowAge = /* snow aging time scale   (s) */
(PID.TID 0000.0001)                 4.320000000000000E+06
(PID.TID 0000.0001)     ;
(PID.TID 0000.0001) hNewSnowAge = /* new snow thickness to refresh snow-age by 1/e */
(PID.TID 0000.0001)                 2.000000000000000E-03
(PID.TID 0000.0001)     ;
(PID.TID 0000.0001) albColdSnow = /* albedo of cold (=dry) new snow */
(PID.TID 0000.0001)                 8.500000000000000E-01
(PID.TID 0000.0001)     ;
(PID.TID 0000.0001) albWarmSnow = /* albedo of warm (=wet) new snow */
(PID.TID 0000.0001)                 7.000000000000000E-01
(PID.TID 0000.0001)     ;
(PID.TID 0000.0001) tempSnowAlbL = /* Temp. transition from ColdSnow to WarmSnow Alb. (oC) */
(PID.TID 0000.0001)                -1.000000000000000E+01
(PID.TID 0000.0001)     ;
(PID.TID 0000.0001) albOldSnow = /* albedo of old snow (snowAge >35.d)*/
(PID.TID 0000.0001)                 5.500000000000000E-01
(PID.TID 0000.0001)     ;
(PID.TID 0000.0001) hAlbSnow = /* snow depth for albedo transition */
(PID.TID 0000.0001)                 3.000000000000000E-01
(PID.TID 0000.0001)     ;
(PID.TID 0000.0001) GAD_CHECK: #define ALLOW_GENERIC_ADVDIFF
(PID.TID 0000.0001) %MON fCori_max                    =   1.4574827780704E-04
(PID.TID 0000.0001) %MON fCori_min                    =  -1.4574827780704E-04
(PID.TID 0000.0001) %MON fCori_mean                   =   0.0000000000000E+00
(PID.TID 0000.0001) %MON fCori_sd                     =   8.4202189509968E-05
(PID.TID 0000.0001) %MON fCoriG_max                   =   1.4584247033981E-04
(PID.TID 0000.0001) %MON fCoriG_min                   =  -1.4584247033981E-04
(PID.TID 0000.0001) %MON fCoriG_mean                  =   2.3068131329479E-21
(PID.TID 0000.0001) %MON fCoriG_sd                    =   8.5093242784592E-05
(PID.TID 0000.0001) %MON fCoriCos_max                 =   1.4580166994612E-04
(PID.TID 0000.0001) %MON fCoriCos_min                 =   5.2407700865903E-06
(PID.TID 0000.0001) %MON fCoriCos_mean                =   1.1514045869113E-04
(PID.TID 0000.0001) %MON fCoriCos_sd                  =   3.0375849106513E-05
(PID.TID 0000.0001) INI_CG2D: CG2D normalisation factor =  9.9119603843467461E-06
(PID.TID 0000.0001) INI_CG2D: cg2dTolerance = 1.123144856357769E-10 (Area=5.0990436378E+14)
(PID.TID 0000.0001) 
(PID.TID 0000.0001) CONFIG_CHECK: OK
(PID.TID 0000.0001) // =======================================================
(PID.TID 0000.0001) // Model configuration
(PID.TID 0000.0001) // =======================================================
(PID.TID 0000.0001) //
(PID.TID 0000.0001) // "Physical" paramters ( PARM01 in namelist )
(PID.TID 0000.0001) //
(PID.TID 0000.0001) buoyancyRelation = ATMOSPHERIC
(PID.TID 0000.0001) fluidIsAir  =  /* fluid major constituent is Air */
(PID.TID 0000.0001)                   T
(PID.TID 0000.0001)     ;
(PID.TID 0000.0001) fluidIsWater=  /* fluid major constituent is Water */
(PID.TID 0000.0001)                   F
(PID.TID 0000.0001)     ;
(PID.TID 0000.0001) usingPCoords =  /* use p (or p*) vertical coordinate */
(PID.TID 0000.0001)                   T
(PID.TID 0000.0001)     ;
(PID.TID 0000.0001) usingZCoords =  /* use z (or z*) vertical coordinate */
(PID.TID 0000.0001)                   F
(PID.TID 0000.0001)     ;
(PID.TID 0000.0001) tRef =   /* Reference temperature profile ( oC or K ) */
(PID.TID 0000.0001)                 2.896000000000000E+02,      /* K =  1 */
(PID.TID 0000.0001)                 2.981000000000000E+02,      /* K =  2 */
(PID.TID 0000.0001)                 3.145000000000000E+02,      /* K =  3 */
(PID.TID 0000.0001)                 3.358000000000000E+02,      /* K =  4 */
(PID.TID 0000.0001)                 4.374000000000000E+02       /* K =  5 */
(PID.TID 0000.0001)     ;
(PID.TID 0000.0001) sRef =   /* Reference salinity profile ( psu ) */
(PID.TID 0000.0001)     5 @  0.000000000000000E+00              /* K =  1:  5 */
(PID.TID 0000.0001)     ;
(PID.TID 0000.0001) viscAh =   /* Lateral eddy viscosity ( m^2/s ) */
(PID.TID 0000.0001)                 0.000000000000000E+00
(PID.TID 0000.0001)     ;
(PID.TID 0000.0001) viscAhMax =   /* Maximum lateral eddy viscosity ( m^2/s ) */
(PID.TID 0000.0001)                 1.000000000000000E+21
(PID.TID 0000.0001)     ;
(PID.TID 0000.0001) viscAhGrid =   /* Grid dependent lateral eddy viscosity ( non-dim. ) */
(PID.TID 0000.0001)                 0.000000000000000E+00
(PID.TID 0000.0001)     ;
(PID.TID 0000.0001) useFullLeith =   /* Use Full Form of Leith Viscosity on/off flag*/
(PID.TID 0000.0001)                   F
(PID.TID 0000.0001)     ;
(PID.TID 0000.0001) useStrainTensionVisc =   /* Use StrainTension Form of Viscous Operator on/off flag*/
(PID.TID 0000.0001)                   F
(PID.TID 0000.0001)     ;
(PID.TID 0000.0001) useAreaViscLength =   /* Use area for visc length instead of geom. mean*/
(PID.TID 0000.0001)                   F
(PID.TID 0000.0001)     ;
(PID.TID 0000.0001) viscC2leith = /* Leith harmonic visc. factor (on grad(vort),non-dim.) */
(PID.TID 0000.0001)                 0.000000000000000E+00
(PID.TID 0000.0001)     ;
(PID.TID 0000.0001) viscC2leithD = /* Leith harmonic viscosity factor (on grad(div),non-dim.) */
(PID.TID 0000.0001)                 0.000000000000000E+00
(PID.TID 0000.0001)     ;
(PID.TID 0000.0001) viscC2smag =   /* Smagorinsky harmonic viscosity factor (non-dim.) */
(PID.TID 0000.0001)                 0.000000000000000E+00
(PID.TID 0000.0001)     ;
(PID.TID 0000.0001) viscA4 =   /* Lateral biharmonic viscosity ( m^4/s ) */
(PID.TID 0000.0001)                 0.000000000000000E+00
(PID.TID 0000.0001)     ;
(PID.TID 0000.0001) viscA4Max =   /* Maximum biharmonic viscosity ( m^2/s ) */
(PID.TID 0000.0001)                 1.000000000000000E+21
(PID.TID 0000.0001)     ;
(PID.TID 0000.0001) viscA4Grid =   /* Grid dependent biharmonic viscosity ( non-dim. ) */
(PID.TID 0000.0001)                 0.000000000000000E+00
(PID.TID 0000.0001)     ;
(PID.TID 0000.0001) viscC4leith = /* Leith biharm viscosity factor (on grad(vort), non-dim.) */
(PID.TID 0000.0001)                 0.000000000000000E+00
(PID.TID 0000.0001)     ;
(PID.TID 0000.0001) viscC4leithD = /* Leith biharm viscosity factor (on grad(div), non-dim.) */
(PID.TID 0000.0001)                 0.000000000000000E+00
(PID.TID 0000.0001)     ;
(PID.TID 0000.0001) viscC4Smag = /* Smagorinsky biharm viscosity factor (non-dim) */
(PID.TID 0000.0001)                 0.000000000000000E+00
(PID.TID 0000.0001)     ;
(PID.TID 0000.0001) no_slip_sides =  /* Viscous BCs: No-slip sides */
(PID.TID 0000.0001)                   F
(PID.TID 0000.0001)     ;
(PID.TID 0000.0001) sideDragFactor = /* side-drag scaling factor (non-dim) */
(PID.TID 0000.0001)                 2.000000000000000E+00
(PID.TID 0000.0001)     ;
(PID.TID 0000.0001) viscAr =   /* Vertical eddy viscosity ( units of r^2/s ) */
(PID.TID 0000.0001)                 0.000000000000000E+00
(PID.TID 0000.0001)     ;
(PID.TID 0000.0001) no_slip_bottom =  /* Viscous BCs: No-slip bottom */
(PID.TID 0000.0001)                   F
(PID.TID 0000.0001)     ;
(PID.TID 0000.0001) bottomDragLinear = /* linear bottom-drag coefficient ( 1/s ) */
(PID.TID 0000.0001)                 0.000000000000000E+00
(PID.TID 0000.0001)     ;
(PID.TID 0000.0001) bottomDragQuadratic = /* quadratic bottom-drag coeff. ( 1/m ) */
(PID.TID 0000.0001)                 0.000000000000000E+00
(PID.TID 0000.0001)     ;
(PID.TID 0000.0001) diffKhT =   /* Laplacian diffusion of heat laterally ( m^2/s ) */
(PID.TID 0000.0001)                 0.000000000000000E+00
(PID.TID 0000.0001)     ;
(PID.TID 0000.0001) diffK4T =   /* Bihaarmonic diffusion of heat laterally ( m^4/s ) */
(PID.TID 0000.0001)                 0.000000000000000E+00
(PID.TID 0000.0001)     ;
(PID.TID 0000.0001) diffKhS =   /* Laplacian diffusion of salt laterally ( m^2/s ) */
(PID.TID 0000.0001)                 0.000000000000000E+00
(PID.TID 0000.0001)     ;
(PID.TID 0000.0001) diffK4S =   /* Bihaarmonic diffusion of salt laterally ( m^4/s ) */
(PID.TID 0000.0001)                 0.000000000000000E+00
(PID.TID 0000.0001)     ;
(PID.TID 0000.0001) diffKrNrT = /* vertical profile of vertical diffusion of Temp ( m^2/s )*/
(PID.TID 0000.0001)     5 @  0.000000000000000E+00              /* K =  1:  5 */
(PID.TID 0000.0001)     ;
(PID.TID 0000.0001) diffKrNrS = /* vertical profile of vertical diffusion of Salt ( m^2/s )*/
(PID.TID 0000.0001)     5 @  0.000000000000000E+00              /* K =  1:  5 */
(PID.TID 0000.0001)     ;
(PID.TID 0000.0001) diffKrBL79surf =   /* Surface diffusion for Bryan and Lewis 1979 ( m^2/s ) */
(PID.TID 0000.0001)                 0.000000000000000E+00
(PID.TID 0000.0001)     ;
(PID.TID 0000.0001) diffKrBL79deep =   /* Deep diffusion for Bryan and Lewis 1979 ( m^2/s ) */
(PID.TID 0000.0001)                 0.000000000000000E+00
(PID.TID 0000.0001)     ;
(PID.TID 0000.0001) diffKrBL79scl =   /* Depth scale for Bryan and Lewis 1979 ( m ) */
(PID.TID 0000.0001)                 2.000000000000000E+02
(PID.TID 0000.0001)     ;
(PID.TID 0000.0001) diffKrBL79Ho =   /* Turning depth for Bryan and Lewis 1979 ( m ) */
(PID.TID 0000.0001)                -2.000000000000000E+03
(PID.TID 0000.0001)     ;
(PID.TID 0000.0001) Equation of State : eosType = IDEALG ;
(PID.TID 0000.0001) tAlpha =   /* Linear EOS thermal expansion coefficient ( 1/oC ) */
(PID.TID 0000.0001)                 1.234567000000000E+05
(PID.TID 0000.0001)     ;
(PID.TID 0000.0001) sBeta =   /* Linear EOS haline contraction coefficient ( 1/psu ) */
(PID.TID 0000.0001)                 1.234567000000000E+05
(PID.TID 0000.0001)     ;
(PID.TID 0000.0001) atm_Rd =  /* gas constant for dry air ( J/kg/K ) */
(PID.TID 0000.0001)                 2.868571428571428E+02
(PID.TID 0000.0001)     ;
(PID.TID 0000.0001) atm_Cp =  /* specific heat (Cp) of dry air ( J/kg/K ) */
(PID.TID 0000.0001)                 1.004000000000000E+03
(PID.TID 0000.0001)     ;
(PID.TID 0000.0001) atm_kappa =  /* kappa (=Rd/Cp ) of dry air */
(PID.TID 0000.0001)                 2.857142857142857E-01
(PID.TID 0000.0001)     ;
(PID.TID 0000.0001) atm_Rq = /* water vap. specific vol. anomaly relative to dry air */
(PID.TID 0000.0001)                 6.078000000000000E-04
(PID.TID 0000.0001)     ;
(PID.TID 0000.0001) atm_Po =  /* standard reference pressure ( Pa ) */
(PID.TID 0000.0001)                 1.000000000000000E+05
(PID.TID 0000.0001)     ;
(PID.TID 0000.0001) integr_GeoPot =  /* select how the geopotential is integrated */
(PID.TID 0000.0001)                       2
(PID.TID 0000.0001)     ;
(PID.TID 0000.0001) selectFindRoSurf=  /* select how Surf.Ref. pressure is defined */
(PID.TID 0000.0001)                       1
(PID.TID 0000.0001)     ;
(PID.TID 0000.0001) rhonil =   /* Reference density ( kg/m^3 ) */
(PID.TID 0000.0001)                 9.998000000000000E+02
(PID.TID 0000.0001)     ;
(PID.TID 0000.0001) rhoConst =   /* Reference density ( kg/m^3 ) */
(PID.TID 0000.0001)                 1.000000000000000E+00
(PID.TID 0000.0001)     ;
(PID.TID 0000.0001) rhoFacC = /* normalized Reference density @ cell-Center (-) */
(PID.TID 0000.0001)     5 @  1.000000000000000E+00              /* K =  1:  5 */
(PID.TID 0000.0001)     ;
(PID.TID 0000.0001) rhoFacF = /* normalized Reference density @ W-Interface (-) */
(PID.TID 0000.0001)     6 @  1.000000000000000E+00              /* K =  1:  6 */
(PID.TID 0000.0001)     ;
(PID.TID 0000.0001) rhoConstFresh =   /* Reference density ( kg/m^3 ) */
(PID.TID 0000.0001)                 1.000000000000000E+03
(PID.TID 0000.0001)     ;
(PID.TID 0000.0001) gravity =   /* Gravitational acceleration ( m/s^2 ) */
(PID.TID 0000.0001)                 9.810000000000000E+00
(PID.TID 0000.0001)     ;
(PID.TID 0000.0001) gBaro =   /* Barotropic gravity ( m/s^2 ) */
(PID.TID 0000.0001)                 9.810000000000000E+00
(PID.TID 0000.0001)     ;
(PID.TID 0000.0001) rotationPeriod =   /* Rotation Period ( s ) */
(PID.TID 0000.0001)                 8.616400000000000E+04
(PID.TID 0000.0001)     ;
(PID.TID 0000.0001) omega =   /* Angular velocity ( rad/s ) */
(PID.TID 0000.0001)                 7.292123516990375E-05
(PID.TID 0000.0001)     ;
(PID.TID 0000.0001) f0 =   /* Reference coriolis parameter ( 1/s ) */
(PID.TID 0000.0001)                 1.000000000000000E-04
(PID.TID 0000.0001)     ;
(PID.TID 0000.0001) beta =   /* Beta ( 1/(m.s) ) */
(PID.TID 0000.0001)                 9.999999999999999E-12
(PID.TID 0000.0001)     ;
(PID.TID 0000.0001) freeSurfFac =   /* Implicit free surface factor */
(PID.TID 0000.0001)                 1.000000000000000E+00
(PID.TID 0000.0001)     ;
(PID.TID 0000.0001) implicitFreeSurface =   /* Implicit free surface on/off flag */
(PID.TID 0000.0001)                   T
(PID.TID 0000.0001)     ;
(PID.TID 0000.0001) rigidLid =   /* Rigid lid on/off flag */
(PID.TID 0000.0001)                   F
(PID.TID 0000.0001)     ;
(PID.TID 0000.0001) implicSurfPress =   /* Surface Pressure implicit factor (0-1)*/
(PID.TID 0000.0001)                 1.000000000000000E+00
(PID.TID 0000.0001)     ;
(PID.TID 0000.0001) implicDiv2Dflow =   /* Barot. Flow Div. implicit factor (0-1)*/
(PID.TID 0000.0001)                 1.000000000000000E+00
(PID.TID 0000.0001)     ;
(PID.TID 0000.0001) exactConserv =   /* Exact Volume Conservation on/off flag*/
(PID.TID 0000.0001)                   T
(PID.TID 0000.0001)     ;
(PID.TID 0000.0001) linFSConserveTr =   /* Tracer correction for Lin Free Surface on/off flag*/
(PID.TID 0000.0001)                   F
(PID.TID 0000.0001)     ;
(PID.TID 0000.0001) uniformLin_PhiSurf =   /* use uniform Bo_surf on/off flag*/
(PID.TID 0000.0001)                   F
(PID.TID 0000.0001)     ;
(PID.TID 0000.0001) nonlinFreeSurf =   /* Non-linear Free Surf. options (-1,0,1,2,3)*/
(PID.TID 0000.0001)                       4
(PID.TID 0000.0001)     ;
(PID.TID 0000.0001)      -1,0= Off ; 1,2,3= On, 2=+rescale gU,gV, 3=+update cg2d solv.
(PID.TID 0000.0001) hFacInf =   /* lower threshold for hFac (nonlinFreeSurf only)*/
(PID.TID 0000.0001)                 2.000000000000000E-01
(PID.TID 0000.0001)     ;
(PID.TID 0000.0001) hFacSup =   /* upper threshold for hFac (nonlinFreeSurf only)*/
(PID.TID 0000.0001)                 2.000000000000000E+00
(PID.TID 0000.0001)     ;
(PID.TID 0000.0001) select_rStar =   /* r* Coordinate options (not yet implemented)*/
(PID.TID 0000.0001)                       2
(PID.TID 0000.0001)     ;
(PID.TID 0000.0001) useRealFreshWaterFlux =   /* Real Fresh Water Flux on/off flag*/
(PID.TID 0000.0001)                   F
(PID.TID 0000.0001)     ;
(PID.TID 0000.0001) convertFW2Salt = /* convert F.W. Flux to Salt Flux (-1=use local S)(ppt)*/
(PID.TID 0000.0001)                 3.500000000000000E+01
(PID.TID 0000.0001)     ;
(PID.TID 0000.0001) use3Dsolver = /* use 3-D pressure solver on/off flag */
(PID.TID 0000.0001)                   F
(PID.TID 0000.0001)     ;
(PID.TID 0000.0001) nonHydrostatic =  /* Non-Hydrostatic on/off flag */
(PID.TID 0000.0001)                   F
(PID.TID 0000.0001)     ;
(PID.TID 0000.0001) nh_Am2 = /* Non-Hydrostatic terms scaling factor */
(PID.TID 0000.0001)                 1.000000000000000E+00
(PID.TID 0000.0001)     ;
(PID.TID 0000.0001) quasiHydrostatic = /* Quasi-Hydrostatic on/off flag */
(PID.TID 0000.0001)                   F
(PID.TID 0000.0001)     ;
(PID.TID 0000.0001) momStepping =  /* Momentum equation on/off flag */
(PID.TID 0000.0001)                   T
(PID.TID 0000.0001)     ;
(PID.TID 0000.0001) vectorInvariantMomentum= /* Vector-Invariant Momentum on/off */
(PID.TID 0000.0001)                   T
(PID.TID 0000.0001)     ;
(PID.TID 0000.0001) momAdvection =  /* Momentum advection on/off flag */
(PID.TID 0000.0001)                   T
(PID.TID 0000.0001)     ;
(PID.TID 0000.0001) momViscosity =  /* Momentum viscosity on/off flag */
(PID.TID 0000.0001)                   T
(PID.TID 0000.0001)     ;
(PID.TID 0000.0001) momImplVertAdv =/* Momentum implicit vert. advection on/off*/
(PID.TID 0000.0001)                   F
(PID.TID 0000.0001)     ;
(PID.TID 0000.0001) implicitViscosity = /* Implicit viscosity on/off flag */
(PID.TID 0000.0001)                   F
(PID.TID 0000.0001)     ;
(PID.TID 0000.0001) metricTerms =  /* metric-Terms on/off flag */
(PID.TID 0000.0001)                   F
(PID.TID 0000.0001)     ;
(PID.TID 0000.0001) useNHMTerms = /* Non-Hydrostatic Metric-Terms on/off */
(PID.TID 0000.0001)                   F
(PID.TID 0000.0001)     ;
(PID.TID 0000.0001) useConstantF =  /* use Constant f0 Coriolis flag */
(PID.TID 0000.0001)                   F
(PID.TID 0000.0001)     ;
(PID.TID 0000.0001) useBetaPlaneF = /* use Beta-Plane Coriolis flag */
(PID.TID 0000.0001)                   F
(PID.TID 0000.0001)     ;
(PID.TID 0000.0001) useSphereF  =   /* use Spherical Coriolis flag */
(PID.TID 0000.0001)                   T
(PID.TID 0000.0001)     ;
(PID.TID 0000.0001) use3dCoriolis = /* 3-D Coriolis on/off flag */
(PID.TID 0000.0001)                   F
(PID.TID 0000.0001)     ;
(PID.TID 0000.0001) useCoriolis =  /* Coriolis on/off flag */
(PID.TID 0000.0001)                   T
(PID.TID 0000.0001)     ;
(PID.TID 0000.0001) useCDscheme =  /* CD scheme on/off flag */
(PID.TID 0000.0001)                   F
(PID.TID 0000.0001)     ;
(PID.TID 0000.0001) useJamartWetPoints= /* Coriolis WetPoints method flag */
(PID.TID 0000.0001)                   T
(PID.TID 0000.0001)     ;
(PID.TID 0000.0001) useJamartMomAdv= /* V.I. Non-linear terms Jamart flag */
(PID.TID 0000.0001)                   F
(PID.TID 0000.0001)     ;
(PID.TID 0000.0001) SadournyCoriolis= /* Sadourny Coriolis discr. flag */
(PID.TID 0000.0001)                   F
(PID.TID 0000.0001)     ;
(PID.TID 0000.0001) upwindVorticity= /* Upwind bias vorticity flag */
(PID.TID 0000.0001)                   F
(PID.TID 0000.0001)     ;
(PID.TID 0000.0001) useAbsVorticity= /* Work with f+zeta in Coriolis */
(PID.TID 0000.0001)                   F
(PID.TID 0000.0001)     ;
(PID.TID 0000.0001) highOrderVorticity= /* High order interp. of vort. flag */
(PID.TID 0000.0001)                   F
(PID.TID 0000.0001)     ;
(PID.TID 0000.0001) upwindShear= /* Upwind vertical Shear advection flag */
(PID.TID 0000.0001)                   F
(PID.TID 0000.0001)     ;
(PID.TID 0000.0001) selectKEscheme= /* Kinetic Energy scheme selector */
(PID.TID 0000.0001)                       0
(PID.TID 0000.0001)     ;
(PID.TID 0000.0001) momForcing =  /* Momentum forcing on/off flag */
(PID.TID 0000.0001)                   T
(PID.TID 0000.0001)     ;
(PID.TID 0000.0001) momPressureForcing =  /* Momentum pressure term on/off flag */
(PID.TID 0000.0001)                   T
(PID.TID 0000.0001)     ;
(PID.TID 0000.0001) implicitIntGravWave= /* Implicit Internal Gravity Wave flag */
(PID.TID 0000.0001)                   F
(PID.TID 0000.0001)     ;
(PID.TID 0000.0001) staggerTimeStep =   /* Stagger time stepping on/off flag */
(PID.TID 0000.0001)                   T
(PID.TID 0000.0001)     ;
(PID.TID 0000.0001) multiDimAdvection =   /* enable/disable Multi-Dim Advection */
(PID.TID 0000.0001)                   T
(PID.TID 0000.0001)     ;
(PID.TID 0000.0001) useMultiDimAdvec =   /* Multi-Dim Advection is/is-not used */
(PID.TID 0000.0001)                   F
(PID.TID 0000.0001)     ;
(PID.TID 0000.0001) implicitDiffusion =/* Implicit Diffusion on/off flag */
(PID.TID 0000.0001)                   F
(PID.TID 0000.0001)     ;
(PID.TID 0000.0001) tempStepping =  /* Temperature equation on/off flag */
(PID.TID 0000.0001)                   T
(PID.TID 0000.0001)     ;
(PID.TID 0000.0001) tempAdvection=  /* Temperature advection on/off flag */
(PID.TID 0000.0001)                   T
(PID.TID 0000.0001)     ;
(PID.TID 0000.0001) tempImplVertAdv =/* Temp. implicit vert. advection on/off */
(PID.TID 0000.0001)                   F
(PID.TID 0000.0001)     ;
(PID.TID 0000.0001) tempForcing  =  /* Temperature forcing on/off flag */
(PID.TID 0000.0001)                   T
(PID.TID 0000.0001)     ;
(PID.TID 0000.0001) saltStepping =  /* Salinity equation on/off flag */
(PID.TID 0000.0001)                   T
(PID.TID 0000.0001)     ;
(PID.TID 0000.0001) saltAdvection=  /* Salinity advection on/off flag */
(PID.TID 0000.0001)                   T
(PID.TID 0000.0001)     ;
(PID.TID 0000.0001) saltImplVertAdv =/* Sali. implicit vert. advection on/off */
(PID.TID 0000.0001)                   F
(PID.TID 0000.0001)     ;
(PID.TID 0000.0001) saltForcing  =  /* Salinity forcing on/off flag */
(PID.TID 0000.0001)                   T
(PID.TID 0000.0001)     ;
(PID.TID 0000.0001)  readBinaryPrec = /* Precision used for reading binary files */
(PID.TID 0000.0001)                      64
(PID.TID 0000.0001)     ;
(PID.TID 0000.0001) writeBinaryPrec = /* Precision used for writing binary files */
(PID.TID 0000.0001)                      64
(PID.TID 0000.0001)     ;
(PID.TID 0000.0001)  globalFiles = /* write "global" (=not per tile) files */
(PID.TID 0000.0001)                   F
(PID.TID 0000.0001)     ;
(PID.TID 0000.0001)  useSingleCpuIO = /* only master MPI process does I/O */
(PID.TID 0000.0001)                   F
(PID.TID 0000.0001)     ;
(PID.TID 0000.0001)  debugMode  =  /* Debug Mode on/off flag */
(PID.TID 0000.0001)                   F
(PID.TID 0000.0001)     ;
(PID.TID 0000.0001)    debLevA  =  /* 1rst level of debugging */
(PID.TID 0000.0001)                       1
(PID.TID 0000.0001)     ;
(PID.TID 0000.0001)    debLevB  =  /* 2nd  level of debugging */
(PID.TID 0000.0001)                       2
(PID.TID 0000.0001)     ;
(PID.TID 0000.0001)  debugLevel =  /* select debugging level */
(PID.TID 0000.0001)                       1
(PID.TID 0000.0001)     ;
(PID.TID 0000.0001) //
(PID.TID 0000.0001) // Elliptic solver(s) paramters ( PARM02 in namelist )
(PID.TID 0000.0001) //
(PID.TID 0000.0001) cg2dMaxIters =   /* Upper limit on 2d con. grad iterations  */
(PID.TID 0000.0001)                     200
(PID.TID 0000.0001)     ;
(PID.TID 0000.0001) cg2dChkResFreq =   /* 2d con. grad convergence test frequency */
(PID.TID 0000.0001)                       1
(PID.TID 0000.0001)     ;
(PID.TID 0000.0001) cg2dTargetResidual =   /* 2d con. grad target residual  */
(PID.TID 0000.0001)                 1.000000000000000E-07
(PID.TID 0000.0001)     ;
(PID.TID 0000.0001) cg2dTargetResWunit =   /* CG2d target residual [W units] */
(PID.TID 0000.0001)                 1.000000000000000E-17
(PID.TID 0000.0001)     ;
(PID.TID 0000.0001) cg2dPreCondFreq =   /* Freq. for updating cg2d preconditioner */
(PID.TID 0000.0001)                       1
(PID.TID 0000.0001)     ;
(PID.TID 0000.0001) //
(PID.TID 0000.0001) // Time stepping paramters ( PARM03 in namelist )
(PID.TID 0000.0001) //
(PID.TID 0000.0001) nIter0 =   /* Run starting timestep number  */
(PID.TID 0000.0001)                       0
(PID.TID 0000.0001)     ;
(PID.TID 0000.0001) nTimeSteps =   /* Number of timesteps */
(PID.TID 0000.0001)                      40
(PID.TID 0000.0001)     ;
(PID.TID 0000.0001) deltaTmom =   /* Momentum equation timestep ( s ) */
(PID.TID 0000.0001)                 4.500000000000000E+02
(PID.TID 0000.0001)     ;
(PID.TID 0000.0001) deltaTfreesurf =   /* FreeSurface equation timestep ( s ) */
(PID.TID 0000.0001)                 4.500000000000000E+02
(PID.TID 0000.0001)     ;
(PID.TID 0000.0001) dTtracerLev =   /* Tracer equation timestep ( s ) */
(PID.TID 0000.0001)     5 @  4.500000000000000E+02              /* K =  1:  5 */
(PID.TID 0000.0001)     ;
(PID.TID 0000.0001) deltaTClock  =   /* Model clock timestep ( s ) */
(PID.TID 0000.0001)                 4.500000000000000E+02
(PID.TID 0000.0001)     ;
(PID.TID 0000.0001) cAdjFreq =   /* Convective adjustment interval ( s ) */
(PID.TID 0000.0001)                 0.000000000000000E+00
(PID.TID 0000.0001)     ;
(PID.TID 0000.0001) momForcingOutAB = /* =1: take Momentum Forcing out of Adams-Bash. stepping */
(PID.TID 0000.0001)                       0
(PID.TID 0000.0001)     ;
(PID.TID 0000.0001) tracForcingOutAB = /* =1: take T,S,pTr Forcing out of Adams-Bash. stepping */
(PID.TID 0000.0001)                       1
(PID.TID 0000.0001)     ;
(PID.TID 0000.0001) momDissip_In_AB = /* put Dissipation Tendency in Adams-Bash. stepping */
(PID.TID 0000.0001)                   T
(PID.TID 0000.0001)     ;
(PID.TID 0000.0001) doAB_onGtGs = /* apply AB on Tendencies (rather than on T,S)*/
(PID.TID 0000.0001)                   T
(PID.TID 0000.0001)     ;
(PID.TID 0000.0001) abEps =   /* Adams-Bashforth-2 stabilizing weight */
(PID.TID 0000.0001)                 1.000000000000000E-01
(PID.TID 0000.0001)     ;
(PID.TID 0000.0001) baseTime =   /* Model base time ( s ). */
(PID.TID 0000.0001)                 0.000000000000000E+00
(PID.TID 0000.0001)     ;
(PID.TID 0000.0001) startTime =   /* Run start time ( s ). */
(PID.TID 0000.0001)                 0.000000000000000E+00
(PID.TID 0000.0001)     ;
(PID.TID 0000.0001) endTime =   /* Integration ending time ( s ). */
(PID.TID 0000.0001)                 1.800000000000000E+04
(PID.TID 0000.0001)     ;
(PID.TID 0000.0001) pChkPtFreq =   /* Permanent restart/checkpoint file interval ( s ). */
(PID.TID 0000.0001)                 2.592000000000000E+06
(PID.TID 0000.0001)     ;
(PID.TID 0000.0001) chkPtFreq =   /* Rolling restart/checkpoint file interval ( s ). */
(PID.TID 0000.0001)                 0.000000000000000E+00
(PID.TID 0000.0001)     ;
(PID.TID 0000.0001) pickup_write_mdsio =   /* Model IO flag. */
(PID.TID 0000.0001)                   T
(PID.TID 0000.0001)     ;
(PID.TID 0000.0001) pickup_read_mdsio =   /* Model IO flag. */
(PID.TID 0000.0001)                   T
(PID.TID 0000.0001)     ;
(PID.TID 0000.0001) pickup_write_mnc =   /* Model IO flag. */
(PID.TID 0000.0001)                   F
(PID.TID 0000.0001)     ;
(PID.TID 0000.0001) pickup_read_mnc =   /* Model IO flag. */
(PID.TID 0000.0001)                   F
(PID.TID 0000.0001)     ;
(PID.TID 0000.0001) pickup_write_immed =   /* Model IO flag. */
(PID.TID 0000.0001)                   F
(PID.TID 0000.0001)     ;
(PID.TID 0000.0001) dumpFreq =   /* Model state write out interval ( s ). */
(PID.TID 0000.0001)                 2.592000000000000E+06
(PID.TID 0000.0001)     ;
(PID.TID 0000.0001) dumpInitAndLast= /* write out Initial & Last iter. model state */
(PID.TID 0000.0001)                   T
(PID.TID 0000.0001)     ;
(PID.TID 0000.0001) snapshot_mdsio =   /* Model IO flag. */
(PID.TID 0000.0001)                   T
(PID.TID 0000.0001)     ;
(PID.TID 0000.0001) snapshot_mnc =   /* Model IO flag. */
(PID.TID 0000.0001)                   F
(PID.TID 0000.0001)     ;
(PID.TID 0000.0001) monitorFreq =   /* Monitor output interval ( s ). */
(PID.TID 0000.0001)                 1.000000000000000E+00
(PID.TID 0000.0001)     ;
(PID.TID 0000.0001) monitor_stdio =   /* Model IO flag. */
(PID.TID 0000.0001)                   T
(PID.TID 0000.0001)     ;
(PID.TID 0000.0001) monitor_mnc =   /* Model IO flag. */
(PID.TID 0000.0001)                   F
(PID.TID 0000.0001)     ;
(PID.TID 0000.0001) externForcingPeriod =   /* forcing period (s) */
(PID.TID 0000.0001)                 0.000000000000000E+00
(PID.TID 0000.0001)     ;
(PID.TID 0000.0001) externForcingCycle =   /* period of the cyle (s). */
(PID.TID 0000.0001)                 0.000000000000000E+00
(PID.TID 0000.0001)     ;
(PID.TID 0000.0001) tauThetaClimRelax =   /* relaxation time scale (s) */
(PID.TID 0000.0001)                 0.000000000000000E+00
(PID.TID 0000.0001)     ;
(PID.TID 0000.0001) tauSaltClimRelax =   /* relaxation time scale (s) */
(PID.TID 0000.0001)                 0.000000000000000E+00
(PID.TID 0000.0001)     ;
(PID.TID 0000.0001) latBandClimRelax =   /* max. Lat. where relaxation */
(PID.TID 0000.0001)                 1.800000000000000E+02
(PID.TID 0000.0001)     ;
(PID.TID 0000.0001) //
(PID.TID 0000.0001) // Gridding paramters ( PARM04 in namelist )
(PID.TID 0000.0001) //
(PID.TID 0000.0001) usingCartesianGrid = /* Cartesian coordinates flag ( True/False ) */
(PID.TID 0000.0001)                   F
(PID.TID 0000.0001)     ;
(PID.TID 0000.0001) usingCylindricalGrid = /* Cylindrical coordinates flag ( True/False ) */
(PID.TID 0000.0001)                   F
(PID.TID 0000.0001)     ;
(PID.TID 0000.0001) usingSphericalPolarGrid = /* Spherical coordinates flag ( True/False ) */
(PID.TID 0000.0001)                   F
(PID.TID 0000.0001)     ;
(PID.TID 0000.0001) usingCurvilinearGrid = /* Curvilinear coordinates flag ( True/False ) */
(PID.TID 0000.0001)                   T
(PID.TID 0000.0001)     ;
(PID.TID 0000.0001) Ro_SeaLevel = /* r(1) ( units of r ) */
(PID.TID 0000.0001)                 1.000000000000000E+05
(PID.TID 0000.0001)     ;
(PID.TID 0000.0001) rkSign =   /* index orientation relative to vertical coordinate */
(PID.TID 0000.0001)                -1.000000000000000E+00
(PID.TID 0000.0001)     ;
(PID.TID 0000.0001) gravitySign = /* gravity orientation relative to vertical coordinate */
(PID.TID 0000.0001)                 1.000000000000000E+00
(PID.TID 0000.0001)     ;
(PID.TID 0000.0001) horiVertRatio =   /* Ratio on units : Horiz - Vertical */
(PID.TID 0000.0001)                 9.810000000000000E+00
(PID.TID 0000.0001)     ;
(PID.TID 0000.0001) drC =   /* C spacing ( units of r ) */
(PID.TID 0000.0001)                 5.000000000000000E+03,      /* K =  1 */
(PID.TID 0000.0001)                 1.750000000000000E+04,      /* K =  2 */
(PID.TID 0000.0001)                 2.750000000000000E+04,      /* K =  3 */
(PID.TID 0000.0001)                 2.500000000000000E+04,      /* K =  4 */
(PID.TID 0000.0001)                 1.750000000000000E+04       /* K =  5 */
(PID.TID 0000.0001)     ;
(PID.TID 0000.0001) drF =   /* W spacing ( units of r ) */
(PID.TID 0000.0001)                 1.000000000000000E+04,      /* K =  1 */
(PID.TID 0000.0001)                 2.500000000000000E+04,      /* K =  2 */
(PID.TID 0000.0001)                 3.000000000000000E+04,      /* K =  3 */
(PID.TID 0000.0001)                 2.000000000000000E+04,      /* K =  4 */
(PID.TID 0000.0001)                 1.500000000000000E+04       /* K =  5 */
(PID.TID 0000.0001)     ;
(PID.TID 0000.0001) delX =   /* U spacing ( m - cartesian, degrees - spherical ) */
(PID.TID 0000.0001)   192 @  1.234567000000000E+05              /* I =  1:192 */
(PID.TID 0000.0001)     ;
(PID.TID 0000.0001) delY =   /* V spacing ( m - cartesian, degrees - spherical ) */
(PID.TID 0000.0001)    32 @  1.234567000000000E+05              /* J =  1: 32 */
(PID.TID 0000.0001)     ;
(PID.TID 0000.0001) phiMin =    /* South edge (ignored - cartesian, degrees - spherical ) */
(PID.TID 0000.0001)                 0.000000000000000E+00
(PID.TID 0000.0001)     ;
(PID.TID 0000.0001) thetaMin =    /* West edge ( ignored - cartesian, degrees - spherical ) */
(PID.TID 0000.0001)                 0.000000000000000E+00
(PID.TID 0000.0001)     ;
(PID.TID 0000.0001) rSphere =  /* Radius ( ignored - cartesian, m - spherical ) */
(PID.TID 0000.0001)                 6.370000000000000E+06
(PID.TID 0000.0001)     ;
(PID.TID 0000.0001) deepAtmosphere = /* Deep/Shallow Atmosphere flag (True/False) */
(PID.TID 0000.0001)                   F
(PID.TID 0000.0001)     ;
(PID.TID 0000.0001) xcoord =   /* P-point X coord ( m - cartesian, degrees - spherical ) */
(PID.TID 0000.0001)                -4.439521994760536E+01,      /* I =  1 */
(PID.TID 0000.0001)                -4.295641272275883E+01,      /* I =  2 */
(PID.TID 0000.0001)                -4.122055553388957E+01,      /* I =  3 */
(PID.TID 0000.0001)                -3.923446288487304E+01,      /* I =  4 */
(PID.TID 0000.0001)                -3.702585158682200E+01,      /* I =  5 */
(PID.TID 0000.0001)                -3.461179367094151E+01,      /* I =  6 */
(PID.TID 0000.0001)                -3.200434569041793E+01,      /* I =  7 */
(PID.TID 0000.0001)                -2.921355965632675E+01,      /* I =  8 */
(PID.TID 0000.0001)                -2.624932223028290E+01,      /* I =  9 */
(PID.TID 0000.0001)                -2.312261250426344E+01,      /* I = 10 */
(PID.TID 0000.0001)                -1.984640717127058E+01,      /* I = 11 */
(PID.TID 0000.0001)                -1.643630800555134E+01,      /* I = 12 */
(PID.TID 0000.0001)                -1.291089806302069E+01,      /* I = 13 */
(PID.TID 0000.0001)                -9.291807802719402E+00,      /* I = 14 */
(PID.TID 0000.0001)                -5.603475335822332E+00,      /* I = 15 */
(PID.TID 0000.0001)                -1.872608513033445E+00,      /* I = 16 */
(PID.TID 0000.0001)                 1.872608513033445E+00,      /* I = 17 */
(PID.TID 0000.0001)                 5.603475335822332E+00,      /* I = 18 */
(PID.TID 0000.0001)                 9.291807802719402E+00,      /* I = 19 */
(PID.TID 0000.0001)                 1.291089806302069E+01,      /* I = 20 */
(PID.TID 0000.0001)                 1.643630800555134E+01,      /* I = 21 */
(PID.TID 0000.0001)                 1.984640717127058E+01,      /* I = 22 */
(PID.TID 0000.0001)                 2.312261250426344E+01,      /* I = 23 */
(PID.TID 0000.0001)                 2.624932223028290E+01,      /* I = 24 */
(PID.TID 0000.0001)                 2.921355965632675E+01,      /* I = 25 */
(PID.TID 0000.0001)                 3.200434569041793E+01,      /* I = 26 */
(PID.TID 0000.0001)                 3.461179367094151E+01,      /* I = 27 */
(PID.TID 0000.0001)                 3.702585158682200E+01,      /* I = 28 */
(PID.TID 0000.0001)                 3.923446288487304E+01,      /* I = 29 */
(PID.TID 0000.0001)                 4.122055553388957E+01,      /* I = 30 */
(PID.TID 0000.0001)                 4.295641272275883E+01,      /* I = 31 */
(PID.TID 0000.0001)                 4.439521994760536E+01,      /* I = 32 */
(PID.TID 0000.0001)                 4.560478005239464E+01,      /* I = 33 */
(PID.TID 0000.0001)                 4.704358727724117E+01,      /* I = 34 */
(PID.TID 0000.0001)                 4.877944446611043E+01,      /* I = 35 */
(PID.TID 0000.0001)                 5.076553711512697E+01,      /* I = 36 */
(PID.TID 0000.0001)                 5.297414841317801E+01,      /* I = 37 */
(PID.TID 0000.0001)                 5.538820632905850E+01,      /* I = 38 */
(PID.TID 0000.0001)                 5.799565430958209E+01,      /* I = 39 */
(PID.TID 0000.0001)                 6.078644034367325E+01,      /* I = 40 */
(PID.TID 0000.0001)                 6.375067776971711E+01,      /* I = 41 */
(PID.TID 0000.0001)                 6.687738749573657E+01,      /* I = 42 */
(PID.TID 0000.0001)                 7.015359282872943E+01,      /* I = 43 */
(PID.TID 0000.0001)                 7.356369199444866E+01,      /* I = 44 */
(PID.TID 0000.0001)                 7.708910193697932E+01,      /* I = 45 */
(PID.TID 0000.0001)                 8.070819219728060E+01,      /* I = 46 */
(PID.TID 0000.0001)                 8.439652466417766E+01,      /* I = 47 */
(PID.TID 0000.0001)                 8.812739148696656E+01,      /* I = 48 */
(PID.TID 0000.0001)                 9.187260851303344E+01,      /* I = 49 */
(PID.TID 0000.0001)                 9.560347533582234E+01,      /* I = 50 */
(PID.TID 0000.0001)                 9.929180780271940E+01,      /* I = 51 */
(PID.TID 0000.0001)                 1.029108980630207E+02,      /* I = 52 */
(PID.TID 0000.0001)                 1.064363080055513E+02,      /* I = 53 */
(PID.TID 0000.0001)                 1.098464071712706E+02,      /* I = 54 */
(PID.TID 0000.0001)                 1.131226125042634E+02,      /* I = 55 */
(PID.TID 0000.0001)                 1.162493222302829E+02,      /* I = 56 */
(PID.TID 0000.0001)                 1.192135596563268E+02,      /* I = 57 */
(PID.TID 0000.0001)                 1.220043456904179E+02,      /* I = 58 */
(PID.TID 0000.0001)                 1.246117936709415E+02,      /* I = 59 */
(PID.TID 0000.0001)                 1.270258515868220E+02,      /* I = 60 */
(PID.TID 0000.0001)                 1.292344628848730E+02,      /* I = 61 */
(PID.TID 0000.0001)                 1.312205555338896E+02,      /* I = 62 */
(PID.TID 0000.0001)                 1.329564127227588E+02,      /* I = 63 */
(PID.TID 0000.0001)                 1.343952199476053E+02,      /* I = 64 */
(PID.TID 0000.0001)                 4.500000000000000E+01,      /* I = 65 */
(PID.TID 0000.0001)                 4.620805468796297E+01,      /* I = 66 */
(PID.TID 0000.0001)                 4.781369642513039E+01,      /* I = 67 */
(PID.TID 0000.0001)                 4.971767671143929E+01,      /* I = 68 */
(PID.TID 0000.0001)                 5.187738319787235E+01,      /* I = 69 */
(PID.TID 0000.0001)                 5.427004371478710E+01,      /* I = 70 */
(PID.TID 0000.0001)                 5.688128325334060E+01,      /* I = 71 */
(PID.TID 0000.0001)                 5.970018167786760E+01,      /* I = 72 */
(PID.TID 0000.0001)                 6.271654991792347E+01,      /* I = 73 */
(PID.TID 0000.0001)                 6.591914604853015E+01,      /* I = 74 */
(PID.TID 0000.0001)                 6.929439270484148E+01,      /* I = 75 */
(PID.TID 0000.0001)                 7.282545807616151E+01,      /* I = 76 */
(PID.TID 0000.0001)                 7.649168830618933E+01,      /* I = 77 */
(PID.TID 0000.0001)                 8.026842803787176E+01,      /* I = 78 */
(PID.TID 0000.0001)                 8.412726743124185E+01,      /* I = 79 */
(PID.TID 0000.0001)                 8.803672008547504E+01,      /* I = 80 */
(PID.TID 0000.0001)                 9.196327991452496E+01,      /* I = 81 */
(PID.TID 0000.0001)                 9.587273256875815E+01,      /* I = 82 */
(PID.TID 0000.0001)                 9.973157196212824E+01,      /* I = 83 */
(PID.TID 0000.0001)                 1.035083116938107E+02,      /* I = 84 */
(PID.TID 0000.0001)                 1.071745419238385E+02,      /* I = 85 */
(PID.TID 0000.0001)                 1.107056072951585E+02,      /* I = 86 */
(PID.TID 0000.0001)                 1.140808539514698E+02,      /* I = 87 */
(PID.TID 0000.0001)                 1.172834500820765E+02,      /* I = 88 */
(PID.TID 0000.0001)                 1.202998183221324E+02,      /* I = 89 */
(PID.TID 0000.0001)                 1.231187167466594E+02,      /* I = 90 */
(PID.TID 0000.0001)                 1.257299562852129E+02,      /* I = 91 */
(PID.TID 0000.0001)                 1.281226168021277E+02,      /* I = 92 */
(PID.TID 0000.0001)                 1.302823232885607E+02,      /* I = 93 */
(PID.TID 0000.0001)                 1.321863035748696E+02,      /* I = 94 */
(PID.TID 0000.0001)                 1.337919453120370E+02,      /* I = 95 */
(PID.TID 0000.0001)                 1.350000000000000E+02,      /* I = 96 */
(PID.TID 0000.0001)                 1.356047800523947E+02,      /* I = 97 */
(PID.TID 0000.0001)                 1.358367907661329E+02,      /* I = 98 */
(PID.TID 0000.0001)                 1.359720382181193E+02,      /* I = 99 */
(PID.TID 0000.0001)                 1.360654656901789E+02,      /* I =100 */
(PID.TID 0000.0001)                 1.361344533147042E+02,      /* I =101 */
(PID.TID 0000.0001)                 1.361871219420981E+02,      /* I =102 */
(PID.TID 0000.0001)                 1.362280794509603E+02,      /* I =103 */
(PID.TID 0000.0001)                 1.362602511071934E+02,      /* I =104 */
(PID.TID 0000.0001)                 1.362856280326734E+02,      /* I =105 */
(PID.TID 0000.0001)                 1.363056266270901E+02,      /* I =106 */
(PID.TID 0000.0001)                 1.363212817739446E+02,      /* I =107 */
(PID.TID 0000.0001)                 1.363333595910255E+02,      /* I =108 */
(PID.TID 0000.0001)                 1.363424272425760E+02,      /* I =109 */
(PID.TID 0000.0001)                 1.363488978790713E+02,      /* I =110 */
(PID.TID 0000.0001)                 1.363530600590580E+02,      /* I =111 */
(PID.TID 0000.0001)     2 @  1.363550967500717E+02,             /* I =112:113 */
(PID.TID 0000.0001)                 1.363530600590580E+02,      /* I =114 */
(PID.TID 0000.0001)                 1.363488978790713E+02,      /* I =115 */
(PID.TID 0000.0001)                 1.363424272425760E+02,      /* I =116 */
(PID.TID 0000.0001)                 1.363333595910255E+02,      /* I =117 */
(PID.TID 0000.0001)                 1.363212817739446E+02,      /* I =118 */
(PID.TID 0000.0001)                 1.363056266270901E+02,      /* I =119 */
(PID.TID 0000.0001)                 1.362856280326734E+02,      /* I =120 */
(PID.TID 0000.0001)                 1.362602511071934E+02,      /* I =121 */
(PID.TID 0000.0001)                 1.362280794509603E+02,      /* I =122 */
(PID.TID 0000.0001)                 1.361871219420981E+02,      /* I =123 */
(PID.TID 0000.0001)                 1.361344533147042E+02,      /* I =124 */
(PID.TID 0000.0001)                 1.360654656901789E+02,      /* I =125 */
(PID.TID 0000.0001)                 1.359720382181193E+02,      /* I =126 */
(PID.TID 0000.0001)                 1.358367907661329E+02,      /* I =127 */
(PID.TID 0000.0001)                 1.356047800523947E+02,      /* I =128 */
(PID.TID 0000.0001)                -1.343952199476053E+02,      /* I =129 */
(PID.TID 0000.0001)                -1.341632092338671E+02,      /* I =130 */
(PID.TID 0000.0001)                -1.340279617818807E+02,      /* I =131 */
(PID.TID 0000.0001)                -1.339345343098211E+02,      /* I =132 */
(PID.TID 0000.0001)                -1.338655466852958E+02,      /* I =133 */
(PID.TID 0000.0001)                -1.338128780579019E+02,      /* I =134 */
(PID.TID 0000.0001)                -1.337719205490397E+02,      /* I =135 */
(PID.TID 0000.0001)                -1.337397488928066E+02,      /* I =136 */
(PID.TID 0000.0001)                -1.337143719673266E+02,      /* I =137 */
(PID.TID 0000.0001)                -1.336943733729099E+02,      /* I =138 */
(PID.TID 0000.0001)                -1.336787182260554E+02,      /* I =139 */
(PID.TID 0000.0001)                -1.336666404089745E+02,      /* I =140 */
(PID.TID 0000.0001)                -1.336575727574240E+02,      /* I =141 */
(PID.TID 0000.0001)                -1.336511021209287E+02,      /* I =142 */
(PID.TID 0000.0001)                -1.336469399409420E+02,      /* I =143 */
(PID.TID 0000.0001)     2 @ -1.336449032499283E+02,             /* I =144:145 */
(PID.TID 0000.0001)                -1.336469399409420E+02,      /* I =146 */
(PID.TID 0000.0001)                -1.336511021209287E+02,      /* I =147 */
(PID.TID 0000.0001)                -1.336575727574240E+02,      /* I =148 */
(PID.TID 0000.0001)                -1.336666404089745E+02,      /* I =149 */
(PID.TID 0000.0001)                -1.336787182260554E+02,      /* I =150 */
(PID.TID 0000.0001)                -1.336943733729099E+02,      /* I =151 */
(PID.TID 0000.0001)                -1.337143719673266E+02,      /* I =152 */
(PID.TID 0000.0001)                -1.337397488928066E+02,      /* I =153 */
(PID.TID 0000.0001)                -1.337719205490397E+02,      /* I =154 */
(PID.TID 0000.0001)                -1.338128780579019E+02,      /* I =155 */
(PID.TID 0000.0001)                -1.338655466852958E+02,      /* I =156 */
(PID.TID 0000.0001)                -1.339345343098211E+02,      /* I =157 */
(PID.TID 0000.0001)                -1.340279617818807E+02,      /* I =158 */
(PID.TID 0000.0001)                -1.341632092338671E+02,      /* I =159 */
(PID.TID 0000.0001)                -1.343952199476053E+02,      /* I =160 */
(PID.TID 0000.0001)                -1.350000000000000E+02,      /* I =161 */
(PID.TID 0000.0001)                -1.362080546879630E+02,      /* I =162 */
(PID.TID 0000.0001)                -1.378136964251304E+02,      /* I =163 */
(PID.TID 0000.0001)                -1.397176767114393E+02,      /* I =164 */
(PID.TID 0000.0001)                -1.418773831978723E+02,      /* I =165 */
(PID.TID 0000.0001)                -1.442700437147871E+02,      /* I =166 */
(PID.TID 0000.0001)                -1.468812832533406E+02,      /* I =167 */
(PID.TID 0000.0001)                -1.497001816778676E+02,      /* I =168 */
(PID.TID 0000.0001)                -1.527165499179235E+02,      /* I =169 */
(PID.TID 0000.0001)                -1.559191460485302E+02,      /* I =170 */
(PID.TID 0000.0001)                -1.592943927048415E+02,      /* I =171 */
(PID.TID 0000.0001)                -1.628254580761615E+02,      /* I =172 */
(PID.TID 0000.0001)                -1.664916883061893E+02,      /* I =173 */
(PID.TID 0000.0001)                -1.702684280378718E+02,      /* I =174 */
(PID.TID 0000.0001)                -1.741272674312418E+02,      /* I =175 */
(PID.TID 0000.0001)                -1.780367200854751E+02,      /* I =176 */
(PID.TID 0000.0001)                 1.780367200854751E+02,      /* I =177 */
(PID.TID 0000.0001)                 1.741272674312418E+02,      /* I =178 */
(PID.TID 0000.0001)                 1.702684280378718E+02,      /* I =179 */
(PID.TID 0000.0001)                 1.664916883061893E+02,      /* I =180 */
(PID.TID 0000.0001)                 1.628254580761615E+02,      /* I =181 */
(PID.TID 0000.0001)                 1.592943927048415E+02,      /* I =182 */
(PID.TID 0000.0001)                 1.559191460485302E+02,      /* I =183 */
(PID.TID 0000.0001)                 1.527165499179235E+02,      /* I =184 */
(PID.TID 0000.0001)                 1.497001816778676E+02,      /* I =185 */
(PID.TID 0000.0001)                 1.468812832533406E+02,      /* I =186 */
(PID.TID 0000.0001)                 1.442700437147871E+02,      /* I =187 */
(PID.TID 0000.0001)                 1.418773831978723E+02,      /* I =188 */
(PID.TID 0000.0001)                 1.397176767114393E+02,      /* I =189 */
(PID.TID 0000.0001)                 1.378136964251304E+02,      /* I =190 */
(PID.TID 0000.0001)                 1.362080546879630E+02,      /* I =191 */
(PID.TID 0000.0001)                 1.350000000000000E+02       /* I =192 */
(PID.TID 0000.0001)     ;
(PID.TID 0000.0001) ycoord =   /* P-point Y coord ( m - cartesian, degrees - spherical ) */
(PID.TID 0000.0001)                -3.497677942598243E+01,      /* J =  1 */
(PID.TID 0000.0001)                -3.374005967394886E+01,      /* J =  2 */
(PID.TID 0000.0001)                -3.220655175667454E+01,      /* J =  3 */
(PID.TID 0000.0001)                -3.045756348838641E+01,      /* J =  4 */
(PID.TID 0000.0001)                -2.853728129852918E+01,      /* J =  5 */
(PID.TID 0000.0001)                -2.647426640173173E+01,      /* J =  6 */
(PID.TID 0000.0001)                -2.428936657094636E+01,      /* J =  7 */
(PID.TID 0000.0001)                -2.199915808312262E+01,      /* J =  8 */
(PID.TID 0000.0001)                -1.961768597440146E+01,      /* J =  9 */
(PID.TID 0000.0001)                -1.715743888281371E+01,      /* J = 10 */
(PID.TID 0000.0001)                -1.462993396899330E+01,      /* J = 11 */
(PID.TID 0000.0001)                -1.204608340464756E+01,      /* J = 12 */
(PID.TID 0000.0001)                -9.416429130284818E+00,      /* J = 13 */
(PID.TID 0000.0001)                -6.751293662992216E+00,      /* J = 14 */
(PID.TID 0000.0001)                -4.060875511835959E+00,      /* J = 15 */
(PID.TID 0000.0001)                -1.355307764409121E+00,      /* J = 16 */
(PID.TID 0000.0001)                 1.355307764409121E+00,      /* J = 17 */
(PID.TID 0000.0001)                 4.060875511835959E+00,      /* J = 18 */
(PID.TID 0000.0001)                 6.751293662992216E+00,      /* J = 19 */
(PID.TID 0000.0001)                 9.416429130284818E+00,      /* J = 20 */
(PID.TID 0000.0001)                 1.204608340464756E+01,      /* J = 21 */
(PID.TID 0000.0001)                 1.462993396899330E+01,      /* J = 22 */
(PID.TID 0000.0001)                 1.715743888281371E+01,      /* J = 23 */
(PID.TID 0000.0001)                 1.961768597440146E+01,      /* J = 24 */
(PID.TID 0000.0001)                 2.199915808312262E+01,      /* J = 25 */
(PID.TID 0000.0001)                 2.428936657094636E+01,      /* J = 26 */
(PID.TID 0000.0001)                 2.647426640173173E+01,      /* J = 27 */
(PID.TID 0000.0001)                 2.853728129852918E+01,      /* J = 28 */
(PID.TID 0000.0001)                 3.045756348838641E+01,      /* J = 29 */
(PID.TID 0000.0001)                 3.220655175667454E+01,      /* J = 30 */
(PID.TID 0000.0001)                 3.374005967394886E+01,      /* J = 31 */
(PID.TID 0000.0001)                 3.497677942598243E+01       /* J = 32 */
(PID.TID 0000.0001)     ;
(PID.TID 0000.0001) rcoord =   /* P-point R coordinate (  units of r ) */
(PID.TID 0000.0001)                 9.500000000000000E+04,      /* K =  1 */
(PID.TID 0000.0001)                 7.750000000000000E+04,      /* K =  2 */
(PID.TID 0000.0001)                 5.000000000000000E+04,      /* K =  3 */
(PID.TID 0000.0001)                 2.500000000000000E+04,      /* K =  4 */
(PID.TID 0000.0001)                 7.500000000000000E+03       /* K =  5 */
(PID.TID 0000.0001)     ;
(PID.TID 0000.0001) rF =   /* W-Interf. R coordinate (  units of r ) */
(PID.TID 0000.0001)                 1.000000000000000E+05,      /* K =  1 */
(PID.TID 0000.0001)                 9.000000000000000E+04,      /* K =  2 */
(PID.TID 0000.0001)                 6.500000000000000E+04,      /* K =  3 */
(PID.TID 0000.0001)                 3.500000000000000E+04,      /* K =  4 */
(PID.TID 0000.0001)                 1.500000000000000E+04,      /* K =  5 */
(PID.TID 0000.0001)                 0.000000000000000E+00       /* K =  6 */
(PID.TID 0000.0001)     ;
(PID.TID 0000.0001) deepFacC = /* deep-model grid factor @ cell-Center (-) */
(PID.TID 0000.0001)     5 @  1.000000000000000E+00              /* K =  1:  5 */
(PID.TID 0000.0001)     ;
(PID.TID 0000.0001) deepFacF = /* deep-model grid factor @ W-Interface (-) */
(PID.TID 0000.0001)     6 @  1.000000000000000E+00              /* K =  1:  6 */
(PID.TID 0000.0001)     ;
(PID.TID 0000.0001) dBdrRef = /* Vertical gradient of reference boyancy [(m/s/r)^2)] */
(PID.TID 0000.0001)                 0.000000000000000E+00,      /* K =  1 */
(PID.TID 0000.0001)                 1.551846956946958E-06,      /* K =  2 */
(PID.TID 0000.0001)                 2.382518577942705E-06,      /* K =  3 */
(PID.TID 0000.0001)                 5.042981208886097E-06,      /* K =  4 */
(PID.TID 0000.0001)                 6.524166098263503E-05       /* K =  5 */
(PID.TID 0000.0001)     ;
(PID.TID 0000.0001) dxF =  /* dxF(:,1,:,1) ( units: m ) */
(PID.TID 0000.0001)                 1.202082051331828E+05,      /* I =  1 */
(PID.TID 0000.0001)                 1.563594089971120E+05,      /* I =  2 */
(PID.TID 0000.0001)                 1.835530058121492E+05,      /* I =  3 */
(PID.TID 0000.0001)                 2.045883481718707E+05,      /* I =  4 */
(PID.TID 0000.0001)                 2.218350349844185E+05,      /* I =  5 */
(PID.TID 0000.0001)                 2.364352994647058E+05,      /* I =  6 */
(PID.TID 0000.0001)                 2.490022710862746E+05,      /* I =  7 */
(PID.TID 0000.0001)                 2.598919724358304E+05,      /* I =  8 */
(PID.TID 0000.0001)                 2.693210245495156E+05,      /* I =  9 */
(PID.TID 0000.0001)                 2.774243179696503E+05,      /* I = 10 */
(PID.TID 0000.0001)                 2.842862532064524E+05,      /* I = 11 */
(PID.TID 0000.0001)                 2.899590699694043E+05,      /* I = 12 */
(PID.TID 0000.0001)                 2.944742915095688E+05,      /* I = 13 */
(PID.TID 0000.0001)                 2.978501920522794E+05,      /* I = 14 */
(PID.TID 0000.0001)                 3.000967749619962E+05,      /* I = 15 */
(PID.TID 0000.0001)     2 @  3.012190981969055E+05,             /* I = 16: 17 */
(PID.TID 0000.0001)                 3.000967749619962E+05,      /* I = 18 */
(PID.TID 0000.0001)                 2.978501920522794E+05,      /* I = 19 */
(PID.TID 0000.0001)                 2.944742915095688E+05,      /* I = 20 */
(PID.TID 0000.0001)                 2.899590699694043E+05,      /* I = 21 */
(PID.TID 0000.0001)                 2.842862532064524E+05,      /* I = 22 */
(PID.TID 0000.0001)                 2.774243179696503E+05,      /* I = 23 */
(PID.TID 0000.0001)                 2.693210245495156E+05,      /* I = 24 */
(PID.TID 0000.0001)                 2.598919724358304E+05,      /* I = 25 */
(PID.TID 0000.0001)                 2.490022710862746E+05,      /* I = 26 */
(PID.TID 0000.0001)                 2.364352994647058E+05,      /* I = 27 */
(PID.TID 0000.0001)                 2.218350349844185E+05,      /* I = 28 */
(PID.TID 0000.0001)                 2.045883481718707E+05,      /* I = 29 */
(PID.TID 0000.0001)                 1.835530058121492E+05,      /* I = 30 */
(PID.TID 0000.0001)                 1.563594089971120E+05,      /* I = 31 */
(PID.TID 0000.0001)     2 @  1.202082051331828E+05,             /* I = 32: 33 */
(PID.TID 0000.0001)                 1.563594089971120E+05,      /* I = 34 */
(PID.TID 0000.0001)                 1.835530058121492E+05,      /* I = 35 */
(PID.TID 0000.0001)                 2.045883481718707E+05,      /* I = 36 */
(PID.TID 0000.0001)                 2.218350349844185E+05,      /* I = 37 */
(PID.TID 0000.0001)                 2.364352994647058E+05,      /* I = 38 */
(PID.TID 0000.0001)                 2.490022710862746E+05,      /* I = 39 */
(PID.TID 0000.0001)                 2.598919724358304E+05,      /* I = 40 */
(PID.TID 0000.0001)                 2.693210245495156E+05,      /* I = 41 */
(PID.TID 0000.0001)                 2.774243179696503E+05,      /* I = 42 */
(PID.TID 0000.0001)                 2.842862532064524E+05,      /* I = 43 */
(PID.TID 0000.0001)                 2.899590699694043E+05,      /* I = 44 */
(PID.TID 0000.0001)                 2.944742915095688E+05,      /* I = 45 */
(PID.TID 0000.0001)                 2.978501920522794E+05,      /* I = 46 */
(PID.TID 0000.0001)                 3.000967749619962E+05,      /* I = 47 */
(PID.TID 0000.0001)     2 @  3.012190981969055E+05,             /* I = 48: 49 */
(PID.TID 0000.0001)                 3.000967749619962E+05,      /* I = 50 */
(PID.TID 0000.0001)                 2.978501920522794E+05,      /* I = 51 */
(PID.TID 0000.0001)                 2.944742915095688E+05,      /* I = 52 */
(PID.TID 0000.0001)                 2.899590699694043E+05,      /* I = 53 */
(PID.TID 0000.0001)                 2.842862532064524E+05,      /* I = 54 */
(PID.TID 0000.0001)                 2.774243179696503E+05,      /* I = 55 */
(PID.TID 0000.0001)                 2.693210245495156E+05,      /* I = 56 */
(PID.TID 0000.0001)                 2.598919724358304E+05,      /* I = 57 */
(PID.TID 0000.0001)                 2.490022710862746E+05,      /* I = 58 */
(PID.TID 0000.0001)                 2.364352994647058E+05,      /* I = 59 */
(PID.TID 0000.0001)                 2.218350349844185E+05,      /* I = 60 */
(PID.TID 0000.0001)                 2.045883481718707E+05,      /* I = 61 */
(PID.TID 0000.0001)                 1.835530058121492E+05,      /* I = 62 */
(PID.TID 0000.0001)                 1.563594089971120E+05,      /* I = 63 */
(PID.TID 0000.0001)     2 @  1.202082051331828E+05,             /* I = 64: 65 */
(PID.TID 0000.0001)                 1.563594089971120E+05,      /* I = 66 */
(PID.TID 0000.0001)                 1.835530058121492E+05,      /* I = 67 */
(PID.TID 0000.0001)                 2.045883481718707E+05,      /* I = 68 */
(PID.TID 0000.0001)                 2.218350349844185E+05,      /* I = 69 */
(PID.TID 0000.0001)                 2.364352994647058E+05,      /* I = 70 */
(PID.TID 0000.0001)                 2.490022710862746E+05,      /* I = 71 */
(PID.TID 0000.0001)                 2.598919724358304E+05,      /* I = 72 */
(PID.TID 0000.0001)                 2.693210245495156E+05,      /* I = 73 */
(PID.TID 0000.0001)                 2.774243179696503E+05,      /* I = 74 */
(PID.TID 0000.0001)                 2.842862532064524E+05,      /* I = 75 */
(PID.TID 0000.0001)                 2.899590699694043E+05,      /* I = 76 */
(PID.TID 0000.0001)                 2.944742915095688E+05,      /* I = 77 */
(PID.TID 0000.0001)                 2.978501920522794E+05,      /* I = 78 */
(PID.TID 0000.0001)                 3.000967749619962E+05,      /* I = 79 */
(PID.TID 0000.0001)     2 @  3.012190981969055E+05,             /* I = 80: 81 */
(PID.TID 0000.0001)                 3.000967749619962E+05,      /* I = 82 */
(PID.TID 0000.0001)                 2.978501920522794E+05,      /* I = 83 */
(PID.TID 0000.0001)                 2.944742915095688E+05,      /* I = 84 */
(PID.TID 0000.0001)                 2.899590699694043E+05,      /* I = 85 */
(PID.TID 0000.0001)                 2.842862532064524E+05,      /* I = 86 */
(PID.TID 0000.0001)                 2.774243179696503E+05,      /* I = 87 */
(PID.TID 0000.0001)                 2.693210245495156E+05,      /* I = 88 */
(PID.TID 0000.0001)                 2.598919724358304E+05,      /* I = 89 */
(PID.TID 0000.0001)                 2.490022710862746E+05,      /* I = 90 */
(PID.TID 0000.0001)                 2.364352994647058E+05,      /* I = 91 */
(PID.TID 0000.0001)                 2.218350349844185E+05,      /* I = 92 */
(PID.TID 0000.0001)                 2.045883481718707E+05,      /* I = 93 */
(PID.TID 0000.0001)                 1.835530058121492E+05,      /* I = 94 */
(PID.TID 0000.0001)                 1.563594089971120E+05,      /* I = 95 */
(PID.TID 0000.0001)     2 @  1.202082051331828E+05,             /* I = 96: 97 */
(PID.TID 0000.0001)                 1.563594089971120E+05,      /* I = 98 */
(PID.TID 0000.0001)                 1.835530058121492E+05,      /* I = 99 */
(PID.TID 0000.0001)                 2.045883481718707E+05,      /* I =100 */
(PID.TID 0000.0001)                 2.218350349844185E+05,      /* I =101 */
(PID.TID 0000.0001)                 2.364352994647058E+05,      /* I =102 */
(PID.TID 0000.0001)                 2.490022710862746E+05,      /* I =103 */
(PID.TID 0000.0001)                 2.598919724358304E+05,      /* I =104 */
(PID.TID 0000.0001)                 2.693210245495156E+05,      /* I =105 */
(PID.TID 0000.0001)                 2.774243179696503E+05,      /* I =106 */
(PID.TID 0000.0001)                 2.842862532064524E+05,      /* I =107 */
(PID.TID 0000.0001)                 2.899590699694043E+05,      /* I =108 */
(PID.TID 0000.0001)                 2.944742915095688E+05,      /* I =109 */
(PID.TID 0000.0001)                 2.978501920522794E+05,      /* I =110 */
(PID.TID 0000.0001)                 3.000967749619962E+05,      /* I =111 */
(PID.TID 0000.0001)     2 @  3.012190981969055E+05,             /* I =112:113 */
(PID.TID 0000.0001)                 3.000967749619962E+05,      /* I =114 */
(PID.TID 0000.0001)                 2.978501920522794E+05,      /* I =115 */
(PID.TID 0000.0001)                 2.944742915095688E+05,      /* I =116 */
(PID.TID 0000.0001)                 2.899590699694043E+05,      /* I =117 */
(PID.TID 0000.0001)                 2.842862532064524E+05,      /* I =118 */
(PID.TID 0000.0001)                 2.774243179696503E+05,      /* I =119 */
(PID.TID 0000.0001)                 2.693210245495156E+05,      /* I =120 */
(PID.TID 0000.0001)                 2.598919724358304E+05,      /* I =121 */
(PID.TID 0000.0001)                 2.490022710862746E+05,      /* I =122 */
(PID.TID 0000.0001)                 2.364352994647058E+05,      /* I =123 */
(PID.TID 0000.0001)                 2.218350349844185E+05,      /* I =124 */
(PID.TID 0000.0001)                 2.045883481718707E+05,      /* I =125 */
(PID.TID 0000.0001)                 1.835530058121492E+05,      /* I =126 */
(PID.TID 0000.0001)                 1.563594089971120E+05,      /* I =127 */
(PID.TID 0000.0001)     2 @  1.202082051331828E+05,             /* I =128:129 */
(PID.TID 0000.0001)                 1.563594089971120E+05,      /* I =130 */
(PID.TID 0000.0001)                 1.835530058121492E+05,      /* I =131 */
(PID.TID 0000.0001)                 2.045883481718707E+05,      /* I =132 */
(PID.TID 0000.0001)                 2.218350349844185E+05,      /* I =133 */
(PID.TID 0000.0001)                 2.364352994647058E+05,      /* I =134 */
(PID.TID 0000.0001)                 2.490022710862746E+05,      /* I =135 */
(PID.TID 0000.0001)                 2.598919724358304E+05,      /* I =136 */
(PID.TID 0000.0001)                 2.693210245495156E+05,      /* I =137 */
(PID.TID 0000.0001)                 2.774243179696503E+05,      /* I =138 */
(PID.TID 0000.0001)                 2.842862532064524E+05,      /* I =139 */
(PID.TID 0000.0001)                 2.899590699694043E+05,      /* I =140 */
(PID.TID 0000.0001)                 2.944742915095688E+05,      /* I =141 */
(PID.TID 0000.0001)                 2.978501920522794E+05,      /* I =142 */
(PID.TID 0000.0001)                 3.000967749619962E+05,      /* I =143 */
(PID.TID 0000.0001)     2 @  3.012190981969055E+05,             /* I =144:145 */
(PID.TID 0000.0001)                 3.000967749619962E+05,      /* I =146 */
(PID.TID 0000.0001)                 2.978501920522794E+05,      /* I =147 */
(PID.TID 0000.0001)                 2.944742915095688E+05,      /* I =148 */
(PID.TID 0000.0001)                 2.899590699694043E+05,      /* I =149 */
(PID.TID 0000.0001)                 2.842862532064524E+05,      /* I =150 */
(PID.TID 0000.0001)                 2.774243179696503E+05,      /* I =151 */
(PID.TID 0000.0001)                 2.693210245495156E+05,      /* I =152 */
(PID.TID 0000.0001)                 2.598919724358304E+05,      /* I =153 */
(PID.TID 0000.0001)                 2.490022710862746E+05,      /* I =154 */
(PID.TID 0000.0001)                 2.364352994647058E+05,      /* I =155 */
(PID.TID 0000.0001)                 2.218350349844185E+05,      /* I =156 */
(PID.TID 0000.0001)                 2.045883481718707E+05,      /* I =157 */
(PID.TID 0000.0001)                 1.835530058121492E+05,      /* I =158 */
(PID.TID 0000.0001)                 1.563594089971120E+05,      /* I =159 */
(PID.TID 0000.0001)     2 @  1.202082051331828E+05,             /* I =160:161 */
(PID.TID 0000.0001)                 1.563594089971120E+05,      /* I =162 */
(PID.TID 0000.0001)                 1.835530058121492E+05,      /* I =163 */
(PID.TID 0000.0001)                 2.045883481718707E+05,      /* I =164 */
(PID.TID 0000.0001)                 2.218350349844185E+05,      /* I =165 */
(PID.TID 0000.0001)                 2.364352994647058E+05,      /* I =166 */
(PID.TID 0000.0001)                 2.490022710862746E+05,      /* I =167 */
(PID.TID 0000.0001)                 2.598919724358304E+05,      /* I =168 */
(PID.TID 0000.0001)                 2.693210245495156E+05,      /* I =169 */
(PID.TID 0000.0001)                 2.774243179696503E+05,      /* I =170 */
(PID.TID 0000.0001)                 2.842862532064524E+05,      /* I =171 */
(PID.TID 0000.0001)                 2.899590699694043E+05,      /* I =172 */
(PID.TID 0000.0001)                 2.944742915095688E+05,      /* I =173 */
(PID.TID 0000.0001)                 2.978501920522794E+05,      /* I =174 */
(PID.TID 0000.0001)                 3.000967749619962E+05,      /* I =175 */
(PID.TID 0000.0001)     2 @  3.012190981969055E+05,             /* I =176:177 */
(PID.TID 0000.0001)                 3.000967749619962E+05,      /* I =178 */
(PID.TID 0000.0001)                 2.978501920522794E+05,      /* I =179 */
(PID.TID 0000.0001)                 2.944742915095688E+05,      /* I =180 */
(PID.TID 0000.0001)                 2.899590699694043E+05,      /* I =181 */
(PID.TID 0000.0001)                 2.842862532064524E+05,      /* I =182 */
(PID.TID 0000.0001)                 2.774243179696503E+05,      /* I =183 */
(PID.TID 0000.0001)                 2.693210245495156E+05,      /* I =184 */
(PID.TID 0000.0001)                 2.598919724358304E+05,      /* I =185 */
(PID.TID 0000.0001)                 2.490022710862746E+05,      /* I =186 */
(PID.TID 0000.0001)                 2.364352994647058E+05,      /* I =187 */
(PID.TID 0000.0001)                 2.218350349844185E+05,      /* I =188 */
(PID.TID 0000.0001)                 2.045883481718707E+05,      /* I =189 */
(PID.TID 0000.0001)                 1.835530058121492E+05,      /* I =190 */
(PID.TID 0000.0001)                 1.563594089971120E+05,      /* I =191 */
(PID.TID 0000.0001)                 1.202082051331828E+05       /* I =192 */
(PID.TID 0000.0001)     ;
(PID.TID 0000.0001) dxF =  /* dxF(1,:,1,:) ( units: m ) */
(PID.TID 0000.0001)                 1.202082051331828E+05,      /* J =  1 */
(PID.TID 0000.0001)                 1.572908084538706E+05,      /* J =  2 */
(PID.TID 0000.0001)                 1.840412227747703E+05,      /* J =  3 */
(PID.TID 0000.0001)                 2.048868197919576E+05,      /* J =  4 */
(PID.TID 0000.0001)                 2.220405216043041E+05,      /* J =  5 */
(PID.TID 0000.0001)                 2.365892017348392E+05,      /* J =  6 */
(PID.TID 0000.0001)                 2.491250781852558E+05,      /* J =  7 */
(PID.TID 0000.0001)                 2.599949918261881E+05,      /* J =  8 */
(PID.TID 0000.0001)                 2.694110134598581E+05,      /* J =  9 */
(PID.TID 0000.0001)                 2.775055554645015E+05,      /* J = 10 */
(PID.TID 0000.0001)                 2.843615645344775E+05,      /* J = 11 */
(PID.TID 0000.0001)                 2.900303768613599E+05,      /* J = 12 */
(PID.TID 0000.0001)                 2.945429307892709E+05,      /* J = 13 */
(PID.TID 0000.0001)                 2.979171143158405E+05,      /* J = 14 */
(PID.TID 0000.0001)                 3.001626787528886E+05,      /* J = 15 */
(PID.TID 0000.0001)     2 @  3.012844832048790E+05,             /* J = 16: 17 */
(PID.TID 0000.0001)                 3.001626787528886E+05,      /* J = 18 */
(PID.TID 0000.0001)                 2.979171143158405E+05,      /* J = 19 */
(PID.TID 0000.0001)                 2.945429307892709E+05,      /* J = 20 */
(PID.TID 0000.0001)                 2.900303768613599E+05,      /* J = 21 */
(PID.TID 0000.0001)                 2.843615645344775E+05,      /* J = 22 */
(PID.TID 0000.0001)                 2.775055554645015E+05,      /* J = 23 */
(PID.TID 0000.0001)                 2.694110134598581E+05,      /* J = 24 */
(PID.TID 0000.0001)                 2.599949918261881E+05,      /* J = 25 */
(PID.TID 0000.0001)                 2.491250781852558E+05,      /* J = 26 */
(PID.TID 0000.0001)                 2.365892017348392E+05,      /* J = 27 */
(PID.TID 0000.0001)                 2.220405216043041E+05,      /* J = 28 */
(PID.TID 0000.0001)                 2.048868197919576E+05,      /* J = 29 */
(PID.TID 0000.0001)                 1.840412227747703E+05,      /* J = 30 */
(PID.TID 0000.0001)                 1.572908084538706E+05,      /* J = 31 */
(PID.TID 0000.0001)                 1.202082051331828E+05       /* J = 32 */
(PID.TID 0000.0001)     ;
(PID.TID 0000.0001) dyF =  /* dyF(:,1,:,1) ( units: m ) */
(PID.TID 0000.0001)                 1.202082051331828E+05,      /* I =  1 */
(PID.TID 0000.0001)                 1.572908084538706E+05,      /* I =  2 */
(PID.TID 0000.0001)                 1.840412227747703E+05,      /* I =  3 */
(PID.TID 0000.0001)                 2.048868197919576E+05,      /* I =  4 */
(PID.TID 0000.0001)                 2.220405216043041E+05,      /* I =  5 */
(PID.TID 0000.0001)                 2.365892017348392E+05,      /* I =  6 */
(PID.TID 0000.0001)                 2.491250781852558E+05,      /* I =  7 */
(PID.TID 0000.0001)                 2.599949918261881E+05,      /* I =  8 */
(PID.TID 0000.0001)                 2.694110134598581E+05,      /* I =  9 */
(PID.TID 0000.0001)                 2.775055554645015E+05,      /* I = 10 */
(PID.TID 0000.0001)                 2.843615645344775E+05,      /* I = 11 */
(PID.TID 0000.0001)                 2.900303768613599E+05,      /* I = 12 */
(PID.TID 0000.0001)                 2.945429307892709E+05,      /* I = 13 */
(PID.TID 0000.0001)                 2.979171143158405E+05,      /* I = 14 */
(PID.TID 0000.0001)                 3.001626787528886E+05,      /* I = 15 */
(PID.TID 0000.0001)     2 @  3.012844832048790E+05,             /* I = 16: 17 */
(PID.TID 0000.0001)                 3.001626787528886E+05,      /* I = 18 */
(PID.TID 0000.0001)                 2.979171143158405E+05,      /* I = 19 */
(PID.TID 0000.0001)                 2.945429307892709E+05,      /* I = 20 */
(PID.TID 0000.0001)                 2.900303768613599E+05,      /* I = 21 */
(PID.TID 0000.0001)                 2.843615645344775E+05,      /* I = 22 */
(PID.TID 0000.0001)                 2.775055554645015E+05,      /* I = 23 */
(PID.TID 0000.0001)                 2.694110134598581E+05,      /* I = 24 */
(PID.TID 0000.0001)                 2.599949918261881E+05,      /* I = 25 */
(PID.TID 0000.0001)                 2.491250781852558E+05,      /* I = 26 */
(PID.TID 0000.0001)                 2.365892017348392E+05,      /* I = 27 */
(PID.TID 0000.0001)                 2.220405216043041E+05,      /* I = 28 */
(PID.TID 0000.0001)                 2.048868197919576E+05,      /* I = 29 */
(PID.TID 0000.0001)                 1.840412227747703E+05,      /* I = 30 */
(PID.TID 0000.0001)                 1.572908084538706E+05,      /* I = 31 */
(PID.TID 0000.0001)     2 @  1.202082051331828E+05,             /* I = 32: 33 */
(PID.TID 0000.0001)                 1.572908084538706E+05,      /* I = 34 */
(PID.TID 0000.0001)                 1.840412227747703E+05,      /* I = 35 */
(PID.TID 0000.0001)                 2.048868197919576E+05,      /* I = 36 */
(PID.TID 0000.0001)                 2.220405216043041E+05,      /* I = 37 */
(PID.TID 0000.0001)                 2.365892017348392E+05,      /* I = 38 */
(PID.TID 0000.0001)                 2.491250781852558E+05,      /* I = 39 */
(PID.TID 0000.0001)                 2.599949918261881E+05,      /* I = 40 */
(PID.TID 0000.0001)                 2.694110134598581E+05,      /* I = 41 */
(PID.TID 0000.0001)                 2.775055554645015E+05,      /* I = 42 */
(PID.TID 0000.0001)                 2.843615645344775E+05,      /* I = 43 */
(PID.TID 0000.0001)                 2.900303768613599E+05,      /* I = 44 */
(PID.TID 0000.0001)                 2.945429307892709E+05,      /* I = 45 */
(PID.TID 0000.0001)                 2.979171143158405E+05,      /* I = 46 */
(PID.TID 0000.0001)                 3.001626787528886E+05,      /* I = 47 */
(PID.TID 0000.0001)     2 @  3.012844832048790E+05,             /* I = 48: 49 */
(PID.TID 0000.0001)                 3.001626787528886E+05,      /* I = 50 */
(PID.TID 0000.0001)                 2.979171143158405E+05,      /* I = 51 */
(PID.TID 0000.0001)                 2.945429307892709E+05,      /* I = 52 */
(PID.TID 0000.0001)                 2.900303768613599E+05,      /* I = 53 */
(PID.TID 0000.0001)                 2.843615645344775E+05,      /* I = 54 */
(PID.TID 0000.0001)                 2.775055554645015E+05,      /* I = 55 */
(PID.TID 0000.0001)                 2.694110134598581E+05,      /* I = 56 */
(PID.TID 0000.0001)                 2.599949918261881E+05,      /* I = 57 */
(PID.TID 0000.0001)                 2.491250781852558E+05,      /* I = 58 */
(PID.TID 0000.0001)                 2.365892017348392E+05,      /* I = 59 */
(PID.TID 0000.0001)                 2.220405216043041E+05,      /* I = 60 */
(PID.TID 0000.0001)                 2.048868197919576E+05,      /* I = 61 */
(PID.TID 0000.0001)                 1.840412227747703E+05,      /* I = 62 */
(PID.TID 0000.0001)                 1.572908084538706E+05,      /* I = 63 */
(PID.TID 0000.0001)     2 @  1.202082051331828E+05,             /* I = 64: 65 */
(PID.TID 0000.0001)                 1.572908084538706E+05,      /* I = 66 */
(PID.TID 0000.0001)                 1.840412227747703E+05,      /* I = 67 */
(PID.TID 0000.0001)                 2.048868197919576E+05,      /* I = 68 */
(PID.TID 0000.0001)                 2.220405216043041E+05,      /* I = 69 */
(PID.TID 0000.0001)                 2.365892017348392E+05,      /* I = 70 */
(PID.TID 0000.0001)                 2.491250781852558E+05,      /* I = 71 */
(PID.TID 0000.0001)                 2.599949918261881E+05,      /* I = 72 */
(PID.TID 0000.0001)                 2.694110134598581E+05,      /* I = 73 */
(PID.TID 0000.0001)                 2.775055554645015E+05,      /* I = 74 */
(PID.TID 0000.0001)                 2.843615645344775E+05,      /* I = 75 */
(PID.TID 0000.0001)                 2.900303768613599E+05,      /* I = 76 */
(PID.TID 0000.0001)                 2.945429307892709E+05,      /* I = 77 */
(PID.TID 0000.0001)                 2.979171143158405E+05,      /* I = 78 */
(PID.TID 0000.0001)                 3.001626787528886E+05,      /* I = 79 */
(PID.TID 0000.0001)     2 @  3.012844832048790E+05,             /* I = 80: 81 */
(PID.TID 0000.0001)                 3.001626787528886E+05,      /* I = 82 */
(PID.TID 0000.0001)                 2.979171143158405E+05,      /* I = 83 */
(PID.TID 0000.0001)                 2.945429307892709E+05,      /* I = 84 */
(PID.TID 0000.0001)                 2.900303768613599E+05,      /* I = 85 */
(PID.TID 0000.0001)                 2.843615645344775E+05,      /* I = 86 */
(PID.TID 0000.0001)                 2.775055554645015E+05,      /* I = 87 */
(PID.TID 0000.0001)                 2.694110134598581E+05,      /* I = 88 */
(PID.TID 0000.0001)                 2.599949918261881E+05,      /* I = 89 */
(PID.TID 0000.0001)                 2.491250781852558E+05,      /* I = 90 */
(PID.TID 0000.0001)                 2.365892017348392E+05,      /* I = 91 */
(PID.TID 0000.0001)                 2.220405216043041E+05,      /* I = 92 */
(PID.TID 0000.0001)                 2.048868197919576E+05,      /* I = 93 */
(PID.TID 0000.0001)                 1.840412227747703E+05,      /* I = 94 */
(PID.TID 0000.0001)                 1.572908084538706E+05,      /* I = 95 */
(PID.TID 0000.0001)     2 @  1.202082051331828E+05,             /* I = 96: 97 */
(PID.TID 0000.0001)                 1.572908084538706E+05,      /* I = 98 */
(PID.TID 0000.0001)                 1.840412227747703E+05,      /* I = 99 */
(PID.TID 0000.0001)                 2.048868197919576E+05,      /* I =100 */
(PID.TID 0000.0001)                 2.220405216043041E+05,      /* I =101 */
(PID.TID 0000.0001)                 2.365892017348392E+05,      /* I =102 */
(PID.TID 0000.0001)                 2.491250781852558E+05,      /* I =103 */
(PID.TID 0000.0001)                 2.599949918261881E+05,      /* I =104 */
(PID.TID 0000.0001)                 2.694110134598581E+05,      /* I =105 */
(PID.TID 0000.0001)                 2.775055554645015E+05,      /* I =106 */
(PID.TID 0000.0001)                 2.843615645344775E+05,      /* I =107 */
(PID.TID 0000.0001)                 2.900303768613599E+05,      /* I =108 */
(PID.TID 0000.0001)                 2.945429307892709E+05,      /* I =109 */
(PID.TID 0000.0001)                 2.979171143158405E+05,      /* I =110 */
(PID.TID 0000.0001)                 3.001626787528886E+05,      /* I =111 */
(PID.TID 0000.0001)     2 @  3.012844832048790E+05,             /* I =112:113 */
(PID.TID 0000.0001)                 3.001626787528886E+05,      /* I =114 */
(PID.TID 0000.0001)                 2.979171143158405E+05,      /* I =115 */
(PID.TID 0000.0001)                 2.945429307892709E+05,      /* I =116 */
(PID.TID 0000.0001)                 2.900303768613599E+05,      /* I =117 */
(PID.TID 0000.0001)                 2.843615645344775E+05,      /* I =118 */
(PID.TID 0000.0001)                 2.775055554645015E+05,      /* I =119 */
(PID.TID 0000.0001)                 2.694110134598581E+05,      /* I =120 */
(PID.TID 0000.0001)                 2.599949918261881E+05,      /* I =121 */
(PID.TID 0000.0001)                 2.491250781852558E+05,      /* I =122 */
(PID.TID 0000.0001)                 2.365892017348392E+05,      /* I =123 */
(PID.TID 0000.0001)                 2.220405216043041E+05,      /* I =124 */
(PID.TID 0000.0001)                 2.048868197919576E+05,      /* I =125 */
(PID.TID 0000.0001)                 1.840412227747703E+05,      /* I =126 */
(PID.TID 0000.0001)                 1.572908084538706E+05,      /* I =127 */
(PID.TID 0000.0001)     2 @  1.202082051331828E+05,             /* I =128:129 */
(PID.TID 0000.0001)                 1.572908084538706E+05,      /* I =130 */
(PID.TID 0000.0001)                 1.840412227747703E+05,      /* I =131 */
(PID.TID 0000.0001)                 2.048868197919576E+05,      /* I =132 */
(PID.TID 0000.0001)                 2.220405216043041E+05,      /* I =133 */
(PID.TID 0000.0001)                 2.365892017348392E+05,      /* I =134 */
(PID.TID 0000.0001)                 2.491250781852558E+05,      /* I =135 */
(PID.TID 0000.0001)                 2.599949918261881E+05,      /* I =136 */
(PID.TID 0000.0001)                 2.694110134598581E+05,      /* I =137 */
(PID.TID 0000.0001)                 2.775055554645015E+05,      /* I =138 */
(PID.TID 0000.0001)                 2.843615645344775E+05,      /* I =139 */
(PID.TID 0000.0001)                 2.900303768613599E+05,      /* I =140 */
(PID.TID 0000.0001)                 2.945429307892709E+05,      /* I =141 */
(PID.TID 0000.0001)                 2.979171143158405E+05,      /* I =142 */
(PID.TID 0000.0001)                 3.001626787528886E+05,      /* I =143 */
(PID.TID 0000.0001)     2 @  3.012844832048790E+05,             /* I =144:145 */
(PID.TID 0000.0001)                 3.001626787528886E+05,      /* I =146 */
(PID.TID 0000.0001)                 2.979171143158405E+05,      /* I =147 */
(PID.TID 0000.0001)                 2.945429307892709E+05,      /* I =148 */
(PID.TID 0000.0001)                 2.900303768613599E+05,      /* I =149 */
(PID.TID 0000.0001)                 2.843615645344775E+05,      /* I =150 */
(PID.TID 0000.0001)                 2.775055554645015E+05,      /* I =151 */
(PID.TID 0000.0001)                 2.694110134598581E+05,      /* I =152 */
(PID.TID 0000.0001)                 2.599949918261881E+05,      /* I =153 */
(PID.TID 0000.0001)                 2.491250781852558E+05,      /* I =154 */
(PID.TID 0000.0001)                 2.365892017348392E+05,      /* I =155 */
(PID.TID 0000.0001)                 2.220405216043041E+05,      /* I =156 */
(PID.TID 0000.0001)                 2.048868197919576E+05,      /* I =157 */
(PID.TID 0000.0001)                 1.840412227747703E+05,      /* I =158 */
(PID.TID 0000.0001)                 1.572908084538706E+05,      /* I =159 */
(PID.TID 0000.0001)     2 @  1.202082051331828E+05,             /* I =160:161 */
(PID.TID 0000.0001)                 1.572908084538706E+05,      /* I =162 */
(PID.TID 0000.0001)                 1.840412227747703E+05,      /* I =163 */
(PID.TID 0000.0001)                 2.048868197919576E+05,      /* I =164 */
(PID.TID 0000.0001)                 2.220405216043041E+05,      /* I =165 */
(PID.TID 0000.0001)                 2.365892017348392E+05,      /* I =166 */
(PID.TID 0000.0001)                 2.491250781852558E+05,      /* I =167 */
(PID.TID 0000.0001)                 2.599949918261881E+05,      /* I =168 */
(PID.TID 0000.0001)                 2.694110134598581E+05,      /* I =169 */
(PID.TID 0000.0001)                 2.775055554645015E+05,      /* I =170 */
(PID.TID 0000.0001)                 2.843615645344775E+05,      /* I =171 */
(PID.TID 0000.0001)                 2.900303768613599E+05,      /* I =172 */
(PID.TID 0000.0001)                 2.945429307892709E+05,      /* I =173 */
(PID.TID 0000.0001)                 2.979171143158405E+05,      /* I =174 */
(PID.TID 0000.0001)                 3.001626787528886E+05,      /* I =175 */
(PID.TID 0000.0001)     2 @  3.012844832048790E+05,             /* I =176:177 */
(PID.TID 0000.0001)                 3.001626787528886E+05,      /* I =178 */
(PID.TID 0000.0001)                 2.979171143158405E+05,      /* I =179 */
(PID.TID 0000.0001)                 2.945429307892709E+05,      /* I =180 */
(PID.TID 0000.0001)                 2.900303768613599E+05,      /* I =181 */
(PID.TID 0000.0001)                 2.843615645344775E+05,      /* I =182 */
(PID.TID 0000.0001)                 2.775055554645015E+05,      /* I =183 */
(PID.TID 0000.0001)                 2.694110134598581E+05,      /* I =184 */
(PID.TID 0000.0001)                 2.599949918261881E+05,      /* I =185 */
(PID.TID 0000.0001)                 2.491250781852558E+05,      /* I =186 */
(PID.TID 0000.0001)                 2.365892017348392E+05,      /* I =187 */
(PID.TID 0000.0001)                 2.220405216043041E+05,      /* I =188 */
(PID.TID 0000.0001)                 2.048868197919576E+05,      /* I =189 */
(PID.TID 0000.0001)                 1.840412227747703E+05,      /* I =190 */
(PID.TID 0000.0001)                 1.572908084538706E+05,      /* I =191 */
(PID.TID 0000.0001)                 1.202082051331828E+05       /* I =192 */
(PID.TID 0000.0001)     ;
(PID.TID 0000.0001) dyF =  /* dyF(1,:,1,:) ( units: m ) */
(PID.TID 0000.0001)                 1.202082051331828E+05,      /* J =  1 */
(PID.TID 0000.0001)                 1.563594089971120E+05,      /* J =  2 */
(PID.TID 0000.0001)                 1.835530058121492E+05,      /* J =  3 */
(PID.TID 0000.0001)                 2.045883481718707E+05,      /* J =  4 */
(PID.TID 0000.0001)                 2.218350349844185E+05,      /* J =  5 */
(PID.TID 0000.0001)                 2.364352994647058E+05,      /* J =  6 */
(PID.TID 0000.0001)                 2.490022710862746E+05,      /* J =  7 */
(PID.TID 0000.0001)                 2.598919724358304E+05,      /* J =  8 */
(PID.TID 0000.0001)                 2.693210245495156E+05,      /* J =  9 */
(PID.TID 0000.0001)                 2.774243179696503E+05,      /* J = 10 */
(PID.TID 0000.0001)                 2.842862532064524E+05,      /* J = 11 */
(PID.TID 0000.0001)                 2.899590699694043E+05,      /* J = 12 */
(PID.TID 0000.0001)                 2.944742915095688E+05,      /* J = 13 */
(PID.TID 0000.0001)                 2.978501920522794E+05,      /* J = 14 */
(PID.TID 0000.0001)                 3.000967749619962E+05,      /* J = 15 */
(PID.TID 0000.0001)     2 @  3.012190981969055E+05,             /* J = 16: 17 */
(PID.TID 0000.0001)                 3.000967749619962E+05,      /* J = 18 */
(PID.TID 0000.0001)                 2.978501920522794E+05,      /* J = 19 */
(PID.TID 0000.0001)                 2.944742915095688E+05,      /* J = 20 */
(PID.TID 0000.0001)                 2.899590699694043E+05,      /* J = 21 */
(PID.TID 0000.0001)                 2.842862532064524E+05,      /* J = 22 */
(PID.TID 0000.0001)                 2.774243179696503E+05,      /* J = 23 */
(PID.TID 0000.0001)                 2.693210245495156E+05,      /* J = 24 */
(PID.TID 0000.0001)                 2.598919724358304E+05,      /* J = 25 */
(PID.TID 0000.0001)                 2.490022710862746E+05,      /* J = 26 */
(PID.TID 0000.0001)                 2.364352994647058E+05,      /* J = 27 */
(PID.TID 0000.0001)                 2.218350349844185E+05,      /* J = 28 */
(PID.TID 0000.0001)                 2.045883481718707E+05,      /* J = 29 */
(PID.TID 0000.0001)                 1.835530058121492E+05,      /* J = 30 */
(PID.TID 0000.0001)                 1.563594089971120E+05,      /* J = 31 */
(PID.TID 0000.0001)                 1.202082051331828E+05       /* J = 32 */
(PID.TID 0000.0001)     ;
(PID.TID 0000.0001) dxG =  /* dxG(:,1,:,1) ( units: m ) */
(PID.TID 0000.0001)                 1.009837800879055E+05,      /* I =  1 */
(PID.TID 0000.0001)                 1.534505834330338E+05,      /* I =  2 */
(PID.TID 0000.0001)                 1.823321598773926E+05,      /* I =  3 */
(PID.TID 0000.0001)                 2.038999045536999E+05,      /* I =  4 */
(PID.TID 0000.0001)                 2.213884732245467E+05,      /* I =  5 */
(PID.TID 0000.0001)                 2.361211699596122E+05,      /* I =  6 */
(PID.TID 0000.0001)                 2.487693460283865E+05,      /* I =  7 */
(PID.TID 0000.0001)                 2.597126963772147E+05,      /* I =  8 */
(PID.TID 0000.0001)                 2.691790288994575E+05,      /* I =  9 */
(PID.TID 0000.0001)                 2.773091043277394E+05,      /* I = 10 */
(PID.TID 0000.0001)                 2.841906470085516E+05,      /* I = 11 */
(PID.TID 0000.0001)                 2.898778860929753E+05,      /* I = 12 */
(PID.TID 0000.0001)                 2.944035815526416E+05,      /* I = 13 */
(PID.TID 0000.0001)                 2.977867909042096E+05,      /* I = 14 */
(PID.TID 0000.0001)                 3.000380090330854E+05,      /* I = 15 */
(PID.TID 0000.0001)     2 @  3.011625828699101E+05,             /* I = 16: 17 */
(PID.TID 0000.0001)                 3.000380090330854E+05,      /* I = 18 */
(PID.TID 0000.0001)                 2.977867909042096E+05,      /* I = 19 */
(PID.TID 0000.0001)                 2.944035815526416E+05,      /* I = 20 */
(PID.TID 0000.0001)                 2.898778860929753E+05,      /* I = 21 */
(PID.TID 0000.0001)                 2.841906470085516E+05,      /* I = 22 */
(PID.TID 0000.0001)                 2.773091043277394E+05,      /* I = 23 */
(PID.TID 0000.0001)                 2.691790288994575E+05,      /* I = 24 */
(PID.TID 0000.0001)                 2.597126963772147E+05,      /* I = 25 */
(PID.TID 0000.0001)                 2.487693460283865E+05,      /* I = 26 */
(PID.TID 0000.0001)                 2.361211699596122E+05,      /* I = 27 */
(PID.TID 0000.0001)                 2.213884732245467E+05,      /* I = 28 */
(PID.TID 0000.0001)                 2.038999045536999E+05,      /* I = 29 */
(PID.TID 0000.0001)                 1.823321598773926E+05,      /* I = 30 */
(PID.TID 0000.0001)                 1.534505834330338E+05,      /* I = 31 */
(PID.TID 0000.0001)     2 @  1.009837800879055E+05,             /* I = 32: 33 */
(PID.TID 0000.0001)                 1.534505834330338E+05,      /* I = 34 */
(PID.TID 0000.0001)                 1.823321598773926E+05,      /* I = 35 */
(PID.TID 0000.0001)                 2.038999045536999E+05,      /* I = 36 */
(PID.TID 0000.0001)                 2.213884732245467E+05,      /* I = 37 */
(PID.TID 0000.0001)                 2.361211699596122E+05,      /* I = 38 */
(PID.TID 0000.0001)                 2.487693460283865E+05,      /* I = 39 */
(PID.TID 0000.0001)                 2.597126963772147E+05,      /* I = 40 */
(PID.TID 0000.0001)                 2.691790288994575E+05,      /* I = 41 */
(PID.TID 0000.0001)                 2.773091043277394E+05,      /* I = 42 */
(PID.TID 0000.0001)                 2.841906470085516E+05,      /* I = 43 */
(PID.TID 0000.0001)                 2.898778860929753E+05,      /* I = 44 */
(PID.TID 0000.0001)                 2.944035815526416E+05,      /* I = 45 */
(PID.TID 0000.0001)                 2.977867909042096E+05,      /* I = 46 */
(PID.TID 0000.0001)                 3.000380090330854E+05,      /* I = 47 */
(PID.TID 0000.0001)     2 @  3.011625828699101E+05,             /* I = 48: 49 */
(PID.TID 0000.0001)                 3.000380090330854E+05,      /* I = 50 */
(PID.TID 0000.0001)                 2.977867909042096E+05,      /* I = 51 */
(PID.TID 0000.0001)                 2.944035815526416E+05,      /* I = 52 */
(PID.TID 0000.0001)                 2.898778860929753E+05,      /* I = 53 */
(PID.TID 0000.0001)                 2.841906470085516E+05,      /* I = 54 */
(PID.TID 0000.0001)                 2.773091043277394E+05,      /* I = 55 */
(PID.TID 0000.0001)                 2.691790288994575E+05,      /* I = 56 */
(PID.TID 0000.0001)                 2.597126963772147E+05,      /* I = 57 */
(PID.TID 0000.0001)                 2.487693460283865E+05,      /* I = 58 */
(PID.TID 0000.0001)                 2.361211699596122E+05,      /* I = 59 */
(PID.TID 0000.0001)                 2.213884732245467E+05,      /* I = 60 */
(PID.TID 0000.0001)                 2.038999045536999E+05,      /* I = 61 */
(PID.TID 0000.0001)                 1.823321598773926E+05,      /* I = 62 */
(PID.TID 0000.0001)                 1.534505834330338E+05,      /* I = 63 */
(PID.TID 0000.0001)     2 @  1.009837800879055E+05,             /* I = 64: 65 */
(PID.TID 0000.0001)                 1.534505834330338E+05,      /* I = 66 */
(PID.TID 0000.0001)                 1.823321598773926E+05,      /* I = 67 */
(PID.TID 0000.0001)                 2.038999045536999E+05,      /* I = 68 */
(PID.TID 0000.0001)                 2.213884732245467E+05,      /* I = 69 */
(PID.TID 0000.0001)                 2.361211699596122E+05,      /* I = 70 */
(PID.TID 0000.0001)                 2.487693460283865E+05,      /* I = 71 */
(PID.TID 0000.0001)                 2.597126963772147E+05,      /* I = 72 */
(PID.TID 0000.0001)                 2.691790288994575E+05,      /* I = 73 */
(PID.TID 0000.0001)                 2.773091043277394E+05,      /* I = 74 */
(PID.TID 0000.0001)                 2.841906470085516E+05,      /* I = 75 */
(PID.TID 0000.0001)                 2.898778860929753E+05,      /* I = 76 */
(PID.TID 0000.0001)                 2.944035815526416E+05,      /* I = 77 */
(PID.TID 0000.0001)                 2.977867909042096E+05,      /* I = 78 */
(PID.TID 0000.0001)                 3.000380090330854E+05,      /* I = 79 */
(PID.TID 0000.0001)     2 @  3.011625828699101E+05,             /* I = 80: 81 */
(PID.TID 0000.0001)                 3.000380090330854E+05,      /* I = 82 */
(PID.TID 0000.0001)                 2.977867909042096E+05,      /* I = 83 */
(PID.TID 0000.0001)                 2.944035815526416E+05,      /* I = 84 */
(PID.TID 0000.0001)                 2.898778860929753E+05,      /* I = 85 */
(PID.TID 0000.0001)                 2.841906470085516E+05,      /* I = 86 */
(PID.TID 0000.0001)                 2.773091043277394E+05,      /* I = 87 */
(PID.TID 0000.0001)                 2.691790288994575E+05,      /* I = 88 */
(PID.TID 0000.0001)                 2.597126963772147E+05,      /* I = 89 */
(PID.TID 0000.0001)                 2.487693460283865E+05,      /* I = 90 */
(PID.TID 0000.0001)                 2.361211699596122E+05,      /* I = 91 */
(PID.TID 0000.0001)                 2.213884732245467E+05,      /* I = 92 */
(PID.TID 0000.0001)                 2.038999045536999E+05,      /* I = 93 */
(PID.TID 0000.0001)                 1.823321598773926E+05,      /* I = 94 */
(PID.TID 0000.0001)                 1.534505834330338E+05,      /* I = 95 */
(PID.TID 0000.0001)     2 @  1.009837800879055E+05,             /* I = 96: 97 */
(PID.TID 0000.0001)                 1.534505834330338E+05,      /* I = 98 */
(PID.TID 0000.0001)                 1.823321598773926E+05,      /* I = 99 */
(PID.TID 0000.0001)                 2.038999045536999E+05,      /* I =100 */
(PID.TID 0000.0001)                 2.213884732245467E+05,      /* I =101 */
(PID.TID 0000.0001)                 2.361211699596122E+05,      /* I =102 */
(PID.TID 0000.0001)                 2.487693460283865E+05,      /* I =103 */
(PID.TID 0000.0001)                 2.597126963772147E+05,      /* I =104 */
(PID.TID 0000.0001)                 2.691790288994575E+05,      /* I =105 */
(PID.TID 0000.0001)                 2.773091043277394E+05,      /* I =106 */
(PID.TID 0000.0001)                 2.841906470085516E+05,      /* I =107 */
(PID.TID 0000.0001)                 2.898778860929753E+05,      /* I =108 */
(PID.TID 0000.0001)                 2.944035815526416E+05,      /* I =109 */
(PID.TID 0000.0001)                 2.977867909042096E+05,      /* I =110 */
(PID.TID 0000.0001)                 3.000380090330854E+05,      /* I =111 */
(PID.TID 0000.0001)     2 @  3.011625828699101E+05,             /* I =112:113 */
(PID.TID 0000.0001)                 3.000380090330854E+05,      /* I =114 */
(PID.TID 0000.0001)                 2.977867909042096E+05,      /* I =115 */
(PID.TID 0000.0001)                 2.944035815526416E+05,      /* I =116 */
(PID.TID 0000.0001)                 2.898778860929753E+05,      /* I =117 */
(PID.TID 0000.0001)                 2.841906470085516E+05,      /* I =118 */
(PID.TID 0000.0001)                 2.773091043277394E+05,      /* I =119 */
(PID.TID 0000.0001)                 2.691790288994575E+05,      /* I =120 */
(PID.TID 0000.0001)                 2.597126963772147E+05,      /* I =121 */
(PID.TID 0000.0001)                 2.487693460283865E+05,      /* I =122 */
(PID.TID 0000.0001)                 2.361211699596122E+05,      /* I =123 */
(PID.TID 0000.0001)                 2.213884732245467E+05,      /* I =124 */
(PID.TID 0000.0001)                 2.038999045536999E+05,      /* I =125 */
(PID.TID 0000.0001)                 1.823321598773926E+05,      /* I =126 */
(PID.TID 0000.0001)                 1.534505834330338E+05,      /* I =127 */
(PID.TID 0000.0001)     2 @  1.009837800879055E+05,             /* I =128:129 */
(PID.TID 0000.0001)                 1.534505834330338E+05,      /* I =130 */
(PID.TID 0000.0001)                 1.823321598773926E+05,      /* I =131 */
(PID.TID 0000.0001)                 2.038999045536999E+05,      /* I =132 */
(PID.TID 0000.0001)                 2.213884732245467E+05,      /* I =133 */
(PID.TID 0000.0001)                 2.361211699596122E+05,      /* I =134 */
(PID.TID 0000.0001)                 2.487693460283865E+05,      /* I =135 */
(PID.TID 0000.0001)                 2.597126963772147E+05,      /* I =136 */
(PID.TID 0000.0001)                 2.691790288994575E+05,      /* I =137 */
(PID.TID 0000.0001)                 2.773091043277394E+05,      /* I =138 */
(PID.TID 0000.0001)                 2.841906470085516E+05,      /* I =139 */
(PID.TID 0000.0001)                 2.898778860929753E+05,      /* I =140 */
(PID.TID 0000.0001)                 2.944035815526416E+05,      /* I =141 */
(PID.TID 0000.0001)                 2.977867909042096E+05,      /* I =142 */
(PID.TID 0000.0001)                 3.000380090330854E+05,      /* I =143 */
(PID.TID 0000.0001)     2 @  3.011625828699101E+05,             /* I =144:145 */
(PID.TID 0000.0001)                 3.000380090330854E+05,      /* I =146 */
(PID.TID 0000.0001)                 2.977867909042096E+05,      /* I =147 */
(PID.TID 0000.0001)                 2.944035815526416E+05,      /* I =148 */
(PID.TID 0000.0001)                 2.898778860929753E+05,      /* I =149 */
(PID.TID 0000.0001)                 2.841906470085516E+05,      /* I =150 */
(PID.TID 0000.0001)                 2.773091043277394E+05,      /* I =151 */
(PID.TID 0000.0001)                 2.691790288994575E+05,      /* I =152 */
(PID.TID 0000.0001)                 2.597126963772147E+05,      /* I =153 */
(PID.TID 0000.0001)                 2.487693460283865E+05,      /* I =154 */
(PID.TID 0000.0001)                 2.361211699596122E+05,      /* I =155 */
(PID.TID 0000.0001)                 2.213884732245467E+05,      /* I =156 */
(PID.TID 0000.0001)                 2.038999045536999E+05,      /* I =157 */
(PID.TID 0000.0001)                 1.823321598773926E+05,      /* I =158 */
(PID.TID 0000.0001)                 1.534505834330338E+05,      /* I =159 */
(PID.TID 0000.0001)     2 @  1.009837800879055E+05,             /* I =160:161 */
(PID.TID 0000.0001)                 1.534505834330338E+05,      /* I =162 */
(PID.TID 0000.0001)                 1.823321598773926E+05,      /* I =163 */
(PID.TID 0000.0001)                 2.038999045536999E+05,      /* I =164 */
(PID.TID 0000.0001)                 2.213884732245467E+05,      /* I =165 */
(PID.TID 0000.0001)                 2.361211699596122E+05,      /* I =166 */
(PID.TID 0000.0001)                 2.487693460283865E+05,      /* I =167 */
(PID.TID 0000.0001)                 2.597126963772147E+05,      /* I =168 */
(PID.TID 0000.0001)                 2.691790288994575E+05,      /* I =169 */
(PID.TID 0000.0001)                 2.773091043277394E+05,      /* I =170 */
(PID.TID 0000.0001)                 2.841906470085516E+05,      /* I =171 */
(PID.TID 0000.0001)                 2.898778860929753E+05,      /* I =172 */
(PID.TID 0000.0001)                 2.944035815526416E+05,      /* I =173 */
(PID.TID 0000.0001)                 2.977867909042096E+05,      /* I =174 */
(PID.TID 0000.0001)                 3.000380090330854E+05,      /* I =175 */
(PID.TID 0000.0001)     2 @  3.011625828699101E+05,             /* I =176:177 */
(PID.TID 0000.0001)                 3.000380090330854E+05,      /* I =178 */
(PID.TID 0000.0001)                 2.977867909042096E+05,      /* I =179 */
(PID.TID 0000.0001)                 2.944035815526416E+05,      /* I =180 */
(PID.TID 0000.0001)                 2.898778860929753E+05,      /* I =181 */
(PID.TID 0000.0001)                 2.841906470085516E+05,      /* I =182 */
(PID.TID 0000.0001)                 2.773091043277394E+05,      /* I =183 */
(PID.TID 0000.0001)                 2.691790288994575E+05,      /* I =184 */
(PID.TID 0000.0001)                 2.597126963772147E+05,      /* I =185 */
(PID.TID 0000.0001)                 2.487693460283865E+05,      /* I =186 */
(PID.TID 0000.0001)                 2.361211699596122E+05,      /* I =187 */
(PID.TID 0000.0001)                 2.213884732245467E+05,      /* I =188 */
(PID.TID 0000.0001)                 2.038999045536999E+05,      /* I =189 */
(PID.TID 0000.0001)                 1.823321598773926E+05,      /* I =190 */
(PID.TID 0000.0001)                 1.534505834330338E+05,      /* I =191 */
(PID.TID 0000.0001)                 1.009837800879055E+05       /* I =192 */
(PID.TID 0000.0001)     ;
(PID.TID 0000.0001) dxG =  /* dxG(1,:,1,:) ( units: m ) */
(PID.TID 0000.0001)                 1.009837800879055E+05,      /* J =  1 */
(PID.TID 0000.0001)                 1.403701524205398E+05,      /* J =  2 */
(PID.TID 0000.0001)                 1.716197227386011E+05,      /* J =  3 */
(PID.TID 0000.0001)                 1.950254041626018E+05,      /* J =  4 */
(PID.TID 0000.0001)                 2.138410773065497E+05,      /* J =  5 */
(PID.TID 0000.0001)                 2.295958105911512E+05,      /* J =  6 */
(PID.TID 0000.0001)                 2.430829951739083E+05,      /* J =  7 */
(PID.TID 0000.0001)                 2.547526806712889E+05,      /* J =  8 */
(PID.TID 0000.0001)                 2.648750305193301E+05,      /* J =  9 */
(PID.TID 0000.0001)                 2.736173771018112E+05,      /* J = 10 */
(PID.TID 0000.0001)                 2.810845823202647E+05,      /* J = 11 */
(PID.TID 0000.0001)                 2.873420591008078E+05,      /* J = 12 */
(PID.TID 0000.0001)                 2.924298293668651E+05,      /* J = 13 */
(PID.TID 0000.0001)                 2.963715635865306E+05,      /* J = 14 */
(PID.TID 0000.0001)                 2.991805843171258E+05,      /* J = 15 */
(PID.TID 0000.0001)                 3.008638765647886E+05,      /* J = 16 */
(PID.TID 0000.0001)                 3.014246674484008E+05,      /* J = 17 */
(PID.TID 0000.0001)                 3.008638765647886E+05,      /* J = 18 */
(PID.TID 0000.0001)                 2.991805843171258E+05,      /* J = 19 */
(PID.TID 0000.0001)                 2.963715635865306E+05,      /* J = 20 */
(PID.TID 0000.0001)                 2.924298293668651E+05,      /* J = 21 */
(PID.TID 0000.0001)                 2.873420591008078E+05,      /* J = 22 */
(PID.TID 0000.0001)                 2.810845823202647E+05,      /* J = 23 */
(PID.TID 0000.0001)                 2.736173771018112E+05,      /* J = 24 */
(PID.TID 0000.0001)                 2.648750305193301E+05,      /* J = 25 */
(PID.TID 0000.0001)                 2.547526806712889E+05,      /* J = 26 */
(PID.TID 0000.0001)                 2.430829951739083E+05,      /* J = 27 */
(PID.TID 0000.0001)                 2.295958105911512E+05,      /* J = 28 */
(PID.TID 0000.0001)                 2.138410773065497E+05,      /* J = 29 */
(PID.TID 0000.0001)                 1.950254041626018E+05,      /* J = 30 */
(PID.TID 0000.0001)                 1.716197227386011E+05,      /* J = 31 */
(PID.TID 0000.0001)                 1.403701524205398E+05       /* J = 32 */
(PID.TID 0000.0001)     ;
(PID.TID 0000.0001) dyG =  /* dyG(:,1,:,1) ( units: m ) */
(PID.TID 0000.0001)                 1.009837800879055E+05,      /* I =  1 */
(PID.TID 0000.0001)                 1.403701524205398E+05,      /* I =  2 */
(PID.TID 0000.0001)                 1.716197227386011E+05,      /* I =  3 */
(PID.TID 0000.0001)                 1.950254041626018E+05,      /* I =  4 */
(PID.TID 0000.0001)                 2.138410773065497E+05,      /* I =  5 */
(PID.TID 0000.0001)                 2.295958105911512E+05,      /* I =  6 */
(PID.TID 0000.0001)                 2.430829951739083E+05,      /* I =  7 */
(PID.TID 0000.0001)                 2.547526806712889E+05,      /* I =  8 */
(PID.TID 0000.0001)                 2.648750305193301E+05,      /* I =  9 */
(PID.TID 0000.0001)                 2.736173771018112E+05,      /* I = 10 */
(PID.TID 0000.0001)                 2.810845823202647E+05,      /* I = 11 */
(PID.TID 0000.0001)                 2.873420591008078E+05,      /* I = 12 */
(PID.TID 0000.0001)                 2.924298293668651E+05,      /* I = 13 */
(PID.TID 0000.0001)                 2.963715635865306E+05,      /* I = 14 */
(PID.TID 0000.0001)                 2.991805843171258E+05,      /* I = 15 */
(PID.TID 0000.0001)                 3.008638765647886E+05,      /* I = 16 */
(PID.TID 0000.0001)                 3.014246674484008E+05,      /* I = 17 */
(PID.TID 0000.0001)                 3.008638765647886E+05,      /* I = 18 */
(PID.TID 0000.0001)                 2.991805843171258E+05,      /* I = 19 */
(PID.TID 0000.0001)                 2.963715635865306E+05,      /* I = 20 */
(PID.TID 0000.0001)                 2.924298293668651E+05,      /* I = 21 */
(PID.TID 0000.0001)                 2.873420591008078E+05,      /* I = 22 */
(PID.TID 0000.0001)                 2.810845823202647E+05,      /* I = 23 */
(PID.TID 0000.0001)                 2.736173771018112E+05,      /* I = 24 */
(PID.TID 0000.0001)                 2.648750305193301E+05,      /* I = 25 */
(PID.TID 0000.0001)                 2.547526806712889E+05,      /* I = 26 */
(PID.TID 0000.0001)                 2.430829951739083E+05,      /* I = 27 */
(PID.TID 0000.0001)                 2.295958105911512E+05,      /* I = 28 */
(PID.TID 0000.0001)                 2.138410773065497E+05,      /* I = 29 */
(PID.TID 0000.0001)                 1.950254041626018E+05,      /* I = 30 */
(PID.TID 0000.0001)                 1.716197227386011E+05,      /* I = 31 */
(PID.TID 0000.0001)                 1.403701524205398E+05,      /* I = 32 */
(PID.TID 0000.0001)                 1.009837800879055E+05,      /* I = 33 */
(PID.TID 0000.0001)                 1.403701524205398E+05,      /* I = 34 */
(PID.TID 0000.0001)                 1.716197227386011E+05,      /* I = 35 */
(PID.TID 0000.0001)                 1.950254041626018E+05,      /* I = 36 */
(PID.TID 0000.0001)                 2.138410773065497E+05,      /* I = 37 */
(PID.TID 0000.0001)                 2.295958105911512E+05,      /* I = 38 */
(PID.TID 0000.0001)                 2.430829951739083E+05,      /* I = 39 */
(PID.TID 0000.0001)                 2.547526806712889E+05,      /* I = 40 */
(PID.TID 0000.0001)                 2.648750305193301E+05,      /* I = 41 */
(PID.TID 0000.0001)                 2.736173771018112E+05,      /* I = 42 */
(PID.TID 0000.0001)                 2.810845823202647E+05,      /* I = 43 */
(PID.TID 0000.0001)                 2.873420591008078E+05,      /* I = 44 */
(PID.TID 0000.0001)                 2.924298293668651E+05,      /* I = 45 */
(PID.TID 0000.0001)                 2.963715635865306E+05,      /* I = 46 */
(PID.TID 0000.0001)                 2.991805843171258E+05,      /* I = 47 */
(PID.TID 0000.0001)                 3.008638765647886E+05,      /* I = 48 */
(PID.TID 0000.0001)                 3.014246674484008E+05,      /* I = 49 */
(PID.TID 0000.0001)                 3.008638765647886E+05,      /* I = 50 */
(PID.TID 0000.0001)                 2.991805843171258E+05,      /* I = 51 */
(PID.TID 0000.0001)                 2.963715635865306E+05,      /* I = 52 */
(PID.TID 0000.0001)                 2.924298293668651E+05,      /* I = 53 */
(PID.TID 0000.0001)                 2.873420591008078E+05,      /* I = 54 */
(PID.TID 0000.0001)                 2.810845823202647E+05,      /* I = 55 */
(PID.TID 0000.0001)                 2.736173771018112E+05,      /* I = 56 */
(PID.TID 0000.0001)                 2.648750305193301E+05,      /* I = 57 */
(PID.TID 0000.0001)                 2.547526806712889E+05,      /* I = 58 */
(PID.TID 0000.0001)                 2.430829951739083E+05,      /* I = 59 */
(PID.TID 0000.0001)                 2.295958105911512E+05,      /* I = 60 */
(PID.TID 0000.0001)                 2.138410773065497E+05,      /* I = 61 */
(PID.TID 0000.0001)                 1.950254041626018E+05,      /* I = 62 */
(PID.TID 0000.0001)                 1.716197227386011E+05,      /* I = 63 */
(PID.TID 0000.0001)                 1.403701524205398E+05,      /* I = 64 */
(PID.TID 0000.0001)                 1.009837800879055E+05,      /* I = 65 */
(PID.TID 0000.0001)                 1.403701524205398E+05,      /* I = 66 */
(PID.TID 0000.0001)                 1.716197227386011E+05,      /* I = 67 */
(PID.TID 0000.0001)                 1.950254041626018E+05,      /* I = 68 */
(PID.TID 0000.0001)                 2.138410773065497E+05,      /* I = 69 */
(PID.TID 0000.0001)                 2.295958105911512E+05,      /* I = 70 */
(PID.TID 0000.0001)                 2.430829951739083E+05,      /* I = 71 */
(PID.TID 0000.0001)                 2.547526806712889E+05,      /* I = 72 */
(PID.TID 0000.0001)                 2.648750305193301E+05,      /* I = 73 */
(PID.TID 0000.0001)                 2.736173771018112E+05,      /* I = 74 */
(PID.TID 0000.0001)                 2.810845823202647E+05,      /* I = 75 */
(PID.TID 0000.0001)                 2.873420591008078E+05,      /* I = 76 */
(PID.TID 0000.0001)                 2.924298293668651E+05,      /* I = 77 */
(PID.TID 0000.0001)                 2.963715635865306E+05,      /* I = 78 */
(PID.TID 0000.0001)                 2.991805843171258E+05,      /* I = 79 */
(PID.TID 0000.0001)                 3.008638765647886E+05,      /* I = 80 */
(PID.TID 0000.0001)                 3.014246674484008E+05,      /* I = 81 */
(PID.TID 0000.0001)                 3.008638765647886E+05,      /* I = 82 */
(PID.TID 0000.0001)                 2.991805843171258E+05,      /* I = 83 */
(PID.TID 0000.0001)                 2.963715635865306E+05,      /* I = 84 */
(PID.TID 0000.0001)                 2.924298293668651E+05,      /* I = 85 */
(PID.TID 0000.0001)                 2.873420591008078E+05,      /* I = 86 */
(PID.TID 0000.0001)                 2.810845823202647E+05,      /* I = 87 */
(PID.TID 0000.0001)                 2.736173771018112E+05,      /* I = 88 */
(PID.TID 0000.0001)                 2.648750305193301E+05,      /* I = 89 */
(PID.TID 0000.0001)                 2.547526806712889E+05,      /* I = 90 */
(PID.TID 0000.0001)                 2.430829951739083E+05,      /* I = 91 */
(PID.TID 0000.0001)                 2.295958105911512E+05,      /* I = 92 */
(PID.TID 0000.0001)                 2.138410773065497E+05,      /* I = 93 */
(PID.TID 0000.0001)                 1.950254041626018E+05,      /* I = 94 */
(PID.TID 0000.0001)                 1.716197227386011E+05,      /* I = 95 */
(PID.TID 0000.0001)                 1.403701524205398E+05,      /* I = 96 */
(PID.TID 0000.0001)                 1.009837800879055E+05,      /* I = 97 */
(PID.TID 0000.0001)                 1.403701524205398E+05,      /* I = 98 */
(PID.TID 0000.0001)                 1.716197227386011E+05,      /* I = 99 */
(PID.TID 0000.0001)                 1.950254041626018E+05,      /* I =100 */
(PID.TID 0000.0001)                 2.138410773065497E+05,      /* I =101 */
(PID.TID 0000.0001)                 2.295958105911512E+05,      /* I =102 */
(PID.TID 0000.0001)                 2.430829951739083E+05,      /* I =103 */
(PID.TID 0000.0001)                 2.547526806712889E+05,      /* I =104 */
(PID.TID 0000.0001)                 2.648750305193301E+05,      /* I =105 */
(PID.TID 0000.0001)                 2.736173771018112E+05,      /* I =106 */
(PID.TID 0000.0001)                 2.810845823202647E+05,      /* I =107 */
(PID.TID 0000.0001)                 2.873420591008078E+05,      /* I =108 */
(PID.TID 0000.0001)                 2.924298293668651E+05,      /* I =109 */
(PID.TID 0000.0001)                 2.963715635865306E+05,      /* I =110 */
(PID.TID 0000.0001)                 2.991805843171258E+05,      /* I =111 */
(PID.TID 0000.0001)                 3.008638765647886E+05,      /* I =112 */
(PID.TID 0000.0001)                 3.014246674484008E+05,      /* I =113 */
(PID.TID 0000.0001)                 3.008638765647886E+05,      /* I =114 */
(PID.TID 0000.0001)                 2.991805843171258E+05,      /* I =115 */
(PID.TID 0000.0001)                 2.963715635865306E+05,      /* I =116 */
(PID.TID 0000.0001)                 2.924298293668651E+05,      /* I =117 */
(PID.TID 0000.0001)                 2.873420591008078E+05,      /* I =118 */
(PID.TID 0000.0001)                 2.810845823202647E+05,      /* I =119 */
(PID.TID 0000.0001)                 2.736173771018112E+05,      /* I =120 */
(PID.TID 0000.0001)                 2.648750305193301E+05,      /* I =121 */
(PID.TID 0000.0001)                 2.547526806712889E+05,      /* I =122 */
(PID.TID 0000.0001)                 2.430829951739083E+05,      /* I =123 */
(PID.TID 0000.0001)                 2.295958105911512E+05,      /* I =124 */
(PID.TID 0000.0001)                 2.138410773065497E+05,      /* I =125 */
(PID.TID 0000.0001)                 1.950254041626018E+05,      /* I =126 */
(PID.TID 0000.0001)                 1.716197227386011E+05,      /* I =127 */
(PID.TID 0000.0001)                 1.403701524205398E+05,      /* I =128 */
(PID.TID 0000.0001)                 1.009837800879055E+05,      /* I =129 */
(PID.TID 0000.0001)                 1.403701524205398E+05,      /* I =130 */
(PID.TID 0000.0001)                 1.716197227386011E+05,      /* I =131 */
(PID.TID 0000.0001)                 1.950254041626018E+05,      /* I =132 */
(PID.TID 0000.0001)                 2.138410773065497E+05,      /* I =133 */
(PID.TID 0000.0001)                 2.295958105911512E+05,      /* I =134 */
(PID.TID 0000.0001)                 2.430829951739083E+05,      /* I =135 */
(PID.TID 0000.0001)                 2.547526806712889E+05,      /* I =136 */
(PID.TID 0000.0001)                 2.648750305193301E+05,      /* I =137 */
(PID.TID 0000.0001)                 2.736173771018112E+05,      /* I =138 */
(PID.TID 0000.0001)                 2.810845823202647E+05,      /* I =139 */
(PID.TID 0000.0001)                 2.873420591008078E+05,      /* I =140 */
(PID.TID 0000.0001)                 2.924298293668651E+05,      /* I =141 */
(PID.TID 0000.0001)                 2.963715635865306E+05,      /* I =142 */
(PID.TID 0000.0001)                 2.991805843171258E+05,      /* I =143 */
(PID.TID 0000.0001)                 3.008638765647886E+05,      /* I =144 */
(PID.TID 0000.0001)                 3.014246674484008E+05,      /* I =145 */
(PID.TID 0000.0001)                 3.008638765647886E+05,      /* I =146 */
(PID.TID 0000.0001)                 2.991805843171258E+05,      /* I =147 */
(PID.TID 0000.0001)                 2.963715635865306E+05,      /* I =148 */
(PID.TID 0000.0001)                 2.924298293668651E+05,      /* I =149 */
(PID.TID 0000.0001)                 2.873420591008078E+05,      /* I =150 */
(PID.TID 0000.0001)                 2.810845823202647E+05,      /* I =151 */
(PID.TID 0000.0001)                 2.736173771018112E+05,      /* I =152 */
(PID.TID 0000.0001)                 2.648750305193301E+05,      /* I =153 */
(PID.TID 0000.0001)                 2.547526806712889E+05,      /* I =154 */
(PID.TID 0000.0001)                 2.430829951739083E+05,      /* I =155 */
(PID.TID 0000.0001)                 2.295958105911512E+05,      /* I =156 */
(PID.TID 0000.0001)                 2.138410773065497E+05,      /* I =157 */
(PID.TID 0000.0001)                 1.950254041626018E+05,      /* I =158 */
(PID.TID 0000.0001)                 1.716197227386011E+05,      /* I =159 */
(PID.TID 0000.0001)                 1.403701524205398E+05,      /* I =160 */
(PID.TID 0000.0001)                 1.009837800879055E+05,      /* I =161 */
(PID.TID 0000.0001)                 1.403701524205398E+05,      /* I =162 */
(PID.TID 0000.0001)                 1.716197227386011E+05,      /* I =163 */
(PID.TID 0000.0001)                 1.950254041626018E+05,      /* I =164 */
(PID.TID 0000.0001)                 2.138410773065497E+05,      /* I =165 */
(PID.TID 0000.0001)                 2.295958105911512E+05,      /* I =166 */
(PID.TID 0000.0001)                 2.430829951739083E+05,      /* I =167 */
(PID.TID 0000.0001)                 2.547526806712889E+05,      /* I =168 */
(PID.TID 0000.0001)                 2.648750305193301E+05,      /* I =169 */
(PID.TID 0000.0001)                 2.736173771018112E+05,      /* I =170 */
(PID.TID 0000.0001)                 2.810845823202647E+05,      /* I =171 */
(PID.TID 0000.0001)                 2.873420591008078E+05,      /* I =172 */
(PID.TID 0000.0001)                 2.924298293668651E+05,      /* I =173 */
(PID.TID 0000.0001)                 2.963715635865306E+05,      /* I =174 */
(PID.TID 0000.0001)                 2.991805843171258E+05,      /* I =175 */
(PID.TID 0000.0001)                 3.008638765647886E+05,      /* I =176 */
(PID.TID 0000.0001)                 3.014246674484008E+05,      /* I =177 */
(PID.TID 0000.0001)                 3.008638765647886E+05,      /* I =178 */
(PID.TID 0000.0001)                 2.991805843171258E+05,      /* I =179 */
(PID.TID 0000.0001)                 2.963715635865306E+05,      /* I =180 */
(PID.TID 0000.0001)                 2.924298293668651E+05,      /* I =181 */
(PID.TID 0000.0001)                 2.873420591008078E+05,      /* I =182 */
(PID.TID 0000.0001)                 2.810845823202647E+05,      /* I =183 */
(PID.TID 0000.0001)                 2.736173771018112E+05,      /* I =184 */
(PID.TID 0000.0001)                 2.648750305193301E+05,      /* I =185 */
(PID.TID 0000.0001)                 2.547526806712889E+05,      /* I =186 */
(PID.TID 0000.0001)                 2.430829951739083E+05,      /* I =187 */
(PID.TID 0000.0001)                 2.295958105911512E+05,      /* I =188 */
(PID.TID 0000.0001)                 2.138410773065497E+05,      /* I =189 */
(PID.TID 0000.0001)                 1.950254041626018E+05,      /* I =190 */
(PID.TID 0000.0001)                 1.716197227386011E+05,      /* I =191 */
(PID.TID 0000.0001)                 1.403701524205398E+05       /* I =192 */
(PID.TID 0000.0001)     ;
(PID.TID 0000.0001) dyG =  /* dyG(1,:,1,:) ( units: m ) */
(PID.TID 0000.0001)                 1.009837800879055E+05,      /* J =  1 */
(PID.TID 0000.0001)                 1.534505834330338E+05,      /* J =  2 */
(PID.TID 0000.0001)                 1.823321598773926E+05,      /* J =  3 */
(PID.TID 0000.0001)                 2.038999045536999E+05,      /* J =  4 */
(PID.TID 0000.0001)                 2.213884732245467E+05,      /* J =  5 */
(PID.TID 0000.0001)                 2.361211699596122E+05,      /* J =  6 */
(PID.TID 0000.0001)                 2.487693460283865E+05,      /* J =  7 */
(PID.TID 0000.0001)                 2.597126963772147E+05,      /* J =  8 */
(PID.TID 0000.0001)                 2.691790288994575E+05,      /* J =  9 */
(PID.TID 0000.0001)                 2.773091043277394E+05,      /* J = 10 */
(PID.TID 0000.0001)                 2.841906470085516E+05,      /* J = 11 */
(PID.TID 0000.0001)                 2.898778860929753E+05,      /* J = 12 */
(PID.TID 0000.0001)                 2.944035815526416E+05,      /* J = 13 */
(PID.TID 0000.0001)                 2.977867909042096E+05,      /* J = 14 */
(PID.TID 0000.0001)                 3.000380090330854E+05,      /* J = 15 */
(PID.TID 0000.0001)     2 @  3.011625828699101E+05,             /* J = 16: 17 */
(PID.TID 0000.0001)                 3.000380090330854E+05,      /* J = 18 */
(PID.TID 0000.0001)                 2.977867909042096E+05,      /* J = 19 */
(PID.TID 0000.0001)                 2.944035815526416E+05,      /* J = 20 */
(PID.TID 0000.0001)                 2.898778860929753E+05,      /* J = 21 */
(PID.TID 0000.0001)                 2.841906470085516E+05,      /* J = 22 */
(PID.TID 0000.0001)                 2.773091043277394E+05,      /* J = 23 */
(PID.TID 0000.0001)                 2.691790288994575E+05,      /* J = 24 */
(PID.TID 0000.0001)                 2.597126963772147E+05,      /* J = 25 */
(PID.TID 0000.0001)                 2.487693460283865E+05,      /* J = 26 */
(PID.TID 0000.0001)                 2.361211699596122E+05,      /* J = 27 */
(PID.TID 0000.0001)                 2.213884732245467E+05,      /* J = 28 */
(PID.TID 0000.0001)                 2.038999045536999E+05,      /* J = 29 */
(PID.TID 0000.0001)                 1.823321598773926E+05,      /* J = 30 */
(PID.TID 0000.0001)                 1.534505834330338E+05,      /* J = 31 */
(PID.TID 0000.0001)                 1.009837800879055E+05       /* J = 32 */
(PID.TID 0000.0001)     ;
(PID.TID 0000.0001) dxC =  /* dxC(:,1,:,1) ( units: m ) */
(PID.TID 0000.0001)                 1.114203141013064E+05,      /* I =  1 */
(PID.TID 0000.0001)                 1.391343389937106E+05,      /* I =  2 */
(PID.TID 0000.0001)                 1.709574999026266E+05,      /* I =  3 */
(PID.TID 0000.0001)                 1.946503699269892E+05,      /* I =  4 */
(PID.TID 0000.0001)                 2.135964483342134E+05,      /* I =  5 */
(PID.TID 0000.0001)                 2.294195678257306E+05,      /* I =  6 */
(PID.TID 0000.0001)                 2.429464709770498E+05,      /* I =  7 */
(PID.TID 0000.0001)                 2.546408290696998E+05,      /* I =  8 */
(PID.TID 0000.0001)                 2.647791839299727E+05,      /* I =  9 */
(PID.TID 0000.0001)                 2.735321911346108E+05,      /* I = 10 */
(PID.TID 0000.0001)                 2.810065951609633E+05,      /* I = 11 */
(PID.TID 0000.0001)                 2.872689479506990E+05,      /* I = 12 */
(PID.TID 0000.0001)                 2.923599955312932E+05,      /* I = 13 */
(PID.TID 0000.0001)                 2.963038832565530E+05,      /* I = 14 */
(PID.TID 0000.0001)                 2.991142470004740E+05,      /* I = 15 */
(PID.TID 0000.0001)                 3.007982711627968E+05,      /* I = 16 */
(PID.TID 0000.0001)                 3.013593857228136E+05,      /* I = 17 */
(PID.TID 0000.0001)                 3.007982711627968E+05,      /* I = 18 */
(PID.TID 0000.0001)                 2.991142470004740E+05,      /* I = 19 */
(PID.TID 0000.0001)                 2.963038832565530E+05,      /* I = 20 */
(PID.TID 0000.0001)                 2.923599955312932E+05,      /* I = 21 */
(PID.TID 0000.0001)                 2.872689479506990E+05,      /* I = 22 */
(PID.TID 0000.0001)                 2.810065951609633E+05,      /* I = 23 */
(PID.TID 0000.0001)                 2.735321911346108E+05,      /* I = 24 */
(PID.TID 0000.0001)                 2.647791839299727E+05,      /* I = 25 */
(PID.TID 0000.0001)                 2.546408290696998E+05,      /* I = 26 */
(PID.TID 0000.0001)                 2.429464709770498E+05,      /* I = 27 */
(PID.TID 0000.0001)                 2.294195678257306E+05,      /* I = 28 */
(PID.TID 0000.0001)                 2.135964483342134E+05,      /* I = 29 */
(PID.TID 0000.0001)                 1.946503699269892E+05,      /* I = 30 */
(PID.TID 0000.0001)                 1.709574999026266E+05,      /* I = 31 */
(PID.TID 0000.0001)                 1.391343389937106E+05,      /* I = 32 */
(PID.TID 0000.0001)                 1.114203141013064E+05,      /* I = 33 */
(PID.TID 0000.0001)                 1.391343389937106E+05,      /* I = 34 */
(PID.TID 0000.0001)                 1.709574999026266E+05,      /* I = 35 */
(PID.TID 0000.0001)                 1.946503699269892E+05,      /* I = 36 */
(PID.TID 0000.0001)                 2.135964483342134E+05,      /* I = 37 */
(PID.TID 0000.0001)                 2.294195678257306E+05,      /* I = 38 */
(PID.TID 0000.0001)                 2.429464709770498E+05,      /* I = 39 */
(PID.TID 0000.0001)                 2.546408290696998E+05,      /* I = 40 */
(PID.TID 0000.0001)                 2.647791839299727E+05,      /* I = 41 */
(PID.TID 0000.0001)                 2.735321911346108E+05,      /* I = 42 */
(PID.TID 0000.0001)                 2.810065951609633E+05,      /* I = 43 */
(PID.TID 0000.0001)                 2.872689479506990E+05,      /* I = 44 */
(PID.TID 0000.0001)                 2.923599955312932E+05,      /* I = 45 */
(PID.TID 0000.0001)                 2.963038832565530E+05,      /* I = 46 */
(PID.TID 0000.0001)                 2.991142470004740E+05,      /* I = 47 */
(PID.TID 0000.0001)                 3.007982711627968E+05,      /* I = 48 */
(PID.TID 0000.0001)                 3.013593857228136E+05,      /* I = 49 */
(PID.TID 0000.0001)                 3.007982711627968E+05,      /* I = 50 */
(PID.TID 0000.0001)                 2.991142470004740E+05,      /* I = 51 */
(PID.TID 0000.0001)                 2.963038832565530E+05,      /* I = 52 */
(PID.TID 0000.0001)                 2.923599955312932E+05,      /* I = 53 */
(PID.TID 0000.0001)                 2.872689479506990E+05,      /* I = 54 */
(PID.TID 0000.0001)                 2.810065951609633E+05,      /* I = 55 */
(PID.TID 0000.0001)                 2.735321911346108E+05,      /* I = 56 */
(PID.TID 0000.0001)                 2.647791839299727E+05,      /* I = 57 */
(PID.TID 0000.0001)                 2.546408290696998E+05,      /* I = 58 */
(PID.TID 0000.0001)                 2.429464709770498E+05,      /* I = 59 */
(PID.TID 0000.0001)                 2.294195678257306E+05,      /* I = 60 */
(PID.TID 0000.0001)                 2.135964483342134E+05,      /* I = 61 */
(PID.TID 0000.0001)                 1.946503699269892E+05,      /* I = 62 */
(PID.TID 0000.0001)                 1.709574999026266E+05,      /* I = 63 */
(PID.TID 0000.0001)                 1.391343389937106E+05,      /* I = 64 */
(PID.TID 0000.0001)                 1.114203141013064E+05,      /* I = 65 */
(PID.TID 0000.0001)                 1.391343389937106E+05,      /* I = 66 */
(PID.TID 0000.0001)                 1.709574999026266E+05,      /* I = 67 */
(PID.TID 0000.0001)                 1.946503699269892E+05,      /* I = 68 */
(PID.TID 0000.0001)                 2.135964483342134E+05,      /* I = 69 */
(PID.TID 0000.0001)                 2.294195678257306E+05,      /* I = 70 */
(PID.TID 0000.0001)                 2.429464709770498E+05,      /* I = 71 */
(PID.TID 0000.0001)                 2.546408290696998E+05,      /* I = 72 */
(PID.TID 0000.0001)                 2.647791839299727E+05,      /* I = 73 */
(PID.TID 0000.0001)                 2.735321911346108E+05,      /* I = 74 */
(PID.TID 0000.0001)                 2.810065951609633E+05,      /* I = 75 */
(PID.TID 0000.0001)                 2.872689479506990E+05,      /* I = 76 */
(PID.TID 0000.0001)                 2.923599955312932E+05,      /* I = 77 */
(PID.TID 0000.0001)                 2.963038832565530E+05,      /* I = 78 */
(PID.TID 0000.0001)                 2.991142470004740E+05,      /* I = 79 */
(PID.TID 0000.0001)                 3.007982711627968E+05,      /* I = 80 */
(PID.TID 0000.0001)                 3.013593857228136E+05,      /* I = 81 */
(PID.TID 0000.0001)                 3.007982711627968E+05,      /* I = 82 */
(PID.TID 0000.0001)                 2.991142470004740E+05,      /* I = 83 */
(PID.TID 0000.0001)                 2.963038832565530E+05,      /* I = 84 */
(PID.TID 0000.0001)                 2.923599955312932E+05,      /* I = 85 */
(PID.TID 0000.0001)                 2.872689479506990E+05,      /* I = 86 */
(PID.TID 0000.0001)                 2.810065951609633E+05,      /* I = 87 */
(PID.TID 0000.0001)                 2.735321911346108E+05,      /* I = 88 */
(PID.TID 0000.0001)                 2.647791839299727E+05,      /* I = 89 */
(PID.TID 0000.0001)                 2.546408290696998E+05,      /* I = 90 */
(PID.TID 0000.0001)                 2.429464709770498E+05,      /* I = 91 */
(PID.TID 0000.0001)                 2.294195678257306E+05,      /* I = 92 */
(PID.TID 0000.0001)                 2.135964483342134E+05,      /* I = 93 */
(PID.TID 0000.0001)                 1.946503699269892E+05,      /* I = 94 */
(PID.TID 0000.0001)                 1.709574999026266E+05,      /* I = 95 */
(PID.TID 0000.0001)                 1.391343389937106E+05,      /* I = 96 */
(PID.TID 0000.0001)                 1.114203141013064E+05,      /* I = 97 */
(PID.TID 0000.0001)                 1.391343389937106E+05,      /* I = 98 */
(PID.TID 0000.0001)                 1.709574999026266E+05,      /* I = 99 */
(PID.TID 0000.0001)                 1.946503699269892E+05,      /* I =100 */
(PID.TID 0000.0001)                 2.135964483342134E+05,      /* I =101 */
(PID.TID 0000.0001)                 2.294195678257306E+05,      /* I =102 */
(PID.TID 0000.0001)                 2.429464709770498E+05,      /* I =103 */
(PID.TID 0000.0001)                 2.546408290696998E+05,      /* I =104 */
(PID.TID 0000.0001)                 2.647791839299727E+05,      /* I =105 */
(PID.TID 0000.0001)                 2.735321911346108E+05,      /* I =106 */
(PID.TID 0000.0001)                 2.810065951609633E+05,      /* I =107 */
(PID.TID 0000.0001)                 2.872689479506990E+05,      /* I =108 */
(PID.TID 0000.0001)                 2.923599955312932E+05,      /* I =109 */
(PID.TID 0000.0001)                 2.963038832565530E+05,      /* I =110 */
(PID.TID 0000.0001)                 2.991142470004740E+05,      /* I =111 */
(PID.TID 0000.0001)                 3.007982711627968E+05,      /* I =112 */
(PID.TID 0000.0001)                 3.013593857228136E+05,      /* I =113 */
(PID.TID 0000.0001)                 3.007982711627968E+05,      /* I =114 */
(PID.TID 0000.0001)                 2.991142470004740E+05,      /* I =115 */
(PID.TID 0000.0001)                 2.963038832565530E+05,      /* I =116 */
(PID.TID 0000.0001)                 2.923599955312932E+05,      /* I =117 */
(PID.TID 0000.0001)                 2.872689479506990E+05,      /* I =118 */
(PID.TID 0000.0001)                 2.810065951609633E+05,      /* I =119 */
(PID.TID 0000.0001)                 2.735321911346108E+05,      /* I =120 */
(PID.TID 0000.0001)                 2.647791839299727E+05,      /* I =121 */
(PID.TID 0000.0001)                 2.546408290696998E+05,      /* I =122 */
(PID.TID 0000.0001)                 2.429464709770498E+05,      /* I =123 */
(PID.TID 0000.0001)                 2.294195678257306E+05,      /* I =124 */
(PID.TID 0000.0001)                 2.135964483342134E+05,      /* I =125 */
(PID.TID 0000.0001)                 1.946503699269892E+05,      /* I =126 */
(PID.TID 0000.0001)                 1.709574999026266E+05,      /* I =127 */
(PID.TID 0000.0001)                 1.391343389937106E+05,      /* I =128 */
(PID.TID 0000.0001)                 1.114203141013064E+05,      /* I =129 */
(PID.TID 0000.0001)                 1.391343389937106E+05,      /* I =130 */
(PID.TID 0000.0001)                 1.709574999026266E+05,      /* I =131 */
(PID.TID 0000.0001)                 1.946503699269892E+05,      /* I =132 */
(PID.TID 0000.0001)                 2.135964483342134E+05,      /* I =133 */
(PID.TID 0000.0001)                 2.294195678257306E+05,      /* I =134 */
(PID.TID 0000.0001)                 2.429464709770498E+05,      /* I =135 */
(PID.TID 0000.0001)                 2.546408290696998E+05,      /* I =136 */
(PID.TID 0000.0001)                 2.647791839299727E+05,      /* I =137 */
(PID.TID 0000.0001)                 2.735321911346108E+05,      /* I =138 */
(PID.TID 0000.0001)                 2.810065951609633E+05,      /* I =139 */
(PID.TID 0000.0001)                 2.872689479506990E+05,      /* I =140 */
(PID.TID 0000.0001)                 2.923599955312932E+05,      /* I =141 */
(PID.TID 0000.0001)                 2.963038832565530E+05,      /* I =142 */
(PID.TID 0000.0001)                 2.991142470004740E+05,      /* I =143 */
(PID.TID 0000.0001)                 3.007982711627968E+05,      /* I =144 */
(PID.TID 0000.0001)                 3.013593857228136E+05,      /* I =145 */
(PID.TID 0000.0001)                 3.007982711627968E+05,      /* I =146 */
(PID.TID 0000.0001)                 2.991142470004740E+05,      /* I =147 */
(PID.TID 0000.0001)                 2.963038832565530E+05,      /* I =148 */
(PID.TID 0000.0001)                 2.923599955312932E+05,      /* I =149 */
(PID.TID 0000.0001)                 2.872689479506990E+05,      /* I =150 */
(PID.TID 0000.0001)                 2.810065951609633E+05,      /* I =151 */
(PID.TID 0000.0001)                 2.735321911346108E+05,      /* I =152 */
(PID.TID 0000.0001)                 2.647791839299727E+05,      /* I =153 */
(PID.TID 0000.0001)                 2.546408290696998E+05,      /* I =154 */
(PID.TID 0000.0001)                 2.429464709770498E+05,      /* I =155 */
(PID.TID 0000.0001)                 2.294195678257306E+05,      /* I =156 */
(PID.TID 0000.0001)                 2.135964483342134E+05,      /* I =157 */
(PID.TID 0000.0001)                 1.946503699269892E+05,      /* I =158 */
(PID.TID 0000.0001)                 1.709574999026266E+05,      /* I =159 */
(PID.TID 0000.0001)                 1.391343389937106E+05,      /* I =160 */
(PID.TID 0000.0001)                 1.114203141013064E+05,      /* I =161 */
(PID.TID 0000.0001)                 1.391343389937106E+05,      /* I =162 */
(PID.TID 0000.0001)                 1.709574999026266E+05,      /* I =163 */
(PID.TID 0000.0001)                 1.946503699269892E+05,      /* I =164 */
(PID.TID 0000.0001)                 2.135964483342134E+05,      /* I =165 */
(PID.TID 0000.0001)                 2.294195678257306E+05,      /* I =166 */
(PID.TID 0000.0001)                 2.429464709770498E+05,      /* I =167 */
(PID.TID 0000.0001)                 2.546408290696998E+05,      /* I =168 */
(PID.TID 0000.0001)                 2.647791839299727E+05,      /* I =169 */
(PID.TID 0000.0001)                 2.735321911346108E+05,      /* I =170 */
(PID.TID 0000.0001)                 2.810065951609633E+05,      /* I =171 */
(PID.TID 0000.0001)                 2.872689479506990E+05,      /* I =172 */
(PID.TID 0000.0001)                 2.923599955312932E+05,      /* I =173 */
(PID.TID 0000.0001)                 2.963038832565530E+05,      /* I =174 */
(PID.TID 0000.0001)                 2.991142470004740E+05,      /* I =175 */
(PID.TID 0000.0001)                 3.007982711627968E+05,      /* I =176 */
(PID.TID 0000.0001)                 3.013593857228136E+05,      /* I =177 */
(PID.TID 0000.0001)                 3.007982711627968E+05,      /* I =178 */
(PID.TID 0000.0001)                 2.991142470004740E+05,      /* I =179 */
(PID.TID 0000.0001)                 2.963038832565530E+05,      /* I =180 */
(PID.TID 0000.0001)                 2.923599955312932E+05,      /* I =181 */
(PID.TID 0000.0001)                 2.872689479506990E+05,      /* I =182 */
(PID.TID 0000.0001)                 2.810065951609633E+05,      /* I =183 */
(PID.TID 0000.0001)                 2.735321911346108E+05,      /* I =184 */
(PID.TID 0000.0001)                 2.647791839299727E+05,      /* I =185 */
(PID.TID 0000.0001)                 2.546408290696998E+05,      /* I =186 */
(PID.TID 0000.0001)                 2.429464709770498E+05,      /* I =187 */
(PID.TID 0000.0001)                 2.294195678257306E+05,      /* I =188 */
(PID.TID 0000.0001)                 2.135964483342134E+05,      /* I =189 */
(PID.TID 0000.0001)                 1.946503699269892E+05,      /* I =190 */
(PID.TID 0000.0001)                 1.709574999026266E+05,      /* I =191 */
(PID.TID 0000.0001)                 1.391343389937106E+05       /* I =192 */
(PID.TID 0000.0001)     ;
(PID.TID 0000.0001) dxC =  /* dxC(1,:,1,:) ( units: m ) */
(PID.TID 0000.0001)                 1.114203141013064E+05,      /* J =  1 */
(PID.TID 0000.0001)                 1.549545757850771E+05,      /* J =  2 */
(PID.TID 0000.0001)                 1.829777599966776E+05,      /* J =  3 */
(PID.TID 0000.0001)                 2.042717761866506E+05,      /* J =  4 */
(PID.TID 0000.0001)                 2.216367828252819E+05,      /* J =  5 */
(PID.TID 0000.0001)                 2.363029564123586E+05,      /* J =  6 */
(PID.TID 0000.0001)                 2.489113743322025E+05,      /* J =  7 */
(PID.TID 0000.0001)                 2.598293319150326E+05,      /* J =  8 */
(PID.TID 0000.0001)                 2.692787333338535E+05,      /* J =  9 */
(PID.TID 0000.0001)                 2.773972106720365E+05,      /* J = 10 */
(PID.TID 0000.0001)                 2.842706922224557E+05,      /* J = 11 */
(PID.TID 0000.0001)                 2.899523122489403E+05,      /* J = 12 */
(PID.TID 0000.0001)                 2.944741346384699E+05,      /* J = 13 */
(PID.TID 0000.0001)                 2.978547649292580E+05,      /* J = 14 */
(PID.TID 0000.0001)                 3.001044073506459E+05,      /* J = 15 */
(PID.TID 0000.0001)     2 @  3.012281885409289E+05,             /* J = 16: 17 */
(PID.TID 0000.0001)                 3.001044073506459E+05,      /* J = 18 */
(PID.TID 0000.0001)                 2.978547649292580E+05,      /* J = 19 */
(PID.TID 0000.0001)                 2.944741346384699E+05,      /* J = 20 */
(PID.TID 0000.0001)                 2.899523122489403E+05,      /* J = 21 */
(PID.TID 0000.0001)                 2.842706922224557E+05,      /* J = 22 */
(PID.TID 0000.0001)                 2.773972106720365E+05,      /* J = 23 */
(PID.TID 0000.0001)                 2.692787333338535E+05,      /* J = 24 */
(PID.TID 0000.0001)                 2.598293319150326E+05,      /* J = 25 */
(PID.TID 0000.0001)                 2.489113743322025E+05,      /* J = 26 */
(PID.TID 0000.0001)                 2.363029564123586E+05,      /* J = 27 */
(PID.TID 0000.0001)                 2.216367828252819E+05,      /* J = 28 */
(PID.TID 0000.0001)                 2.042717761866506E+05,      /* J = 29 */
(PID.TID 0000.0001)                 1.829777599966776E+05,      /* J = 30 */
(PID.TID 0000.0001)                 1.549545757850771E+05,      /* J = 31 */
(PID.TID 0000.0001)                 1.114203141013064E+05       /* J = 32 */
(PID.TID 0000.0001)     ;
(PID.TID 0000.0001) dyC =  /* dyC(:,1,:,1) ( units: m ) */
(PID.TID 0000.0001)                 1.114203141013064E+05,      /* I =  1 */
(PID.TID 0000.0001)                 1.549545757850771E+05,      /* I =  2 */
(PID.TID 0000.0001)                 1.829777599966776E+05,      /* I =  3 */
(PID.TID 0000.0001)                 2.042717761866506E+05,      /* I =  4 */
(PID.TID 0000.0001)                 2.216367828252819E+05,      /* I =  5 */
(PID.TID 0000.0001)                 2.363029564123586E+05,      /* I =  6 */
(PID.TID 0000.0001)                 2.489113743322025E+05,      /* I =  7 */
(PID.TID 0000.0001)                 2.598293319150326E+05,      /* I =  8 */
(PID.TID 0000.0001)                 2.692787333338535E+05,      /* I =  9 */
(PID.TID 0000.0001)                 2.773972106720365E+05,      /* I = 10 */
(PID.TID 0000.0001)                 2.842706922224557E+05,      /* I = 11 */
(PID.TID 0000.0001)                 2.899523122489403E+05,      /* I = 12 */
(PID.TID 0000.0001)                 2.944741346384699E+05,      /* I = 13 */
(PID.TID 0000.0001)                 2.978547649292580E+05,      /* I = 14 */
(PID.TID 0000.0001)                 3.001044073506459E+05,      /* I = 15 */
(PID.TID 0000.0001)     2 @  3.012281885409289E+05,             /* I = 16: 17 */
(PID.TID 0000.0001)                 3.001044073506459E+05,      /* I = 18 */
(PID.TID 0000.0001)                 2.978547649292580E+05,      /* I = 19 */
(PID.TID 0000.0001)                 2.944741346384699E+05,      /* I = 20 */
(PID.TID 0000.0001)                 2.899523122489403E+05,      /* I = 21 */
(PID.TID 0000.0001)                 2.842706922224557E+05,      /* I = 22 */
(PID.TID 0000.0001)                 2.773972106720365E+05,      /* I = 23 */
(PID.TID 0000.0001)                 2.692787333338535E+05,      /* I = 24 */
(PID.TID 0000.0001)                 2.598293319150326E+05,      /* I = 25 */
(PID.TID 0000.0001)                 2.489113743322025E+05,      /* I = 26 */
(PID.TID 0000.0001)                 2.363029564123586E+05,      /* I = 27 */
(PID.TID 0000.0001)                 2.216367828252819E+05,      /* I = 28 */
(PID.TID 0000.0001)                 2.042717761866506E+05,      /* I = 29 */
(PID.TID 0000.0001)                 1.829777599966776E+05,      /* I = 30 */
(PID.TID 0000.0001)                 1.549545757850771E+05,      /* I = 31 */
(PID.TID 0000.0001)     2 @  1.114203141013064E+05,             /* I = 32: 33 */
(PID.TID 0000.0001)                 1.549545757850771E+05,      /* I = 34 */
(PID.TID 0000.0001)                 1.829777599966776E+05,      /* I = 35 */
(PID.TID 0000.0001)                 2.042717761866506E+05,      /* I = 36 */
(PID.TID 0000.0001)                 2.216367828252819E+05,      /* I = 37 */
(PID.TID 0000.0001)                 2.363029564123586E+05,      /* I = 38 */
(PID.TID 0000.0001)                 2.489113743322025E+05,      /* I = 39 */
(PID.TID 0000.0001)                 2.598293319150326E+05,      /* I = 40 */
(PID.TID 0000.0001)                 2.692787333338535E+05,      /* I = 41 */
(PID.TID 0000.0001)                 2.773972106720365E+05,      /* I = 42 */
(PID.TID 0000.0001)                 2.842706922224557E+05,      /* I = 43 */
(PID.TID 0000.0001)                 2.899523122489403E+05,      /* I = 44 */
(PID.TID 0000.0001)                 2.944741346384699E+05,      /* I = 45 */
(PID.TID 0000.0001)                 2.978547649292580E+05,      /* I = 46 */
(PID.TID 0000.0001)                 3.001044073506459E+05,      /* I = 47 */
(PID.TID 0000.0001)     2 @  3.012281885409289E+05,             /* I = 48: 49 */
(PID.TID 0000.0001)                 3.001044073506459E+05,      /* I = 50 */
(PID.TID 0000.0001)                 2.978547649292580E+05,      /* I = 51 */
(PID.TID 0000.0001)                 2.944741346384699E+05,      /* I = 52 */
(PID.TID 0000.0001)                 2.899523122489403E+05,      /* I = 53 */
(PID.TID 0000.0001)                 2.842706922224557E+05,      /* I = 54 */
(PID.TID 0000.0001)                 2.773972106720365E+05,      /* I = 55 */
(PID.TID 0000.0001)                 2.692787333338535E+05,      /* I = 56 */
(PID.TID 0000.0001)                 2.598293319150326E+05,      /* I = 57 */
(PID.TID 0000.0001)                 2.489113743322025E+05,      /* I = 58 */
(PID.TID 0000.0001)                 2.363029564123586E+05,      /* I = 59 */
(PID.TID 0000.0001)                 2.216367828252819E+05,      /* I = 60 */
(PID.TID 0000.0001)                 2.042717761866506E+05,      /* I = 61 */
(PID.TID 0000.0001)                 1.829777599966776E+05,      /* I = 62 */
(PID.TID 0000.0001)                 1.549545757850771E+05,      /* I = 63 */
(PID.TID 0000.0001)     2 @  1.114203141013064E+05,             /* I = 64: 65 */
(PID.TID 0000.0001)                 1.549545757850771E+05,      /* I = 66 */
(PID.TID 0000.0001)                 1.829777599966776E+05,      /* I = 67 */
(PID.TID 0000.0001)                 2.042717761866506E+05,      /* I = 68 */
(PID.TID 0000.0001)                 2.216367828252819E+05,      /* I = 69 */
(PID.TID 0000.0001)                 2.363029564123586E+05,      /* I = 70 */
(PID.TID 0000.0001)                 2.489113743322025E+05,      /* I = 71 */
(PID.TID 0000.0001)                 2.598293319150326E+05,      /* I = 72 */
(PID.TID 0000.0001)                 2.692787333338535E+05,      /* I = 73 */
(PID.TID 0000.0001)                 2.773972106720365E+05,      /* I = 74 */
(PID.TID 0000.0001)                 2.842706922224557E+05,      /* I = 75 */
(PID.TID 0000.0001)                 2.899523122489403E+05,      /* I = 76 */
(PID.TID 0000.0001)                 2.944741346384699E+05,      /* I = 77 */
(PID.TID 0000.0001)                 2.978547649292580E+05,      /* I = 78 */
(PID.TID 0000.0001)                 3.001044073506459E+05,      /* I = 79 */
(PID.TID 0000.0001)     2 @  3.012281885409289E+05,             /* I = 80: 81 */
(PID.TID 0000.0001)                 3.001044073506459E+05,      /* I = 82 */
(PID.TID 0000.0001)                 2.978547649292580E+05,      /* I = 83 */
(PID.TID 0000.0001)                 2.944741346384699E+05,      /* I = 84 */
(PID.TID 0000.0001)                 2.899523122489403E+05,      /* I = 85 */
(PID.TID 0000.0001)                 2.842706922224557E+05,      /* I = 86 */
(PID.TID 0000.0001)                 2.773972106720365E+05,      /* I = 87 */
(PID.TID 0000.0001)                 2.692787333338535E+05,      /* I = 88 */
(PID.TID 0000.0001)                 2.598293319150326E+05,      /* I = 89 */
(PID.TID 0000.0001)                 2.489113743322025E+05,      /* I = 90 */
(PID.TID 0000.0001)                 2.363029564123586E+05,      /* I = 91 */
(PID.TID 0000.0001)                 2.216367828252819E+05,      /* I = 92 */
(PID.TID 0000.0001)                 2.042717761866506E+05,      /* I = 93 */
(PID.TID 0000.0001)                 1.829777599966776E+05,      /* I = 94 */
(PID.TID 0000.0001)                 1.549545757850771E+05,      /* I = 95 */
(PID.TID 0000.0001)     2 @  1.114203141013064E+05,             /* I = 96: 97 */
(PID.TID 0000.0001)                 1.549545757850771E+05,      /* I = 98 */
(PID.TID 0000.0001)                 1.829777599966776E+05,      /* I = 99 */
(PID.TID 0000.0001)                 2.042717761866506E+05,      /* I =100 */
(PID.TID 0000.0001)                 2.216367828252819E+05,      /* I =101 */
(PID.TID 0000.0001)                 2.363029564123586E+05,      /* I =102 */
(PID.TID 0000.0001)                 2.489113743322025E+05,      /* I =103 */
(PID.TID 0000.0001)                 2.598293319150326E+05,      /* I =104 */
(PID.TID 0000.0001)                 2.692787333338535E+05,      /* I =105 */
(PID.TID 0000.0001)                 2.773972106720365E+05,      /* I =106 */
(PID.TID 0000.0001)                 2.842706922224557E+05,      /* I =107 */
(PID.TID 0000.0001)                 2.899523122489403E+05,      /* I =108 */
(PID.TID 0000.0001)                 2.944741346384699E+05,      /* I =109 */
(PID.TID 0000.0001)                 2.978547649292580E+05,      /* I =110 */
(PID.TID 0000.0001)                 3.001044073506459E+05,      /* I =111 */
(PID.TID 0000.0001)     2 @  3.012281885409289E+05,             /* I =112:113 */
(PID.TID 0000.0001)                 3.001044073506459E+05,      /* I =114 */
(PID.TID 0000.0001)                 2.978547649292580E+05,      /* I =115 */
(PID.TID 0000.0001)                 2.944741346384699E+05,      /* I =116 */
(PID.TID 0000.0001)                 2.899523122489403E+05,      /* I =117 */
(PID.TID 0000.0001)                 2.842706922224557E+05,      /* I =118 */
(PID.TID 0000.0001)                 2.773972106720365E+05,      /* I =119 */
(PID.TID 0000.0001)                 2.692787333338535E+05,      /* I =120 */
(PID.TID 0000.0001)                 2.598293319150326E+05,      /* I =121 */
(PID.TID 0000.0001)                 2.489113743322025E+05,      /* I =122 */
(PID.TID 0000.0001)                 2.363029564123586E+05,      /* I =123 */
(PID.TID 0000.0001)                 2.216367828252819E+05,      /* I =124 */
(PID.TID 0000.0001)                 2.042717761866506E+05,      /* I =125 */
(PID.TID 0000.0001)                 1.829777599966776E+05,      /* I =126 */
(PID.TID 0000.0001)                 1.549545757850771E+05,      /* I =127 */
(PID.TID 0000.0001)     2 @  1.114203141013064E+05,             /* I =128:129 */
(PID.TID 0000.0001)                 1.549545757850771E+05,      /* I =130 */
(PID.TID 0000.0001)                 1.829777599966776E+05,      /* I =131 */
(PID.TID 0000.0001)                 2.042717761866506E+05,      /* I =132 */
(PID.TID 0000.0001)                 2.216367828252819E+05,      /* I =133 */
(PID.TID 0000.0001)                 2.363029564123586E+05,      /* I =134 */
(PID.TID 0000.0001)                 2.489113743322025E+05,      /* I =135 */
(PID.TID 0000.0001)                 2.598293319150326E+05,      /* I =136 */
(PID.TID 0000.0001)                 2.692787333338535E+05,      /* I =137 */
(PID.TID 0000.0001)                 2.773972106720365E+05,      /* I =138 */
(PID.TID 0000.0001)                 2.842706922224557E+05,      /* I =139 */
(PID.TID 0000.0001)                 2.899523122489403E+05,      /* I =140 */
(PID.TID 0000.0001)                 2.944741346384699E+05,      /* I =141 */
(PID.TID 0000.0001)                 2.978547649292580E+05,      /* I =142 */
(PID.TID 0000.0001)                 3.001044073506459E+05,      /* I =143 */
(PID.TID 0000.0001)     2 @  3.012281885409289E+05,             /* I =144:145 */
(PID.TID 0000.0001)                 3.001044073506459E+05,      /* I =146 */
(PID.TID 0000.0001)                 2.978547649292580E+05,      /* I =147 */
(PID.TID 0000.0001)                 2.944741346384699E+05,      /* I =148 */
(PID.TID 0000.0001)                 2.899523122489403E+05,      /* I =149 */
(PID.TID 0000.0001)                 2.842706922224557E+05,      /* I =150 */
(PID.TID 0000.0001)                 2.773972106720365E+05,      /* I =151 */
(PID.TID 0000.0001)                 2.692787333338535E+05,      /* I =152 */
(PID.TID 0000.0001)                 2.598293319150326E+05,      /* I =153 */
(PID.TID 0000.0001)                 2.489113743322025E+05,      /* I =154 */
(PID.TID 0000.0001)                 2.363029564123586E+05,      /* I =155 */
(PID.TID 0000.0001)                 2.216367828252819E+05,      /* I =156 */
(PID.TID 0000.0001)                 2.042717761866506E+05,      /* I =157 */
(PID.TID 0000.0001)                 1.829777599966776E+05,      /* I =158 */
(PID.TID 0000.0001)                 1.549545757850771E+05,      /* I =159 */
(PID.TID 0000.0001)     2 @  1.114203141013064E+05,             /* I =160:161 */
(PID.TID 0000.0001)                 1.549545757850771E+05,      /* I =162 */
(PID.TID 0000.0001)                 1.829777599966776E+05,      /* I =163 */
(PID.TID 0000.0001)                 2.042717761866506E+05,      /* I =164 */
(PID.TID 0000.0001)                 2.216367828252819E+05,      /* I =165 */
(PID.TID 0000.0001)                 2.363029564123586E+05,      /* I =166 */
(PID.TID 0000.0001)                 2.489113743322025E+05,      /* I =167 */
(PID.TID 0000.0001)                 2.598293319150326E+05,      /* I =168 */
(PID.TID 0000.0001)                 2.692787333338535E+05,      /* I =169 */
(PID.TID 0000.0001)                 2.773972106720365E+05,      /* I =170 */
(PID.TID 0000.0001)                 2.842706922224557E+05,      /* I =171 */
(PID.TID 0000.0001)                 2.899523122489403E+05,      /* I =172 */
(PID.TID 0000.0001)                 2.944741346384699E+05,      /* I =173 */
(PID.TID 0000.0001)                 2.978547649292580E+05,      /* I =174 */
(PID.TID 0000.0001)                 3.001044073506459E+05,      /* I =175 */
(PID.TID 0000.0001)     2 @  3.012281885409289E+05,             /* I =176:177 */
(PID.TID 0000.0001)                 3.001044073506459E+05,      /* I =178 */
(PID.TID 0000.0001)                 2.978547649292580E+05,      /* I =179 */
(PID.TID 0000.0001)                 2.944741346384699E+05,      /* I =180 */
(PID.TID 0000.0001)                 2.899523122489403E+05,      /* I =181 */
(PID.TID 0000.0001)                 2.842706922224557E+05,      /* I =182 */
(PID.TID 0000.0001)                 2.773972106720365E+05,      /* I =183 */
(PID.TID 0000.0001)                 2.692787333338535E+05,      /* I =184 */
(PID.TID 0000.0001)                 2.598293319150326E+05,      /* I =185 */
(PID.TID 0000.0001)                 2.489113743322025E+05,      /* I =186 */
(PID.TID 0000.0001)                 2.363029564123586E+05,      /* I =187 */
(PID.TID 0000.0001)                 2.216367828252819E+05,      /* I =188 */
(PID.TID 0000.0001)                 2.042717761866506E+05,      /* I =189 */
(PID.TID 0000.0001)                 1.829777599966776E+05,      /* I =190 */
(PID.TID 0000.0001)                 1.549545757850771E+05,      /* I =191 */
(PID.TID 0000.0001)                 1.114203141013064E+05       /* I =192 */
(PID.TID 0000.0001)     ;
(PID.TID 0000.0001) dyC =  /* dyC(1,:,1,:) ( units: m ) */
(PID.TID 0000.0001)                 1.114203141013064E+05,      /* J =  1 */
(PID.TID 0000.0001)                 1.391343389937106E+05,      /* J =  2 */
(PID.TID 0000.0001)                 1.709574999026266E+05,      /* J =  3 */
(PID.TID 0000.0001)                 1.946503699269892E+05,      /* J =  4 */
(PID.TID 0000.0001)                 2.135964483342134E+05,      /* J =  5 */
(PID.TID 0000.0001)                 2.294195678257306E+05,      /* J =  6 */
(PID.TID 0000.0001)                 2.429464709770498E+05,      /* J =  7 */
(PID.TID 0000.0001)                 2.546408290696998E+05,      /* J =  8 */
(PID.TID 0000.0001)                 2.647791839299727E+05,      /* J =  9 */
(PID.TID 0000.0001)                 2.735321911346108E+05,      /* J = 10 */
(PID.TID 0000.0001)                 2.810065951609633E+05,      /* J = 11 */
(PID.TID 0000.0001)                 2.872689479506990E+05,      /* J = 12 */
(PID.TID 0000.0001)                 2.923599955312932E+05,      /* J = 13 */
(PID.TID 0000.0001)                 2.963038832565530E+05,      /* J = 14 */
(PID.TID 0000.0001)                 2.991142470004740E+05,      /* J = 15 */
(PID.TID 0000.0001)                 3.007982711627968E+05,      /* J = 16 */
(PID.TID 0000.0001)                 3.013593857228136E+05,      /* J = 17 */
(PID.TID 0000.0001)                 3.007982711627968E+05,      /* J = 18 */
(PID.TID 0000.0001)                 2.991142470004740E+05,      /* J = 19 */
(PID.TID 0000.0001)                 2.963038832565530E+05,      /* J = 20 */
(PID.TID 0000.0001)                 2.923599955312932E+05,      /* J = 21 */
(PID.TID 0000.0001)                 2.872689479506990E+05,      /* J = 22 */
(PID.TID 0000.0001)                 2.810065951609633E+05,      /* J = 23 */
(PID.TID 0000.0001)                 2.735321911346108E+05,      /* J = 24 */
(PID.TID 0000.0001)                 2.647791839299727E+05,      /* J = 25 */
(PID.TID 0000.0001)                 2.546408290696998E+05,      /* J = 26 */
(PID.TID 0000.0001)                 2.429464709770498E+05,      /* J = 27 */
(PID.TID 0000.0001)                 2.294195678257306E+05,      /* J = 28 */
(PID.TID 0000.0001)                 2.135964483342134E+05,      /* J = 29 */
(PID.TID 0000.0001)                 1.946503699269892E+05,      /* J = 30 */
(PID.TID 0000.0001)                 1.709574999026266E+05,      /* J = 31 */
(PID.TID 0000.0001)                 1.391343389937106E+05       /* J = 32 */
(PID.TID 0000.0001)     ;
(PID.TID 0000.0001) dxV =  /* dxV(:,1,:,1) ( units: m ) */
(PID.TID 0000.0001)                 8.015229982413632E+04,      /* I =  1 */
(PID.TID 0000.0001)                 1.333130744933864E+05,      /* I =  2 */
(PID.TID 0000.0001)                 1.691744868129062E+05,      /* I =  3 */
(PID.TID 0000.0001)                 1.937548202849060E+05,      /* I =  4 */
(PID.TID 0000.0001)                 2.130490056267208E+05,      /* I =  5 */
(PID.TID 0000.0001)                 2.290479919481738E+05,      /* I =  6 */
(PID.TID 0000.0001)                 2.426774358027003E+05,      /* I =  7 */
(PID.TID 0000.0001)                 2.544372984215561E+05,      /* I =  8 */
(PID.TID 0000.0001)                 2.646201463834826E+05,      /* I =  9 */
(PID.TID 0000.0001)                 2.734046499619031E+05,      /* I = 10 */
(PID.TID 0000.0001)                 2.809019351693761E+05,      /* I = 11 */
(PID.TID 0000.0001)                 2.871811105274442E+05,      /* I = 12 */
(PID.TID 0000.0001)                 2.922844849381675E+05,      /* I = 13 */
(PID.TID 0000.0001)                 2.962371870847826E+05,      /* I = 14 */
(PID.TID 0000.0001)                 2.990534755671296E+05,      /* I = 15 */
(PID.TID 0000.0001)                 3.007409169495504E+05,      /* I = 16 */
(PID.TID 0000.0001)                 3.013031486919771E+05,      /* I = 17 */
(PID.TID 0000.0001)                 3.007409169495504E+05,      /* I = 18 */
(PID.TID 0000.0001)                 2.990534755671296E+05,      /* I = 19 */
(PID.TID 0000.0001)                 2.962371870847826E+05,      /* I = 20 */
(PID.TID 0000.0001)                 2.922844849381675E+05,      /* I = 21 */
(PID.TID 0000.0001)                 2.871811105274442E+05,      /* I = 22 */
(PID.TID 0000.0001)                 2.809019351693761E+05,      /* I = 23 */
(PID.TID 0000.0001)                 2.734046499619031E+05,      /* I = 24 */
(PID.TID 0000.0001)                 2.646201463834826E+05,      /* I = 25 */
(PID.TID 0000.0001)                 2.544372984215561E+05,      /* I = 26 */
(PID.TID 0000.0001)                 2.426774358027003E+05,      /* I = 27 */
(PID.TID 0000.0001)                 2.290479919481738E+05,      /* I = 28 */
(PID.TID 0000.0001)                 2.130490056267208E+05,      /* I = 29 */
(PID.TID 0000.0001)                 1.937548202849060E+05,      /* I = 30 */
(PID.TID 0000.0001)                 1.691744868129062E+05,      /* I = 31 */
(PID.TID 0000.0001)                 1.333130744933864E+05,      /* I = 32 */
(PID.TID 0000.0001)                 8.015229982413632E+04,      /* I = 33 */
(PID.TID 0000.0001)                 1.333130744933864E+05,      /* I = 34 */
(PID.TID 0000.0001)                 1.691744868129062E+05,      /* I = 35 */
(PID.TID 0000.0001)                 1.937548202849060E+05,      /* I = 36 */
(PID.TID 0000.0001)                 2.130490056267208E+05,      /* I = 37 */
(PID.TID 0000.0001)                 2.290479919481738E+05,      /* I = 38 */
(PID.TID 0000.0001)                 2.426774358027003E+05,      /* I = 39 */
(PID.TID 0000.0001)                 2.544372984215561E+05,      /* I = 40 */
(PID.TID 0000.0001)                 2.646201463834826E+05,      /* I = 41 */
(PID.TID 0000.0001)                 2.734046499619031E+05,      /* I = 42 */
(PID.TID 0000.0001)                 2.809019351693761E+05,      /* I = 43 */
(PID.TID 0000.0001)                 2.871811105274442E+05,      /* I = 44 */
(PID.TID 0000.0001)                 2.922844849381675E+05,      /* I = 45 */
(PID.TID 0000.0001)                 2.962371870847826E+05,      /* I = 46 */
(PID.TID 0000.0001)                 2.990534755671296E+05,      /* I = 47 */
(PID.TID 0000.0001)                 3.007409169495504E+05,      /* I = 48 */
(PID.TID 0000.0001)                 3.013031486919771E+05,      /* I = 49 */
(PID.TID 0000.0001)                 3.007409169495504E+05,      /* I = 50 */
(PID.TID 0000.0001)                 2.990534755671296E+05,      /* I = 51 */
(PID.TID 0000.0001)                 2.962371870847826E+05,      /* I = 52 */
(PID.TID 0000.0001)                 2.922844849381675E+05,      /* I = 53 */
(PID.TID 0000.0001)                 2.871811105274442E+05,      /* I = 54 */
(PID.TID 0000.0001)                 2.809019351693761E+05,      /* I = 55 */
(PID.TID 0000.0001)                 2.734046499619031E+05,      /* I = 56 */
(PID.TID 0000.0001)                 2.646201463834826E+05,      /* I = 57 */
(PID.TID 0000.0001)                 2.544372984215561E+05,      /* I = 58 */
(PID.TID 0000.0001)                 2.426774358027003E+05,      /* I = 59 */
(PID.TID 0000.0001)                 2.290479919481738E+05,      /* I = 60 */
(PID.TID 0000.0001)                 2.130490056267208E+05,      /* I = 61 */
(PID.TID 0000.0001)                 1.937548202849060E+05,      /* I = 62 */
(PID.TID 0000.0001)                 1.691744868129062E+05,      /* I = 63 */
(PID.TID 0000.0001)                 1.333130744933864E+05,      /* I = 64 */
(PID.TID 0000.0001)                 8.015229982413632E+04,      /* I = 65 */
(PID.TID 0000.0001)                 1.333130744933864E+05,      /* I = 66 */
(PID.TID 0000.0001)                 1.691744868129062E+05,      /* I = 67 */
(PID.TID 0000.0001)                 1.937548202849060E+05,      /* I = 68 */
(PID.TID 0000.0001)                 2.130490056267208E+05,      /* I = 69 */
(PID.TID 0000.0001)                 2.290479919481738E+05,      /* I = 70 */
(PID.TID 0000.0001)                 2.426774358027003E+05,      /* I = 71 */
(PID.TID 0000.0001)                 2.544372984215561E+05,      /* I = 72 */
(PID.TID 0000.0001)                 2.646201463834826E+05,      /* I = 73 */
(PID.TID 0000.0001)                 2.734046499619031E+05,      /* I = 74 */
(PID.TID 0000.0001)                 2.809019351693761E+05,      /* I = 75 */
(PID.TID 0000.0001)                 2.871811105274442E+05,      /* I = 76 */
(PID.TID 0000.0001)                 2.922844849381675E+05,      /* I = 77 */
(PID.TID 0000.0001)                 2.962371870847826E+05,      /* I = 78 */
(PID.TID 0000.0001)                 2.990534755671296E+05,      /* I = 79 */
(PID.TID 0000.0001)                 3.007409169495504E+05,      /* I = 80 */
(PID.TID 0000.0001)                 3.013031486919771E+05,      /* I = 81 */
(PID.TID 0000.0001)                 3.007409169495504E+05,      /* I = 82 */
(PID.TID 0000.0001)                 2.990534755671296E+05,      /* I = 83 */
(PID.TID 0000.0001)                 2.962371870847826E+05,      /* I = 84 */
(PID.TID 0000.0001)                 2.922844849381675E+05,      /* I = 85 */
(PID.TID 0000.0001)                 2.871811105274442E+05,      /* I = 86 */
(PID.TID 0000.0001)                 2.809019351693761E+05,      /* I = 87 */
(PID.TID 0000.0001)                 2.734046499619031E+05,      /* I = 88 */
(PID.TID 0000.0001)                 2.646201463834826E+05,      /* I = 89 */
(PID.TID 0000.0001)                 2.544372984215561E+05,      /* I = 90 */
(PID.TID 0000.0001)                 2.426774358027003E+05,      /* I = 91 */
(PID.TID 0000.0001)                 2.290479919481738E+05,      /* I = 92 */
(PID.TID 0000.0001)                 2.130490056267208E+05,      /* I = 93 */
(PID.TID 0000.0001)                 1.937548202849060E+05,      /* I = 94 */
(PID.TID 0000.0001)                 1.691744868129062E+05,      /* I = 95 */
(PID.TID 0000.0001)                 1.333130744933864E+05,      /* I = 96 */
(PID.TID 0000.0001)                 8.015229982413632E+04,      /* I = 97 */
(PID.TID 0000.0001)                 1.333130744933864E+05,      /* I = 98 */
(PID.TID 0000.0001)                 1.691744868129062E+05,      /* I = 99 */
(PID.TID 0000.0001)                 1.937548202849060E+05,      /* I =100 */
(PID.TID 0000.0001)                 2.130490056267208E+05,      /* I =101 */
(PID.TID 0000.0001)                 2.290479919481738E+05,      /* I =102 */
(PID.TID 0000.0001)                 2.426774358027003E+05,      /* I =103 */
(PID.TID 0000.0001)                 2.544372984215561E+05,      /* I =104 */
(PID.TID 0000.0001)                 2.646201463834826E+05,      /* I =105 */
(PID.TID 0000.0001)                 2.734046499619031E+05,      /* I =106 */
(PID.TID 0000.0001)                 2.809019351693761E+05,      /* I =107 */
(PID.TID 0000.0001)                 2.871811105274442E+05,      /* I =108 */
(PID.TID 0000.0001)                 2.922844849381675E+05,      /* I =109 */
(PID.TID 0000.0001)                 2.962371870847826E+05,      /* I =110 */
(PID.TID 0000.0001)                 2.990534755671296E+05,      /* I =111 */
(PID.TID 0000.0001)                 3.007409169495504E+05,      /* I =112 */
(PID.TID 0000.0001)                 3.013031486919771E+05,      /* I =113 */
(PID.TID 0000.0001)                 3.007409169495504E+05,      /* I =114 */
(PID.TID 0000.0001)                 2.990534755671296E+05,      /* I =115 */
(PID.TID 0000.0001)                 2.962371870847826E+05,      /* I =116 */
(PID.TID 0000.0001)                 2.922844849381675E+05,      /* I =117 */
(PID.TID 0000.0001)                 2.871811105274442E+05,      /* I =118 */
(PID.TID 0000.0001)                 2.809019351693761E+05,      /* I =119 */
(PID.TID 0000.0001)                 2.734046499619031E+05,      /* I =120 */
(PID.TID 0000.0001)                 2.646201463834826E+05,      /* I =121 */
(PID.TID 0000.0001)                 2.544372984215561E+05,      /* I =122 */
(PID.TID 0000.0001)                 2.426774358027003E+05,      /* I =123 */
(PID.TID 0000.0001)                 2.290479919481738E+05,      /* I =124 */
(PID.TID 0000.0001)                 2.130490056267208E+05,      /* I =125 */
(PID.TID 0000.0001)                 1.937548202849060E+05,      /* I =126 */
(PID.TID 0000.0001)                 1.691744868129062E+05,      /* I =127 */
(PID.TID 0000.0001)                 1.333130744933864E+05,      /* I =128 */
(PID.TID 0000.0001)                 8.015229982413632E+04,      /* I =129 */
(PID.TID 0000.0001)                 1.333130744933864E+05,      /* I =130 */
(PID.TID 0000.0001)                 1.691744868129062E+05,      /* I =131 */
(PID.TID 0000.0001)                 1.937548202849060E+05,      /* I =132 */
(PID.TID 0000.0001)                 2.130490056267208E+05,      /* I =133 */
(PID.TID 0000.0001)                 2.290479919481738E+05,      /* I =134 */
(PID.TID 0000.0001)                 2.426774358027003E+05,      /* I =135 */
(PID.TID 0000.0001)                 2.544372984215561E+05,      /* I =136 */
(PID.TID 0000.0001)                 2.646201463834826E+05,      /* I =137 */
(PID.TID 0000.0001)                 2.734046499619031E+05,      /* I =138 */
(PID.TID 0000.0001)                 2.809019351693761E+05,      /* I =139 */
(PID.TID 0000.0001)                 2.871811105274442E+05,      /* I =140 */
(PID.TID 0000.0001)                 2.922844849381675E+05,      /* I =141 */
(PID.TID 0000.0001)                 2.962371870847826E+05,      /* I =142 */
(PID.TID 0000.0001)                 2.990534755671296E+05,      /* I =143 */
(PID.TID 0000.0001)                 3.007409169495504E+05,      /* I =144 */
(PID.TID 0000.0001)                 3.013031486919771E+05,      /* I =145 */
(PID.TID 0000.0001)                 3.007409169495504E+05,      /* I =146 */
(PID.TID 0000.0001)                 2.990534755671296E+05,      /* I =147 */
(PID.TID 0000.0001)                 2.962371870847826E+05,      /* I =148 */
(PID.TID 0000.0001)                 2.922844849381675E+05,      /* I =149 */
(PID.TID 0000.0001)                 2.871811105274442E+05,      /* I =150 */
(PID.TID 0000.0001)                 2.809019351693761E+05,      /* I =151 */
(PID.TID 0000.0001)                 2.734046499619031E+05,      /* I =152 */
(PID.TID 0000.0001)                 2.646201463834826E+05,      /* I =153 */
(PID.TID 0000.0001)                 2.544372984215561E+05,      /* I =154 */
(PID.TID 0000.0001)                 2.426774358027003E+05,      /* I =155 */
(PID.TID 0000.0001)                 2.290479919481738E+05,      /* I =156 */
(PID.TID 0000.0001)                 2.130490056267208E+05,      /* I =157 */
(PID.TID 0000.0001)                 1.937548202849060E+05,      /* I =158 */
(PID.TID 0000.0001)                 1.691744868129062E+05,      /* I =159 */
(PID.TID 0000.0001)                 1.333130744933864E+05,      /* I =160 */
(PID.TID 0000.0001)                 8.015229982413632E+04,      /* I =161 */
(PID.TID 0000.0001)                 1.333130744933864E+05,      /* I =162 */
(PID.TID 0000.0001)                 1.691744868129062E+05,      /* I =163 */
(PID.TID 0000.0001)                 1.937548202849060E+05,      /* I =164 */
(PID.TID 0000.0001)                 2.130490056267208E+05,      /* I =165 */
(PID.TID 0000.0001)                 2.290479919481738E+05,      /* I =166 */
(PID.TID 0000.0001)                 2.426774358027003E+05,      /* I =167 */
(PID.TID 0000.0001)                 2.544372984215561E+05,      /* I =168 */
(PID.TID 0000.0001)                 2.646201463834826E+05,      /* I =169 */
(PID.TID 0000.0001)                 2.734046499619031E+05,      /* I =170 */
(PID.TID 0000.0001)                 2.809019351693761E+05,      /* I =171 */
(PID.TID 0000.0001)                 2.871811105274442E+05,      /* I =172 */
(PID.TID 0000.0001)                 2.922844849381675E+05,      /* I =173 */
(PID.TID 0000.0001)                 2.962371870847826E+05,      /* I =174 */
(PID.TID 0000.0001)                 2.990534755671296E+05,      /* I =175 */
(PID.TID 0000.0001)                 3.007409169495504E+05,      /* I =176 */
(PID.TID 0000.0001)                 3.013031486919771E+05,      /* I =177 */
(PID.TID 0000.0001)                 3.007409169495504E+05,      /* I =178 */
(PID.TID 0000.0001)                 2.990534755671296E+05,      /* I =179 */
(PID.TID 0000.0001)                 2.962371870847826E+05,      /* I =180 */
(PID.TID 0000.0001)                 2.922844849381675E+05,      /* I =181 */
(PID.TID 0000.0001)                 2.871811105274442E+05,      /* I =182 */
(PID.TID 0000.0001)                 2.809019351693761E+05,      /* I =183 */
(PID.TID 0000.0001)                 2.734046499619031E+05,      /* I =184 */
(PID.TID 0000.0001)                 2.646201463834826E+05,      /* I =185 */
(PID.TID 0000.0001)                 2.544372984215561E+05,      /* I =186 */
(PID.TID 0000.0001)                 2.426774358027003E+05,      /* I =187 */
(PID.TID 0000.0001)                 2.290479919481738E+05,      /* I =188 */
(PID.TID 0000.0001)                 2.130490056267208E+05,      /* I =189 */
(PID.TID 0000.0001)                 1.937548202849060E+05,      /* I =190 */
(PID.TID 0000.0001)                 1.691744868129062E+05,      /* I =191 */
(PID.TID 0000.0001)                 1.333130744933864E+05       /* I =192 */
(PID.TID 0000.0001)     ;
(PID.TID 0000.0001) dxV =  /* dxV(1,:,1,:) ( units: m ) */
(PID.TID 0000.0001)                 8.015229982413632E+04,      /* J =  1 */
(PID.TID 0000.0001)                 1.362652340208229E+05,      /* J =  2 */
(PID.TID 0000.0001)                 1.701080315742101E+05,      /* J =  3 */
(PID.TID 0000.0001)                 1.942331448101592E+05,      /* J =  4 */
(PID.TID 0000.0001)                 2.133486626971531E+05,      /* J =  5 */
(PID.TID 0000.0001)                 2.292584591272880E+05,      /* J =  6 */
(PID.TID 0000.0001)                 2.428369969078989E+05,      /* J =  7 */
(PID.TID 0000.0001)                 2.545652950875683E+05,      /* J =  8 */
(PID.TID 0000.0001)                 2.647274964828301E+05,      /* J =  9 */
(PID.TID 0000.0001)                 2.734980225206389E+05,      /* J = 10 */
(PID.TID 0000.0001)                 2.809856491525217E+05,      /* J = 11 */
(PID.TID 0000.0001)                 2.872580915202295E+05,      /* J = 12 */
(PID.TID 0000.0001)                 2.923567890694162E+05,      /* J = 13 */
(PID.TID 0000.0001)                 2.963063101754721E+05,      /* J = 14 */
(PID.TID 0000.0001)                 2.991205495886625E+05,      /* J = 15 */
(PID.TID 0000.0001)                 3.008068453676764E+05,      /* J = 16 */
(PID.TID 0000.0001)                 3.013686170436881E+05,      /* J = 17 */
(PID.TID 0000.0001)                 3.008068453676764E+05,      /* J = 18 */
(PID.TID 0000.0001)                 2.991205495886625E+05,      /* J = 19 */
(PID.TID 0000.0001)                 2.963063101754721E+05,      /* J = 20 */
(PID.TID 0000.0001)                 2.923567890694162E+05,      /* J = 21 */
(PID.TID 0000.0001)                 2.872580915202295E+05,      /* J = 22 */
(PID.TID 0000.0001)                 2.809856491525217E+05,      /* J = 23 */
(PID.TID 0000.0001)                 2.734980225206389E+05,      /* J = 24 */
(PID.TID 0000.0001)                 2.647274964828301E+05,      /* J = 25 */
(PID.TID 0000.0001)                 2.545652950875683E+05,      /* J = 26 */
(PID.TID 0000.0001)                 2.428369969078989E+05,      /* J = 27 */
(PID.TID 0000.0001)                 2.292584591272880E+05,      /* J = 28 */
(PID.TID 0000.0001)                 2.133486626971531E+05,      /* J = 29 */
(PID.TID 0000.0001)                 1.942331448101592E+05,      /* J = 30 */
(PID.TID 0000.0001)                 1.701080315742101E+05,      /* J = 31 */
(PID.TID 0000.0001)                 1.362652340208229E+05       /* J = 32 */
(PID.TID 0000.0001)     ;
(PID.TID 0000.0001) dyU =  /* dyU(:,1,:,1) ( units: m ) */
(PID.TID 0000.0001)                 8.015229982413632E+04,      /* I =  1 */
(PID.TID 0000.0001)                 1.362652340208229E+05,      /* I =  2 */
(PID.TID 0000.0001)                 1.701080315742101E+05,      /* I =  3 */
(PID.TID 0000.0001)                 1.942331448101592E+05,      /* I =  4 */
(PID.TID 0000.0001)                 2.133486626971531E+05,      /* I =  5 */
(PID.TID 0000.0001)                 2.292584591272880E+05,      /* I =  6 */
(PID.TID 0000.0001)                 2.428369969078989E+05,      /* I =  7 */
(PID.TID 0000.0001)                 2.545652950875683E+05,      /* I =  8 */
(PID.TID 0000.0001)                 2.647274964828301E+05,      /* I =  9 */
(PID.TID 0000.0001)                 2.734980225206389E+05,      /* I = 10 */
(PID.TID 0000.0001)                 2.809856491525217E+05,      /* I = 11 */
(PID.TID 0000.0001)                 2.872580915202295E+05,      /* I = 12 */
(PID.TID 0000.0001)                 2.923567890694162E+05,      /* I = 13 */
(PID.TID 0000.0001)                 2.963063101754721E+05,      /* I = 14 */
(PID.TID 0000.0001)                 2.991205495886625E+05,      /* I = 15 */
(PID.TID 0000.0001)                 3.008068453676764E+05,      /* I = 16 */
(PID.TID 0000.0001)                 3.013686170436881E+05,      /* I = 17 */
(PID.TID 0000.0001)                 3.008068453676764E+05,      /* I = 18 */
(PID.TID 0000.0001)                 2.991205495886625E+05,      /* I = 19 */
(PID.TID 0000.0001)                 2.963063101754721E+05,      /* I = 20 */
(PID.TID 0000.0001)                 2.923567890694162E+05,      /* I = 21 */
(PID.TID 0000.0001)                 2.872580915202295E+05,      /* I = 22 */
(PID.TID 0000.0001)                 2.809856491525217E+05,      /* I = 23 */
(PID.TID 0000.0001)                 2.734980225206389E+05,      /* I = 24 */
(PID.TID 0000.0001)                 2.647274964828301E+05,      /* I = 25 */
(PID.TID 0000.0001)                 2.545652950875683E+05,      /* I = 26 */
(PID.TID 0000.0001)                 2.428369969078989E+05,      /* I = 27 */
(PID.TID 0000.0001)                 2.292584591272880E+05,      /* I = 28 */
(PID.TID 0000.0001)                 2.133486626971531E+05,      /* I = 29 */
(PID.TID 0000.0001)                 1.942331448101592E+05,      /* I = 30 */
(PID.TID 0000.0001)                 1.701080315742101E+05,      /* I = 31 */
(PID.TID 0000.0001)                 1.362652340208229E+05,      /* I = 32 */
(PID.TID 0000.0001)                 8.015229982413632E+04,      /* I = 33 */
(PID.TID 0000.0001)                 1.362652340208229E+05,      /* I = 34 */
(PID.TID 0000.0001)                 1.701080315742101E+05,      /* I = 35 */
(PID.TID 0000.0001)                 1.942331448101592E+05,      /* I = 36 */
(PID.TID 0000.0001)                 2.133486626971531E+05,      /* I = 37 */
(PID.TID 0000.0001)                 2.292584591272880E+05,      /* I = 38 */
(PID.TID 0000.0001)                 2.428369969078989E+05,      /* I = 39 */
(PID.TID 0000.0001)                 2.545652950875683E+05,      /* I = 40 */
(PID.TID 0000.0001)                 2.647274964828301E+05,      /* I = 41 */
(PID.TID 0000.0001)                 2.734980225206389E+05,      /* I = 42 */
(PID.TID 0000.0001)                 2.809856491525217E+05,      /* I = 43 */
(PID.TID 0000.0001)                 2.872580915202295E+05,      /* I = 44 */
(PID.TID 0000.0001)                 2.923567890694162E+05,      /* I = 45 */
(PID.TID 0000.0001)                 2.963063101754721E+05,      /* I = 46 */
(PID.TID 0000.0001)                 2.991205495886625E+05,      /* I = 47 */
(PID.TID 0000.0001)                 3.008068453676764E+05,      /* I = 48 */
(PID.TID 0000.0001)                 3.013686170436881E+05,      /* I = 49 */
(PID.TID 0000.0001)                 3.008068453676764E+05,      /* I = 50 */
(PID.TID 0000.0001)                 2.991205495886625E+05,      /* I = 51 */
(PID.TID 0000.0001)                 2.963063101754721E+05,      /* I = 52 */
(PID.TID 0000.0001)                 2.923567890694162E+05,      /* I = 53 */
(PID.TID 0000.0001)                 2.872580915202295E+05,      /* I = 54 */
(PID.TID 0000.0001)                 2.809856491525217E+05,      /* I = 55 */
(PID.TID 0000.0001)                 2.734980225206389E+05,      /* I = 56 */
(PID.TID 0000.0001)                 2.647274964828301E+05,      /* I = 57 */
(PID.TID 0000.0001)                 2.545652950875683E+05,      /* I = 58 */
(PID.TID 0000.0001)                 2.428369969078989E+05,      /* I = 59 */
(PID.TID 0000.0001)                 2.292584591272880E+05,      /* I = 60 */
(PID.TID 0000.0001)                 2.133486626971531E+05,      /* I = 61 */
(PID.TID 0000.0001)                 1.942331448101592E+05,      /* I = 62 */
(PID.TID 0000.0001)                 1.701080315742101E+05,      /* I = 63 */
(PID.TID 0000.0001)                 1.362652340208229E+05,      /* I = 64 */
(PID.TID 0000.0001)                 8.015229982413632E+04,      /* I = 65 */
(PID.TID 0000.0001)                 1.362652340208229E+05,      /* I = 66 */
(PID.TID 0000.0001)                 1.701080315742101E+05,      /* I = 67 */
(PID.TID 0000.0001)                 1.942331448101592E+05,      /* I = 68 */
(PID.TID 0000.0001)                 2.133486626971531E+05,      /* I = 69 */
(PID.TID 0000.0001)                 2.292584591272880E+05,      /* I = 70 */
(PID.TID 0000.0001)                 2.428369969078989E+05,      /* I = 71 */
(PID.TID 0000.0001)                 2.545652950875683E+05,      /* I = 72 */
(PID.TID 0000.0001)                 2.647274964828301E+05,      /* I = 73 */
(PID.TID 0000.0001)                 2.734980225206389E+05,      /* I = 74 */
(PID.TID 0000.0001)                 2.809856491525217E+05,      /* I = 75 */
(PID.TID 0000.0001)                 2.872580915202295E+05,      /* I = 76 */
(PID.TID 0000.0001)                 2.923567890694162E+05,      /* I = 77 */
(PID.TID 0000.0001)                 2.963063101754721E+05,      /* I = 78 */
(PID.TID 0000.0001)                 2.991205495886625E+05,      /* I = 79 */
(PID.TID 0000.0001)                 3.008068453676764E+05,      /* I = 80 */
(PID.TID 0000.0001)                 3.013686170436881E+05,      /* I = 81 */
(PID.TID 0000.0001)                 3.008068453676764E+05,      /* I = 82 */
(PID.TID 0000.0001)                 2.991205495886625E+05,      /* I = 83 */
(PID.TID 0000.0001)                 2.963063101754721E+05,      /* I = 84 */
(PID.TID 0000.0001)                 2.923567890694162E+05,      /* I = 85 */
(PID.TID 0000.0001)                 2.872580915202295E+05,      /* I = 86 */
(PID.TID 0000.0001)                 2.809856491525217E+05,      /* I = 87 */
(PID.TID 0000.0001)                 2.734980225206389E+05,      /* I = 88 */
(PID.TID 0000.0001)                 2.647274964828301E+05,      /* I = 89 */
(PID.TID 0000.0001)                 2.545652950875683E+05,      /* I = 90 */
(PID.TID 0000.0001)                 2.428369969078989E+05,      /* I = 91 */
(PID.TID 0000.0001)                 2.292584591272880E+05,      /* I = 92 */
(PID.TID 0000.0001)                 2.133486626971531E+05,      /* I = 93 */
(PID.TID 0000.0001)                 1.942331448101592E+05,      /* I = 94 */
(PID.TID 0000.0001)                 1.701080315742101E+05,      /* I = 95 */
(PID.TID 0000.0001)                 1.362652340208229E+05,      /* I = 96 */
(PID.TID 0000.0001)                 8.015229982413632E+04,      /* I = 97 */
(PID.TID 0000.0001)                 1.362652340208229E+05,      /* I = 98 */
(PID.TID 0000.0001)                 1.701080315742101E+05,      /* I = 99 */
(PID.TID 0000.0001)                 1.942331448101592E+05,      /* I =100 */
(PID.TID 0000.0001)                 2.133486626971531E+05,      /* I =101 */
(PID.TID 0000.0001)                 2.292584591272880E+05,      /* I =102 */
(PID.TID 0000.0001)                 2.428369969078989E+05,      /* I =103 */
(PID.TID 0000.0001)                 2.545652950875683E+05,      /* I =104 */
(PID.TID 0000.0001)                 2.647274964828301E+05,      /* I =105 */
(PID.TID 0000.0001)                 2.734980225206389E+05,      /* I =106 */
(PID.TID 0000.0001)                 2.809856491525217E+05,      /* I =107 */
(PID.TID 0000.0001)                 2.872580915202295E+05,      /* I =108 */
(PID.TID 0000.0001)                 2.923567890694162E+05,      /* I =109 */
(PID.TID 0000.0001)                 2.963063101754721E+05,      /* I =110 */
(PID.TID 0000.0001)                 2.991205495886625E+05,      /* I =111 */
(PID.TID 0000.0001)                 3.008068453676764E+05,      /* I =112 */
(PID.TID 0000.0001)                 3.013686170436881E+05,      /* I =113 */
(PID.TID 0000.0001)                 3.008068453676764E+05,      /* I =114 */
(PID.TID 0000.0001)                 2.991205495886625E+05,      /* I =115 */
(PID.TID 0000.0001)                 2.963063101754721E+05,      /* I =116 */
(PID.TID 0000.0001)                 2.923567890694162E+05,      /* I =117 */
(PID.TID 0000.0001)                 2.872580915202295E+05,      /* I =118 */
(PID.TID 0000.0001)                 2.809856491525217E+05,      /* I =119 */
(PID.TID 0000.0001)                 2.734980225206389E+05,      /* I =120 */
(PID.TID 0000.0001)                 2.647274964828301E+05,      /* I =121 */
(PID.TID 0000.0001)                 2.545652950875683E+05,      /* I =122 */
(PID.TID 0000.0001)                 2.428369969078989E+05,      /* I =123 */
(PID.TID 0000.0001)                 2.292584591272880E+05,      /* I =124 */
(PID.TID 0000.0001)                 2.133486626971531E+05,      /* I =125 */
(PID.TID 0000.0001)                 1.942331448101592E+05,      /* I =126 */
(PID.TID 0000.0001)                 1.701080315742101E+05,      /* I =127 */
(PID.TID 0000.0001)                 1.362652340208229E+05,      /* I =128 */
(PID.TID 0000.0001)                 8.015229982413632E+04,      /* I =129 */
(PID.TID 0000.0001)                 1.362652340208229E+05,      /* I =130 */
(PID.TID 0000.0001)                 1.701080315742101E+05,      /* I =131 */
(PID.TID 0000.0001)                 1.942331448101592E+05,      /* I =132 */
(PID.TID 0000.0001)                 2.133486626971531E+05,      /* I =133 */
(PID.TID 0000.0001)                 2.292584591272880E+05,      /* I =134 */
(PID.TID 0000.0001)                 2.428369969078989E+05,      /* I =135 */
(PID.TID 0000.0001)                 2.545652950875683E+05,      /* I =136 */
(PID.TID 0000.0001)                 2.647274964828301E+05,      /* I =137 */
(PID.TID 0000.0001)                 2.734980225206389E+05,      /* I =138 */
(PID.TID 0000.0001)                 2.809856491525217E+05,      /* I =139 */
(PID.TID 0000.0001)                 2.872580915202295E+05,      /* I =140 */
(PID.TID 0000.0001)                 2.923567890694162E+05,      /* I =141 */
(PID.TID 0000.0001)                 2.963063101754721E+05,      /* I =142 */
(PID.TID 0000.0001)                 2.991205495886625E+05,      /* I =143 */
(PID.TID 0000.0001)                 3.008068453676764E+05,      /* I =144 */
(PID.TID 0000.0001)                 3.013686170436881E+05,      /* I =145 */
(PID.TID 0000.0001)                 3.008068453676764E+05,      /* I =146 */
(PID.TID 0000.0001)                 2.991205495886625E+05,      /* I =147 */
(PID.TID 0000.0001)                 2.963063101754721E+05,      /* I =148 */
(PID.TID 0000.0001)                 2.923567890694162E+05,      /* I =149 */
(PID.TID 0000.0001)                 2.872580915202295E+05,      /* I =150 */
(PID.TID 0000.0001)                 2.809856491525217E+05,      /* I =151 */
(PID.TID 0000.0001)                 2.734980225206389E+05,      /* I =152 */
(PID.TID 0000.0001)                 2.647274964828301E+05,      /* I =153 */
(PID.TID 0000.0001)                 2.545652950875683E+05,      /* I =154 */
(PID.TID 0000.0001)                 2.428369969078989E+05,      /* I =155 */
(PID.TID 0000.0001)                 2.292584591272880E+05,      /* I =156 */
(PID.TID 0000.0001)                 2.133486626971531E+05,      /* I =157 */
(PID.TID 0000.0001)                 1.942331448101592E+05,      /* I =158 */
(PID.TID 0000.0001)                 1.701080315742101E+05,      /* I =159 */
(PID.TID 0000.0001)                 1.362652340208229E+05,      /* I =160 */
(PID.TID 0000.0001)                 8.015229982413632E+04,      /* I =161 */
(PID.TID 0000.0001)                 1.362652340208229E+05,      /* I =162 */
(PID.TID 0000.0001)                 1.701080315742101E+05,      /* I =163 */
(PID.TID 0000.0001)                 1.942331448101592E+05,      /* I =164 */
(PID.TID 0000.0001)                 2.133486626971531E+05,      /* I =165 */
(PID.TID 0000.0001)                 2.292584591272880E+05,      /* I =166 */
(PID.TID 0000.0001)                 2.428369969078989E+05,      /* I =167 */
(PID.TID 0000.0001)                 2.545652950875683E+05,      /* I =168 */
(PID.TID 0000.0001)                 2.647274964828301E+05,      /* I =169 */
(PID.TID 0000.0001)                 2.734980225206389E+05,      /* I =170 */
(PID.TID 0000.0001)                 2.809856491525217E+05,      /* I =171 */
(PID.TID 0000.0001)                 2.872580915202295E+05,      /* I =172 */
(PID.TID 0000.0001)                 2.923567890694162E+05,      /* I =173 */
(PID.TID 0000.0001)                 2.963063101754721E+05,      /* I =174 */
(PID.TID 0000.0001)                 2.991205495886625E+05,      /* I =175 */
(PID.TID 0000.0001)                 3.008068453676764E+05,      /* I =176 */
(PID.TID 0000.0001)                 3.013686170436881E+05,      /* I =177 */
(PID.TID 0000.0001)                 3.008068453676764E+05,      /* I =178 */
(PID.TID 0000.0001)                 2.991205495886625E+05,      /* I =179 */
(PID.TID 0000.0001)                 2.963063101754721E+05,      /* I =180 */
(PID.TID 0000.0001)                 2.923567890694162E+05,      /* I =181 */
(PID.TID 0000.0001)                 2.872580915202295E+05,      /* I =182 */
(PID.TID 0000.0001)                 2.809856491525217E+05,      /* I =183 */
(PID.TID 0000.0001)                 2.734980225206389E+05,      /* I =184 */
(PID.TID 0000.0001)                 2.647274964828301E+05,      /* I =185 */
(PID.TID 0000.0001)                 2.545652950875683E+05,      /* I =186 */
(PID.TID 0000.0001)                 2.428369969078989E+05,      /* I =187 */
(PID.TID 0000.0001)                 2.292584591272880E+05,      /* I =188 */
(PID.TID 0000.0001)                 2.133486626971531E+05,      /* I =189 */
(PID.TID 0000.0001)                 1.942331448101592E+05,      /* I =190 */
(PID.TID 0000.0001)                 1.701080315742101E+05,      /* I =191 */
(PID.TID 0000.0001)                 1.362652340208229E+05       /* I =192 */
(PID.TID 0000.0001)     ;
(PID.TID 0000.0001) dyU =  /* dyU(1,:,1,:) ( units: m ) */
(PID.TID 0000.0001)                 8.015229982413632E+04,      /* J =  1 */
(PID.TID 0000.0001)                 1.333130744933864E+05,      /* J =  2 */
(PID.TID 0000.0001)                 1.691744868129062E+05,      /* J =  3 */
(PID.TID 0000.0001)                 1.937548202849060E+05,      /* J =  4 */
(PID.TID 0000.0001)                 2.130490056267208E+05,      /* J =  5 */
(PID.TID 0000.0001)                 2.290479919481738E+05,      /* J =  6 */
(PID.TID 0000.0001)                 2.426774358027003E+05,      /* J =  7 */
(PID.TID 0000.0001)                 2.544372984215561E+05,      /* J =  8 */
(PID.TID 0000.0001)                 2.646201463834826E+05,      /* J =  9 */
(PID.TID 0000.0001)                 2.734046499619031E+05,      /* J = 10 */
(PID.TID 0000.0001)                 2.809019351693761E+05,      /* J = 11 */
(PID.TID 0000.0001)                 2.871811105274442E+05,      /* J = 12 */
(PID.TID 0000.0001)                 2.922844849381675E+05,      /* J = 13 */
(PID.TID 0000.0001)                 2.962371870847826E+05,      /* J = 14 */
(PID.TID 0000.0001)                 2.990534755671296E+05,      /* J = 15 */
(PID.TID 0000.0001)                 3.007409169495504E+05,      /* J = 16 */
(PID.TID 0000.0001)                 3.013031486919771E+05,      /* J = 17 */
(PID.TID 0000.0001)                 3.007409169495504E+05,      /* J = 18 */
(PID.TID 0000.0001)                 2.990534755671296E+05,      /* J = 19 */
(PID.TID 0000.0001)                 2.962371870847826E+05,      /* J = 20 */
(PID.TID 0000.0001)                 2.922844849381675E+05,      /* J = 21 */
(PID.TID 0000.0001)                 2.871811105274442E+05,      /* J = 22 */
(PID.TID 0000.0001)                 2.809019351693761E+05,      /* J = 23 */
(PID.TID 0000.0001)                 2.734046499619031E+05,      /* J = 24 */
(PID.TID 0000.0001)                 2.646201463834826E+05,      /* J = 25 */
(PID.TID 0000.0001)                 2.544372984215561E+05,      /* J = 26 */
(PID.TID 0000.0001)                 2.426774358027003E+05,      /* J = 27 */
(PID.TID 0000.0001)                 2.290479919481738E+05,      /* J = 28 */
(PID.TID 0000.0001)                 2.130490056267208E+05,      /* J = 29 */
(PID.TID 0000.0001)                 1.937548202849060E+05,      /* J = 30 */
(PID.TID 0000.0001)                 1.691744868129062E+05,      /* J = 31 */
(PID.TID 0000.0001)                 1.333130744933864E+05       /* J = 32 */
(PID.TID 0000.0001)     ;
(PID.TID 0000.0001) rA  =  /* rA (:,1,:,1) ( units: m^2 ) */
(PID.TID 0000.0001)                 1.401900702255611E+10,      /* I =  1 */
(PID.TID 0000.0001)                 2.459906945574446E+10,      /* I =  2 */
(PID.TID 0000.0001)                 3.378518544307869E+10,      /* I =  3 */
(PID.TID 0000.0001)                 4.192037169898667E+10,      /* I =  4 */
(PID.TID 0000.0001)                 4.925938996118163E+10,      /* I =  5 */
(PID.TID 0000.0001)                 5.594154126607553E+10,      /* I =  6 */
(PID.TID 0000.0001)                 6.203683527772523E+10,      /* I =  7 */
(PID.TID 0000.0001)                 6.757541173817516E+10,      /* I =  8 */
(PID.TID 0000.0001)                 7.256353271748119E+10,      /* I =  9 */
(PID.TID 0000.0001)                 7.699293007098555E+10,      /* I = 10 */
(PID.TID 0000.0001)                 8.084683449728902E+10,      /* I = 11 */
(PID.TID 0000.0001)                 8.410423102796223E+10,      /* I = 12 */
(PID.TID 0000.0001)                 8.674306976737517E+10,      /* I = 13 */
(PID.TID 0000.0001)                 8.874277443041928E+10,      /* I = 14 */
(PID.TID 0000.0001)                 9.008620045350865E+10,      /* I = 15 */
(PID.TID 0000.0001)                 9.076111290418457E+10,      /* I = 16 */
(PID.TID 0000.0001)                 9.076111290422060E+10,      /* I = 17 */
(PID.TID 0000.0001)                 9.008620045354469E+10,      /* I = 18 */
(PID.TID 0000.0001)                 8.874277443041928E+10,      /* I = 19 */
(PID.TID 0000.0001)                 8.674306976741121E+10,      /* I = 20 */
(PID.TID 0000.0001)                 8.410423102799828E+10,      /* I = 21 */
(PID.TID 0000.0001)                 8.084683449728902E+10,      /* I = 22 */
(PID.TID 0000.0001)                 7.699293007098555E+10,      /* I = 23 */
(PID.TID 0000.0001)                 7.256353271748119E+10,      /* I = 24 */
(PID.TID 0000.0001)                 6.757541173817516E+10,      /* I = 25 */
(PID.TID 0000.0001)                 6.203683527772523E+10,      /* I = 26 */
(PID.TID 0000.0001)                 5.594154126611156E+10,      /* I = 27 */
(PID.TID 0000.0001)                 4.925938996118163E+10,      /* I = 28 */
(PID.TID 0000.0001)                 4.192037169898667E+10,      /* I = 29 */
(PID.TID 0000.0001)                 3.378518544304265E+10,      /* I = 30 */
(PID.TID 0000.0001)                 2.459906945574446E+10,      /* I = 31 */
(PID.TID 0000.0001)                 1.401900702259215E+10,      /* I = 32 */
(PID.TID 0000.0001)                 1.401900702255611E+10,      /* I = 33 */
(PID.TID 0000.0001)                 2.459906945574446E+10,      /* I = 34 */
(PID.TID 0000.0001)                 3.378518544307869E+10,      /* I = 35 */
(PID.TID 0000.0001)                 4.192037169898667E+10,      /* I = 36 */
(PID.TID 0000.0001)                 4.925938996118163E+10,      /* I = 37 */
(PID.TID 0000.0001)                 5.594154126607553E+10,      /* I = 38 */
(PID.TID 0000.0001)                 6.203683527772523E+10,      /* I = 39 */
(PID.TID 0000.0001)                 6.757541173817516E+10,      /* I = 40 */
(PID.TID 0000.0001)                 7.256353271748119E+10,      /* I = 41 */
(PID.TID 0000.0001)                 7.699293007098555E+10,      /* I = 42 */
(PID.TID 0000.0001)                 8.084683449728902E+10,      /* I = 43 */
(PID.TID 0000.0001)                 8.410423102796223E+10,      /* I = 44 */
(PID.TID 0000.0001)                 8.674306976737517E+10,      /* I = 45 */
(PID.TID 0000.0001)                 8.874277443041928E+10,      /* I = 46 */
(PID.TID 0000.0001)                 9.008620045350865E+10,      /* I = 47 */
(PID.TID 0000.0001)                 9.076111290418457E+10,      /* I = 48 */
(PID.TID 0000.0001)                 9.076111290422060E+10,      /* I = 49 */
(PID.TID 0000.0001)                 9.008620045354469E+10,      /* I = 50 */
(PID.TID 0000.0001)                 8.874277443041928E+10,      /* I = 51 */
(PID.TID 0000.0001)                 8.674306976741121E+10,      /* I = 52 */
(PID.TID 0000.0001)                 8.410423102799828E+10,      /* I = 53 */
(PID.TID 0000.0001)                 8.084683449728902E+10,      /* I = 54 */
(PID.TID 0000.0001)                 7.699293007098555E+10,      /* I = 55 */
(PID.TID 0000.0001)                 7.256353271748119E+10,      /* I = 56 */
(PID.TID 0000.0001)                 6.757541173817516E+10,      /* I = 57 */
(PID.TID 0000.0001)                 6.203683527772523E+10,      /* I = 58 */
(PID.TID 0000.0001)                 5.594154126611156E+10,      /* I = 59 */
(PID.TID 0000.0001)                 4.925938996118163E+10,      /* I = 60 */
(PID.TID 0000.0001)                 4.192037169898667E+10,      /* I = 61 */
(PID.TID 0000.0001)                 3.378518544304265E+10,      /* I = 62 */
(PID.TID 0000.0001)                 2.459906945574446E+10,      /* I = 63 */
(PID.TID 0000.0001)                 1.401900702259215E+10,      /* I = 64 */
(PID.TID 0000.0001)                 1.401900702255611E+10,      /* I = 65 */
(PID.TID 0000.0001)                 2.459906945574446E+10,      /* I = 66 */
(PID.TID 0000.0001)                 3.378518544307869E+10,      /* I = 67 */
(PID.TID 0000.0001)                 4.192037169898667E+10,      /* I = 68 */
(PID.TID 0000.0001)                 4.925938996118163E+10,      /* I = 69 */
(PID.TID 0000.0001)                 5.594154126607553E+10,      /* I = 70 */
(PID.TID 0000.0001)                 6.203683527772523E+10,      /* I = 71 */
(PID.TID 0000.0001)                 6.757541173817516E+10,      /* I = 72 */
(PID.TID 0000.0001)                 7.256353271748119E+10,      /* I = 73 */
(PID.TID 0000.0001)                 7.699293007098555E+10,      /* I = 74 */
(PID.TID 0000.0001)                 8.084683449728902E+10,      /* I = 75 */
(PID.TID 0000.0001)                 8.410423102796223E+10,      /* I = 76 */
(PID.TID 0000.0001)                 8.674306976737517E+10,      /* I = 77 */
(PID.TID 0000.0001)                 8.874277443041928E+10,      /* I = 78 */
(PID.TID 0000.0001)                 9.008620045350865E+10,      /* I = 79 */
(PID.TID 0000.0001)                 9.076111290418457E+10,      /* I = 80 */
(PID.TID 0000.0001)                 9.076111290422060E+10,      /* I = 81 */
(PID.TID 0000.0001)                 9.008620045354469E+10,      /* I = 82 */
(PID.TID 0000.0001)                 8.874277443041928E+10,      /* I = 83 */
(PID.TID 0000.0001)                 8.674306976741121E+10,      /* I = 84 */
(PID.TID 0000.0001)                 8.410423102799828E+10,      /* I = 85 */
(PID.TID 0000.0001)                 8.084683449728902E+10,      /* I = 86 */
(PID.TID 0000.0001)                 7.699293007098555E+10,      /* I = 87 */
(PID.TID 0000.0001)                 7.256353271748119E+10,      /* I = 88 */
(PID.TID 0000.0001)                 6.757541173817516E+10,      /* I = 89 */
(PID.TID 0000.0001)                 6.203683527772523E+10,      /* I = 90 */
(PID.TID 0000.0001)                 5.594154126611156E+10,      /* I = 91 */
(PID.TID 0000.0001)                 4.925938996118163E+10,      /* I = 92 */
(PID.TID 0000.0001)                 4.192037169898667E+10,      /* I = 93 */
(PID.TID 0000.0001)                 3.378518544304265E+10,      /* I = 94 */
(PID.TID 0000.0001)                 2.459906945574446E+10,      /* I = 95 */
(PID.TID 0000.0001)                 1.401900702259215E+10,      /* I = 96 */
(PID.TID 0000.0001)                 1.401900702255611E+10,      /* I = 97 */
(PID.TID 0000.0001)                 2.459906945574446E+10,      /* I = 98 */
(PID.TID 0000.0001)                 3.378518544307869E+10,      /* I = 99 */
(PID.TID 0000.0001)                 4.192037169898667E+10,      /* I =100 */
(PID.TID 0000.0001)                 4.925938996118163E+10,      /* I =101 */
(PID.TID 0000.0001)                 5.594154126607553E+10,      /* I =102 */
(PID.TID 0000.0001)                 6.203683527772523E+10,      /* I =103 */
(PID.TID 0000.0001)                 6.757541173817516E+10,      /* I =104 */
(PID.TID 0000.0001)                 7.256353271748119E+10,      /* I =105 */
(PID.TID 0000.0001)                 7.699293007098555E+10,      /* I =106 */
(PID.TID 0000.0001)                 8.084683449728902E+10,      /* I =107 */
(PID.TID 0000.0001)                 8.410423102796223E+10,      /* I =108 */
(PID.TID 0000.0001)                 8.674306976737517E+10,      /* I =109 */
(PID.TID 0000.0001)                 8.874277443041928E+10,      /* I =110 */
(PID.TID 0000.0001)                 9.008620045350865E+10,      /* I =111 */
(PID.TID 0000.0001)                 9.076111290418457E+10,      /* I =112 */
(PID.TID 0000.0001)                 9.076111290422060E+10,      /* I =113 */
(PID.TID 0000.0001)                 9.008620045354469E+10,      /* I =114 */
(PID.TID 0000.0001)                 8.874277443041928E+10,      /* I =115 */
(PID.TID 0000.0001)                 8.674306976741121E+10,      /* I =116 */
(PID.TID 0000.0001)                 8.410423102799828E+10,      /* I =117 */
(PID.TID 0000.0001)                 8.084683449728902E+10,      /* I =118 */
(PID.TID 0000.0001)                 7.699293007098555E+10,      /* I =119 */
(PID.TID 0000.0001)                 7.256353271748119E+10,      /* I =120 */
(PID.TID 0000.0001)                 6.757541173817516E+10,      /* I =121 */
(PID.TID 0000.0001)                 6.203683527772523E+10,      /* I =122 */
(PID.TID 0000.0001)                 5.594154126611156E+10,      /* I =123 */
(PID.TID 0000.0001)                 4.925938996118163E+10,      /* I =124 */
(PID.TID 0000.0001)                 4.192037169898667E+10,      /* I =125 */
(PID.TID 0000.0001)                 3.378518544304265E+10,      /* I =126 */
(PID.TID 0000.0001)                 2.459906945574446E+10,      /* I =127 */
(PID.TID 0000.0001)                 1.401900702259215E+10,      /* I =128 */
(PID.TID 0000.0001)                 1.401900702255611E+10,      /* I =129 */
(PID.TID 0000.0001)                 2.459906945574446E+10,      /* I =130 */
(PID.TID 0000.0001)                 3.378518544307869E+10,      /* I =131 */
(PID.TID 0000.0001)                 4.192037169898667E+10,      /* I =132 */
(PID.TID 0000.0001)                 4.925938996118163E+10,      /* I =133 */
(PID.TID 0000.0001)                 5.594154126607553E+10,      /* I =134 */
(PID.TID 0000.0001)                 6.203683527772523E+10,      /* I =135 */
(PID.TID 0000.0001)                 6.757541173817516E+10,      /* I =136 */
(PID.TID 0000.0001)                 7.256353271748119E+10,      /* I =137 */
(PID.TID 0000.0001)                 7.699293007098555E+10,      /* I =138 */
(PID.TID 0000.0001)                 8.084683449728902E+10,      /* I =139 */
(PID.TID 0000.0001)                 8.410423102796223E+10,      /* I =140 */
(PID.TID 0000.0001)                 8.674306976737517E+10,      /* I =141 */
(PID.TID 0000.0001)                 8.874277443041928E+10,      /* I =142 */
(PID.TID 0000.0001)                 9.008620045350865E+10,      /* I =143 */
(PID.TID 0000.0001)                 9.076111290418457E+10,      /* I =144 */
(PID.TID 0000.0001)                 9.076111290422060E+10,      /* I =145 */
(PID.TID 0000.0001)                 9.008620045354469E+10,      /* I =146 */
(PID.TID 0000.0001)                 8.874277443041928E+10,      /* I =147 */
(PID.TID 0000.0001)                 8.674306976741121E+10,      /* I =148 */
(PID.TID 0000.0001)                 8.410423102799828E+10,      /* I =149 */
(PID.TID 0000.0001)                 8.084683449728902E+10,      /* I =150 */
(PID.TID 0000.0001)                 7.699293007098555E+10,      /* I =151 */
(PID.TID 0000.0001)                 7.256353271748119E+10,      /* I =152 */
(PID.TID 0000.0001)                 6.757541173817516E+10,      /* I =153 */
(PID.TID 0000.0001)                 6.203683527772523E+10,      /* I =154 */
(PID.TID 0000.0001)                 5.594154126611156E+10,      /* I =155 */
(PID.TID 0000.0001)                 4.925938996118163E+10,      /* I =156 */
(PID.TID 0000.0001)                 4.192037169898667E+10,      /* I =157 */
(PID.TID 0000.0001)                 3.378518544304265E+10,      /* I =158 */
(PID.TID 0000.0001)                 2.459906945574446E+10,      /* I =159 */
(PID.TID 0000.0001)                 1.401900702259215E+10,      /* I =160 */
(PID.TID 0000.0001)                 1.401900702255611E+10,      /* I =161 */
(PID.TID 0000.0001)                 2.459906945574446E+10,      /* I =162 */
(PID.TID 0000.0001)                 3.378518544307869E+10,      /* I =163 */
(PID.TID 0000.0001)                 4.192037169898667E+10,      /* I =164 */
(PID.TID 0000.0001)                 4.925938996118163E+10,      /* I =165 */
(PID.TID 0000.0001)                 5.594154126607553E+10,      /* I =166 */
(PID.TID 0000.0001)                 6.203683527772523E+10,      /* I =167 */
(PID.TID 0000.0001)                 6.757541173817516E+10,      /* I =168 */
(PID.TID 0000.0001)                 7.256353271748119E+10,      /* I =169 */
(PID.TID 0000.0001)                 7.699293007098555E+10,      /* I =170 */
(PID.TID 0000.0001)                 8.084683449728902E+10,      /* I =171 */
(PID.TID 0000.0001)                 8.410423102796223E+10,      /* I =172 */
(PID.TID 0000.0001)                 8.674306976737517E+10,      /* I =173 */
(PID.TID 0000.0001)                 8.874277443041928E+10,      /* I =174 */
(PID.TID 0000.0001)                 9.008620045350865E+10,      /* I =175 */
(PID.TID 0000.0001)                 9.076111290418457E+10,      /* I =176 */
(PID.TID 0000.0001)                 9.076111290422060E+10,      /* I =177 */
(PID.TID 0000.0001)                 9.008620045354469E+10,      /* I =178 */
(PID.TID 0000.0001)                 8.874277443041928E+10,      /* I =179 */
(PID.TID 0000.0001)                 8.674306976741121E+10,      /* I =180 */
(PID.TID 0000.0001)                 8.410423102799828E+10,      /* I =181 */
(PID.TID 0000.0001)                 8.084683449728902E+10,      /* I =182 */
(PID.TID 0000.0001)                 7.699293007098555E+10,      /* I =183 */
(PID.TID 0000.0001)                 7.256353271748119E+10,      /* I =184 */
(PID.TID 0000.0001)                 6.757541173817516E+10,      /* I =185 */
(PID.TID 0000.0001)                 6.203683527772523E+10,      /* I =186 */
(PID.TID 0000.0001)                 5.594154126611156E+10,      /* I =187 */
(PID.TID 0000.0001)                 4.925938996118163E+10,      /* I =188 */
(PID.TID 0000.0001)                 4.192037169898667E+10,      /* I =189 */
(PID.TID 0000.0001)                 3.378518544304265E+10,      /* I =190 */
(PID.TID 0000.0001)                 2.459906945574446E+10,      /* I =191 */
(PID.TID 0000.0001)                 1.401900702259215E+10       /* I =192 */
(PID.TID 0000.0001)     ;
(PID.TID 0000.0001) rA  =  /* rA (1,:,1,:) ( units: m^2 ) */
(PID.TID 0000.0001)                 1.401900702255611E+10,      /* J =  1 */
(PID.TID 0000.0001)                 2.459906945574446E+10,      /* J =  2 */
(PID.TID 0000.0001)                 3.378518544307869E+10,      /* J =  3 */
(PID.TID 0000.0001)                 4.192037169898667E+10,      /* J =  4 */
(PID.TID 0000.0001)                 4.925938996118163E+10,      /* J =  5 */
(PID.TID 0000.0001)                 5.594154126607553E+10,      /* J =  6 */
(PID.TID 0000.0001)                 6.203683527776127E+10,      /* J =  7 */
(PID.TID 0000.0001)                 6.757541173817516E+10,      /* J =  8 */
(PID.TID 0000.0001)                 7.256353271748119E+10,      /* J =  9 */
(PID.TID 0000.0001)                 7.699293007098555E+10,      /* J = 10 */
(PID.TID 0000.0001)                 8.084683449728902E+10,      /* J = 11 */
(PID.TID 0000.0001)                 8.410423102799828E+10,      /* J = 12 */
(PID.TID 0000.0001)                 8.674306976737517E+10,      /* J = 13 */
(PID.TID 0000.0001)                 8.874277443041928E+10,      /* J = 14 */
(PID.TID 0000.0001)                 9.008620045350865E+10,      /* J = 15 */
(PID.TID 0000.0001)                 9.076111290418457E+10,      /* J = 16 */
(PID.TID 0000.0001)                 9.076111290422060E+10,      /* J = 17 */
(PID.TID 0000.0001)                 9.008620045354469E+10,      /* J = 18 */
(PID.TID 0000.0001)                 8.874277443041928E+10,      /* J = 19 */
(PID.TID 0000.0001)                 8.674306976737517E+10,      /* J = 20 */
(PID.TID 0000.0001)                 8.410423102799828E+10,      /* J = 21 */
(PID.TID 0000.0001)                 8.084683449728902E+10,      /* J = 22 */
(PID.TID 0000.0001)                 7.699293007098555E+10,      /* J = 23 */
(PID.TID 0000.0001)                 7.256353271748119E+10,      /* J = 24 */
(PID.TID 0000.0001)                 6.757541173817516E+10,      /* J = 25 */
(PID.TID 0000.0001)                 6.203683527772523E+10,      /* J = 26 */
(PID.TID 0000.0001)                 5.594154126607553E+10,      /* J = 27 */
(PID.TID 0000.0001)                 4.925938996118163E+10,      /* J = 28 */
(PID.TID 0000.0001)                 4.192037169898667E+10,      /* J = 29 */
(PID.TID 0000.0001)                 3.378518544307869E+10,      /* J = 30 */
(PID.TID 0000.0001)                 2.459906945574446E+10,      /* J = 31 */
(PID.TID 0000.0001)                 1.401900702259215E+10       /* J = 32 */
(PID.TID 0000.0001)     ;
(PID.TID 0000.0001) rAw =  /* rAw(:,1,:,1) ( units: m^2 ) */
(PID.TID 0000.0001)                 1.216690346714270E+10,      /* I =  1 */
(PID.TID 0000.0001)                 1.974052138506315E+10,      /* I =  2 */
(PID.TID 0000.0001)                 2.943712825252015E+10,      /* I =  3 */
(PID.TID 0000.0001)                 3.801790263324359E+10,      /* I =  4 */
(PID.TID 0000.0001)                 4.571243814189866E+10,      /* I =  5 */
(PID.TID 0000.0001)                 5.269930713599979E+10,      /* I =  6 */
(PID.TID 0000.0001)                 5.907428494299063E+10,      /* I =  7 */
(PID.TID 0000.0001)                 6.488320895111514E+10,      /* I =  8 */
(PID.TID 0000.0001)                 7.014205907741882E+10,      /* I =  9 */
(PID.TID 0000.0001)                 7.484854821847499E+10,      /* I = 10 */
(PID.TID 0000.0001)                 7.898934631431560E+10,      /* I = 11 */
(PID.TID 0000.0001)                 8.254500894894537E+10,      /* I = 12 */
(PID.TID 0000.0001)                 8.549360686473492E+10,      /* I = 13 */
(PID.TID 0000.0001)                 8.781353403175085E+10,      /* I = 14 */
(PID.TID 0000.0001)                 8.948571540392021E+10,      /* I = 15 */
(PID.TID 0000.0001)                 9.049530583086168E+10,      /* I = 16 */
(PID.TID 0000.0001)                 9.083293515008307E+10,      /* I = 17 */
(PID.TID 0000.0001)                 9.049530583087070E+10,      /* I = 18 */
(PID.TID 0000.0001)                 8.948571540391121E+10,      /* I = 19 */
(PID.TID 0000.0001)                 8.781353403174185E+10,      /* I = 20 */
(PID.TID 0000.0001)                 8.549360686467184E+10,      /* I = 21 */
(PID.TID 0000.0001)                 8.254500894890933E+10,      /* I = 22 */
(PID.TID 0000.0001)                 7.898934631434262E+10,      /* I = 23 */
(PID.TID 0000.0001)                 7.484854821844795E+10,      /* I = 24 */
(PID.TID 0000.0001)                 7.014205907742783E+10,      /* I = 25 */
(PID.TID 0000.0001)                 6.488320895111514E+10,      /* I = 26 */
(PID.TID 0000.0001)                 5.907428494299063E+10,      /* I = 27 */
(PID.TID 0000.0001)                 5.269930713599078E+10,      /* I = 28 */
(PID.TID 0000.0001)                 4.571243814190767E+10,      /* I = 29 */
(PID.TID 0000.0001)                 3.801790263325260E+10,      /* I = 30 */
(PID.TID 0000.0001)                 2.943712825251114E+10,      /* I = 31 */
(PID.TID 0000.0001)                 1.974052138509018E+10,      /* I = 32 */
(PID.TID 0000.0001)                 1.216690346714270E+10,      /* I = 33 */
(PID.TID 0000.0001)                 1.974052138506315E+10,      /* I = 34 */
(PID.TID 0000.0001)                 2.943712825252015E+10,      /* I = 35 */
(PID.TID 0000.0001)                 3.801790263324359E+10,      /* I = 36 */
(PID.TID 0000.0001)                 4.571243814189866E+10,      /* I = 37 */
(PID.TID 0000.0001)                 5.269930713599979E+10,      /* I = 38 */
(PID.TID 0000.0001)                 5.907428494299063E+10,      /* I = 39 */
(PID.TID 0000.0001)                 6.488320895111514E+10,      /* I = 40 */
(PID.TID 0000.0001)                 7.014205907741882E+10,      /* I = 41 */
(PID.TID 0000.0001)                 7.484854821847499E+10,      /* I = 42 */
(PID.TID 0000.0001)                 7.898934631431560E+10,      /* I = 43 */
(PID.TID 0000.0001)                 8.254500894894537E+10,      /* I = 44 */
(PID.TID 0000.0001)                 8.549360686473492E+10,      /* I = 45 */
(PID.TID 0000.0001)                 8.781353403175085E+10,      /* I = 46 */
(PID.TID 0000.0001)                 8.948571540392021E+10,      /* I = 47 */
(PID.TID 0000.0001)                 9.049530583086168E+10,      /* I = 48 */
(PID.TID 0000.0001)                 9.083293515008307E+10,      /* I = 49 */
(PID.TID 0000.0001)                 9.049530583087070E+10,      /* I = 50 */
(PID.TID 0000.0001)                 8.948571540391121E+10,      /* I = 51 */
(PID.TID 0000.0001)                 8.781353403174185E+10,      /* I = 52 */
(PID.TID 0000.0001)                 8.549360686467184E+10,      /* I = 53 */
(PID.TID 0000.0001)                 8.254500894890933E+10,      /* I = 54 */
(PID.TID 0000.0001)                 7.898934631434262E+10,      /* I = 55 */
(PID.TID 0000.0001)                 7.484854821844795E+10,      /* I = 56 */
(PID.TID 0000.0001)                 7.014205907742783E+10,      /* I = 57 */
(PID.TID 0000.0001)                 6.488320895111514E+10,      /* I = 58 */
(PID.TID 0000.0001)                 5.907428494299063E+10,      /* I = 59 */
(PID.TID 0000.0001)                 5.269930713599078E+10,      /* I = 60 */
(PID.TID 0000.0001)                 4.571243814190767E+10,      /* I = 61 */
(PID.TID 0000.0001)                 3.801790263325260E+10,      /* I = 62 */
(PID.TID 0000.0001)                 2.943712825251114E+10,      /* I = 63 */
(PID.TID 0000.0001)                 1.974052138509018E+10,      /* I = 64 */
(PID.TID 0000.0001)                 1.216690346714270E+10,      /* I = 65 */
(PID.TID 0000.0001)                 1.974052138506315E+10,      /* I = 66 */
(PID.TID 0000.0001)                 2.943712825252015E+10,      /* I = 67 */
(PID.TID 0000.0001)                 3.801790263324359E+10,      /* I = 68 */
(PID.TID 0000.0001)                 4.571243814189866E+10,      /* I = 69 */
(PID.TID 0000.0001)                 5.269930713599979E+10,      /* I = 70 */
(PID.TID 0000.0001)                 5.907428494299063E+10,      /* I = 71 */
(PID.TID 0000.0001)                 6.488320895111514E+10,      /* I = 72 */
(PID.TID 0000.0001)                 7.014205907741882E+10,      /* I = 73 */
(PID.TID 0000.0001)                 7.484854821847499E+10,      /* I = 74 */
(PID.TID 0000.0001)                 7.898934631431560E+10,      /* I = 75 */
(PID.TID 0000.0001)                 8.254500894894537E+10,      /* I = 76 */
(PID.TID 0000.0001)                 8.549360686473492E+10,      /* I = 77 */
(PID.TID 0000.0001)                 8.781353403175085E+10,      /* I = 78 */
(PID.TID 0000.0001)                 8.948571540392021E+10,      /* I = 79 */
(PID.TID 0000.0001)                 9.049530583086168E+10,      /* I = 80 */
(PID.TID 0000.0001)                 9.083293515008307E+10,      /* I = 81 */
(PID.TID 0000.0001)                 9.049530583087070E+10,      /* I = 82 */
(PID.TID 0000.0001)                 8.948571540391121E+10,      /* I = 83 */
(PID.TID 0000.0001)                 8.781353403174185E+10,      /* I = 84 */
(PID.TID 0000.0001)                 8.549360686467184E+10,      /* I = 85 */
(PID.TID 0000.0001)                 8.254500894890933E+10,      /* I = 86 */
(PID.TID 0000.0001)                 7.898934631434262E+10,      /* I = 87 */
(PID.TID 0000.0001)                 7.484854821844795E+10,      /* I = 88 */
(PID.TID 0000.0001)                 7.014205907742783E+10,      /* I = 89 */
(PID.TID 0000.0001)                 6.488320895111514E+10,      /* I = 90 */
(PID.TID 0000.0001)                 5.907428494299063E+10,      /* I = 91 */
(PID.TID 0000.0001)                 5.269930713599078E+10,      /* I = 92 */
(PID.TID 0000.0001)                 4.571243814190767E+10,      /* I = 93 */
(PID.TID 0000.0001)                 3.801790263325260E+10,      /* I = 94 */
(PID.TID 0000.0001)                 2.943712825251114E+10,      /* I = 95 */
(PID.TID 0000.0001)                 1.974052138509018E+10,      /* I = 96 */
(PID.TID 0000.0001)                 1.216690346714270E+10,      /* I = 97 */
(PID.TID 0000.0001)                 1.974052138506315E+10,      /* I = 98 */
(PID.TID 0000.0001)                 2.943712825252015E+10,      /* I = 99 */
(PID.TID 0000.0001)                 3.801790263324359E+10,      /* I =100 */
(PID.TID 0000.0001)                 4.571243814189866E+10,      /* I =101 */
(PID.TID 0000.0001)                 5.269930713599979E+10,      /* I =102 */
(PID.TID 0000.0001)                 5.907428494299063E+10,      /* I =103 */
(PID.TID 0000.0001)                 6.488320895111514E+10,      /* I =104 */
(PID.TID 0000.0001)                 7.014205907741882E+10,      /* I =105 */
(PID.TID 0000.0001)                 7.484854821847499E+10,      /* I =106 */
(PID.TID 0000.0001)                 7.898934631431560E+10,      /* I =107 */
(PID.TID 0000.0001)                 8.254500894894537E+10,      /* I =108 */
(PID.TID 0000.0001)                 8.549360686473492E+10,      /* I =109 */
(PID.TID 0000.0001)                 8.781353403175085E+10,      /* I =110 */
(PID.TID 0000.0001)                 8.948571540392021E+10,      /* I =111 */
(PID.TID 0000.0001)                 9.049530583086168E+10,      /* I =112 */
(PID.TID 0000.0001)                 9.083293515008307E+10,      /* I =113 */
(PID.TID 0000.0001)                 9.049530583087070E+10,      /* I =114 */
(PID.TID 0000.0001)                 8.948571540391121E+10,      /* I =115 */
(PID.TID 0000.0001)                 8.781353403174185E+10,      /* I =116 */
(PID.TID 0000.0001)                 8.549360686467184E+10,      /* I =117 */
(PID.TID 0000.0001)                 8.254500894890933E+10,      /* I =118 */
(PID.TID 0000.0001)                 7.898934631434262E+10,      /* I =119 */
(PID.TID 0000.0001)                 7.484854821844795E+10,      /* I =120 */
(PID.TID 0000.0001)                 7.014205907742783E+10,      /* I =121 */
(PID.TID 0000.0001)                 6.488320895111514E+10,      /* I =122 */
(PID.TID 0000.0001)                 5.907428494299063E+10,      /* I =123 */
(PID.TID 0000.0001)                 5.269930713599078E+10,      /* I =124 */
(PID.TID 0000.0001)                 4.571243814190767E+10,      /* I =125 */
(PID.TID 0000.0001)                 3.801790263325260E+10,      /* I =126 */
(PID.TID 0000.0001)                 2.943712825251114E+10,      /* I =127 */
(PID.TID 0000.0001)                 1.974052138509018E+10,      /* I =128 */
(PID.TID 0000.0001)                 1.216690346714270E+10,      /* I =129 */
(PID.TID 0000.0001)                 1.974052138506315E+10,      /* I =130 */
(PID.TID 0000.0001)                 2.943712825252015E+10,      /* I =131 */
(PID.TID 0000.0001)                 3.801790263324359E+10,      /* I =132 */
(PID.TID 0000.0001)                 4.571243814189866E+10,      /* I =133 */
(PID.TID 0000.0001)                 5.269930713599979E+10,      /* I =134 */
(PID.TID 0000.0001)                 5.907428494299063E+10,      /* I =135 */
(PID.TID 0000.0001)                 6.488320895111514E+10,      /* I =136 */
(PID.TID 0000.0001)                 7.014205907741882E+10,      /* I =137 */
(PID.TID 0000.0001)                 7.484854821847499E+10,      /* I =138 */
(PID.TID 0000.0001)                 7.898934631431560E+10,      /* I =139 */
(PID.TID 0000.0001)                 8.254500894894537E+10,      /* I =140 */
(PID.TID 0000.0001)                 8.549360686473492E+10,      /* I =141 */
(PID.TID 0000.0001)                 8.781353403175085E+10,      /* I =142 */
(PID.TID 0000.0001)                 8.948571540392021E+10,      /* I =143 */
(PID.TID 0000.0001)                 9.049530583086168E+10,      /* I =144 */
(PID.TID 0000.0001)                 9.083293515008307E+10,      /* I =145 */
(PID.TID 0000.0001)                 9.049530583087070E+10,      /* I =146 */
(PID.TID 0000.0001)                 8.948571540391121E+10,      /* I =147 */
(PID.TID 0000.0001)                 8.781353403174185E+10,      /* I =148 */
(PID.TID 0000.0001)                 8.549360686467184E+10,      /* I =149 */
(PID.TID 0000.0001)                 8.254500894890933E+10,      /* I =150 */
(PID.TID 0000.0001)                 7.898934631434262E+10,      /* I =151 */
(PID.TID 0000.0001)                 7.484854821844795E+10,      /* I =152 */
(PID.TID 0000.0001)                 7.014205907742783E+10,      /* I =153 */
(PID.TID 0000.0001)                 6.488320895111514E+10,      /* I =154 */
(PID.TID 0000.0001)                 5.907428494299063E+10,      /* I =155 */
(PID.TID 0000.0001)                 5.269930713599078E+10,      /* I =156 */
(PID.TID 0000.0001)                 4.571243814190767E+10,      /* I =157 */
(PID.TID 0000.0001)                 3.801790263325260E+10,      /* I =158 */
(PID.TID 0000.0001)                 2.943712825251114E+10,      /* I =159 */
(PID.TID 0000.0001)                 1.974052138509018E+10,      /* I =160 */
(PID.TID 0000.0001)                 1.216690346714270E+10,      /* I =161 */
(PID.TID 0000.0001)                 1.974052138506315E+10,      /* I =162 */
(PID.TID 0000.0001)                 2.943712825252015E+10,      /* I =163 */
(PID.TID 0000.0001)                 3.801790263324359E+10,      /* I =164 */
(PID.TID 0000.0001)                 4.571243814189866E+10,      /* I =165 */
(PID.TID 0000.0001)                 5.269930713599979E+10,      /* I =166 */
(PID.TID 0000.0001)                 5.907428494299063E+10,      /* I =167 */
(PID.TID 0000.0001)                 6.488320895111514E+10,      /* I =168 */
(PID.TID 0000.0001)                 7.014205907741882E+10,      /* I =169 */
(PID.TID 0000.0001)                 7.484854821847499E+10,      /* I =170 */
(PID.TID 0000.0001)                 7.898934631431560E+10,      /* I =171 */
(PID.TID 0000.0001)                 8.254500894894537E+10,      /* I =172 */
(PID.TID 0000.0001)                 8.549360686473492E+10,      /* I =173 */
(PID.TID 0000.0001)                 8.781353403175085E+10,      /* I =174 */
(PID.TID 0000.0001)                 8.948571540392021E+10,      /* I =175 */
(PID.TID 0000.0001)                 9.049530583086168E+10,      /* I =176 */
(PID.TID 0000.0001)                 9.083293515008307E+10,      /* I =177 */
(PID.TID 0000.0001)                 9.049530583087070E+10,      /* I =178 */
(PID.TID 0000.0001)                 8.948571540391121E+10,      /* I =179 */
(PID.TID 0000.0001)                 8.781353403174185E+10,      /* I =180 */
(PID.TID 0000.0001)                 8.549360686467184E+10,      /* I =181 */
(PID.TID 0000.0001)                 8.254500894890933E+10,      /* I =182 */
(PID.TID 0000.0001)                 7.898934631434262E+10,      /* I =183 */
(PID.TID 0000.0001)                 7.484854821844795E+10,      /* I =184 */
(PID.TID 0000.0001)                 7.014205907742783E+10,      /* I =185 */
(PID.TID 0000.0001)                 6.488320895111514E+10,      /* I =186 */
(PID.TID 0000.0001)                 5.907428494299063E+10,      /* I =187 */
(PID.TID 0000.0001)                 5.269930713599078E+10,      /* I =188 */
(PID.TID 0000.0001)                 4.571243814190767E+10,      /* I =189 */
(PID.TID 0000.0001)                 3.801790263325260E+10,      /* I =190 */
(PID.TID 0000.0001)                 2.943712825251114E+10,      /* I =191 */
(PID.TID 0000.0001)                 1.974052138509018E+10       /* I =192 */
(PID.TID 0000.0001)     ;
(PID.TID 0000.0001) rAw =  /* rAw(1,:,1,:) ( units: m^2 ) */
(PID.TID 0000.0001)                 1.216690346714270E+10,      /* J =  1 */
(PID.TID 0000.0001)                 2.390126200743558E+10,      /* J =  2 */
(PID.TID 0000.0001)                 3.341968103208270E+10,      /* J =  3 */
(PID.TID 0000.0001)                 4.168532893152940E+10,      /* J =  4 */
(PID.TID 0000.0001)                 4.909074590409593E+10,      /* J =  5 */
(PID.TID 0000.0001)                 5.581203765722643E+10,      /* J =  6 */
(PID.TID 0000.0001)                 6.193257577506788E+10,      /* J =  7 */
(PID.TID 0000.0001)                 6.748840226738273E+10,      /* J =  8 */
(PID.TID 0000.0001)                 7.248875782324815E+10,      /* J =  9 */
(PID.TID 0000.0001)                 7.692702995909871E+10,      /* J = 10 */
(PID.TID 0000.0001)                 8.078743937057304E+10,      /* J = 11 */
(PID.TID 0000.0001)                 8.404959656062837E+10,      /* J = 12 */
(PID.TID 0000.0001)                 8.669186205742538E+10,      /* J = 13 */
(PID.TID 0000.0001)                 8.869393350723613E+10,      /* J = 14 */
(PID.TID 0000.0001)                 9.003884657168852E+10,      /* J = 15 */
(PID.TID 0000.0001)     2 @  9.071447638299399E+10,             /* J = 16: 17 */
(PID.TID 0000.0001)                 9.003884657168852E+10,      /* J = 18 */
(PID.TID 0000.0001)                 8.869393350723613E+10,      /* J = 19 */
(PID.TID 0000.0001)                 8.669186205742538E+10,      /* J = 20 */
(PID.TID 0000.0001)                 8.404959656062837E+10,      /* J = 21 */
(PID.TID 0000.0001)                 8.078743937057304E+10,      /* J = 22 */
(PID.TID 0000.0001)                 7.692702995909871E+10,      /* J = 23 */
(PID.TID 0000.0001)                 7.248875782324815E+10,      /* J = 24 */
(PID.TID 0000.0001)                 6.748840226738273E+10,      /* J = 25 */
(PID.TID 0000.0001)                 6.193257577506788E+10,      /* J = 26 */
(PID.TID 0000.0001)                 5.581203765722643E+10,      /* J = 27 */
(PID.TID 0000.0001)                 4.909074590409593E+10,      /* J = 28 */
(PID.TID 0000.0001)                 4.168532893152940E+10,      /* J = 29 */
(PID.TID 0000.0001)                 3.341968103208270E+10,      /* J = 30 */
(PID.TID 0000.0001)                 2.390126200743558E+10,      /* J = 31 */
(PID.TID 0000.0001)                 1.216690346714270E+10       /* J = 32 */
(PID.TID 0000.0001)     ;
(PID.TID 0000.0001) rAs =  /* rAs(:,1,:,1) ( units: m^2 ) */
(PID.TID 0000.0001)                 1.216690346714270E+10,      /* I =  1 */
(PID.TID 0000.0001)                 2.390126200743558E+10,      /* I =  2 */
(PID.TID 0000.0001)                 3.341968103208270E+10,      /* I =  3 */
(PID.TID 0000.0001)                 4.168532893152940E+10,      /* I =  4 */
(PID.TID 0000.0001)                 4.909074590409593E+10,      /* I =  5 */
(PID.TID 0000.0001)                 5.581203765722643E+10,      /* I =  6 */
(PID.TID 0000.0001)                 6.193257577506788E+10,      /* I =  7 */
(PID.TID 0000.0001)                 6.748840226738273E+10,      /* I =  8 */
(PID.TID 0000.0001)                 7.248875782324815E+10,      /* I =  9 */
(PID.TID 0000.0001)                 7.692702995909871E+10,      /* I = 10 */
(PID.TID 0000.0001)                 8.078743937057304E+10,      /* I = 11 */
(PID.TID 0000.0001)                 8.404959656062837E+10,      /* I = 12 */
(PID.TID 0000.0001)                 8.669186205742538E+10,      /* I = 13 */
(PID.TID 0000.0001)                 8.869393350723613E+10,      /* I = 14 */
(PID.TID 0000.0001)                 9.003884657168852E+10,      /* I = 15 */
(PID.TID 0000.0001)     2 @  9.071447638299399E+10,             /* I = 16: 17 */
(PID.TID 0000.0001)                 9.003884657168852E+10,      /* I = 18 */
(PID.TID 0000.0001)                 8.869393350723613E+10,      /* I = 19 */
(PID.TID 0000.0001)                 8.669186205742538E+10,      /* I = 20 */
(PID.TID 0000.0001)                 8.404959656062837E+10,      /* I = 21 */
(PID.TID 0000.0001)                 8.078743937057304E+10,      /* I = 22 */
(PID.TID 0000.0001)                 7.692702995909871E+10,      /* I = 23 */
(PID.TID 0000.0001)                 7.248875782324815E+10,      /* I = 24 */
(PID.TID 0000.0001)                 6.748840226738273E+10,      /* I = 25 */
(PID.TID 0000.0001)                 6.193257577506788E+10,      /* I = 26 */
(PID.TID 0000.0001)                 5.581203765722643E+10,      /* I = 27 */
(PID.TID 0000.0001)                 4.909074590409593E+10,      /* I = 28 */
(PID.TID 0000.0001)                 4.168532893152940E+10,      /* I = 29 */
(PID.TID 0000.0001)                 3.341968103208270E+10,      /* I = 30 */
(PID.TID 0000.0001)                 2.390126200743558E+10,      /* I = 31 */
(PID.TID 0000.0001)     2 @  1.216690346714270E+10,             /* I = 32: 33 */
(PID.TID 0000.0001)                 2.390126200743558E+10,      /* I = 34 */
(PID.TID 0000.0001)                 3.341968103208270E+10,      /* I = 35 */
(PID.TID 0000.0001)                 4.168532893152940E+10,      /* I = 36 */
(PID.TID 0000.0001)                 4.909074590409593E+10,      /* I = 37 */
(PID.TID 0000.0001)                 5.581203765722643E+10,      /* I = 38 */
(PID.TID 0000.0001)                 6.193257577506788E+10,      /* I = 39 */
(PID.TID 0000.0001)                 6.748840226738273E+10,      /* I = 40 */
(PID.TID 0000.0001)                 7.248875782324815E+10,      /* I = 41 */
(PID.TID 0000.0001)                 7.692702995909871E+10,      /* I = 42 */
(PID.TID 0000.0001)                 8.078743937057304E+10,      /* I = 43 */
(PID.TID 0000.0001)                 8.404959656062837E+10,      /* I = 44 */
(PID.TID 0000.0001)                 8.669186205742538E+10,      /* I = 45 */
(PID.TID 0000.0001)                 8.869393350723613E+10,      /* I = 46 */
(PID.TID 0000.0001)                 9.003884657168852E+10,      /* I = 47 */
(PID.TID 0000.0001)     2 @  9.071447638299399E+10,             /* I = 48: 49 */
(PID.TID 0000.0001)                 9.003884657168852E+10,      /* I = 50 */
(PID.TID 0000.0001)                 8.869393350723613E+10,      /* I = 51 */
(PID.TID 0000.0001)                 8.669186205742538E+10,      /* I = 52 */
(PID.TID 0000.0001)                 8.404959656062837E+10,      /* I = 53 */
(PID.TID 0000.0001)                 8.078743937057304E+10,      /* I = 54 */
(PID.TID 0000.0001)                 7.692702995909871E+10,      /* I = 55 */
(PID.TID 0000.0001)                 7.248875782324815E+10,      /* I = 56 */
(PID.TID 0000.0001)                 6.748840226738273E+10,      /* I = 57 */
(PID.TID 0000.0001)                 6.193257577506788E+10,      /* I = 58 */
(PID.TID 0000.0001)                 5.581203765722643E+10,      /* I = 59 */
(PID.TID 0000.0001)                 4.909074590409593E+10,      /* I = 60 */
(PID.TID 0000.0001)                 4.168532893152940E+10,      /* I = 61 */
(PID.TID 0000.0001)                 3.341968103208270E+10,      /* I = 62 */
(PID.TID 0000.0001)                 2.390126200743558E+10,      /* I = 63 */
(PID.TID 0000.0001)     2 @  1.216690346714270E+10,             /* I = 64: 65 */
(PID.TID 0000.0001)                 2.390126200743558E+10,      /* I = 66 */
(PID.TID 0000.0001)                 3.341968103208270E+10,      /* I = 67 */
(PID.TID 0000.0001)                 4.168532893152940E+10,      /* I = 68 */
(PID.TID 0000.0001)                 4.909074590409593E+10,      /* I = 69 */
(PID.TID 0000.0001)                 5.581203765722643E+10,      /* I = 70 */
(PID.TID 0000.0001)                 6.193257577506788E+10,      /* I = 71 */
(PID.TID 0000.0001)                 6.748840226738273E+10,      /* I = 72 */
(PID.TID 0000.0001)                 7.248875782324815E+10,      /* I = 73 */
(PID.TID 0000.0001)                 7.692702995909871E+10,      /* I = 74 */
(PID.TID 0000.0001)                 8.078743937057304E+10,      /* I = 75 */
(PID.TID 0000.0001)                 8.404959656062837E+10,      /* I = 76 */
(PID.TID 0000.0001)                 8.669186205742538E+10,      /* I = 77 */
(PID.TID 0000.0001)                 8.869393350723613E+10,      /* I = 78 */
(PID.TID 0000.0001)                 9.003884657168852E+10,      /* I = 79 */
(PID.TID 0000.0001)     2 @  9.071447638299399E+10,             /* I = 80: 81 */
(PID.TID 0000.0001)                 9.003884657168852E+10,      /* I = 82 */
(PID.TID 0000.0001)                 8.869393350723613E+10,      /* I = 83 */
(PID.TID 0000.0001)                 8.669186205742538E+10,      /* I = 84 */
(PID.TID 0000.0001)                 8.404959656062837E+10,      /* I = 85 */
(PID.TID 0000.0001)                 8.078743937057304E+10,      /* I = 86 */
(PID.TID 0000.0001)                 7.692702995909871E+10,      /* I = 87 */
(PID.TID 0000.0001)                 7.248875782324815E+10,      /* I = 88 */
(PID.TID 0000.0001)                 6.748840226738273E+10,      /* I = 89 */
(PID.TID 0000.0001)                 6.193257577506788E+10,      /* I = 90 */
(PID.TID 0000.0001)                 5.581203765722643E+10,      /* I = 91 */
(PID.TID 0000.0001)                 4.909074590409593E+10,      /* I = 92 */
(PID.TID 0000.0001)                 4.168532893152940E+10,      /* I = 93 */
(PID.TID 0000.0001)                 3.341968103208270E+10,      /* I = 94 */
(PID.TID 0000.0001)                 2.390126200743558E+10,      /* I = 95 */
(PID.TID 0000.0001)     2 @  1.216690346714270E+10,             /* I = 96: 97 */
(PID.TID 0000.0001)                 2.390126200743558E+10,      /* I = 98 */
(PID.TID 0000.0001)                 3.341968103208270E+10,      /* I = 99 */
(PID.TID 0000.0001)                 4.168532893152940E+10,      /* I =100 */
(PID.TID 0000.0001)                 4.909074590409593E+10,      /* I =101 */
(PID.TID 0000.0001)                 5.581203765722643E+10,      /* I =102 */
(PID.TID 0000.0001)                 6.193257577506788E+10,      /* I =103 */
(PID.TID 0000.0001)                 6.748840226738273E+10,      /* I =104 */
(PID.TID 0000.0001)                 7.248875782324815E+10,      /* I =105 */
(PID.TID 0000.0001)                 7.692702995909871E+10,      /* I =106 */
(PID.TID 0000.0001)                 8.078743937057304E+10,      /* I =107 */
(PID.TID 0000.0001)                 8.404959656062837E+10,      /* I =108 */
(PID.TID 0000.0001)                 8.669186205742538E+10,      /* I =109 */
(PID.TID 0000.0001)                 8.869393350723613E+10,      /* I =110 */
(PID.TID 0000.0001)                 9.003884657168852E+10,      /* I =111 */
(PID.TID 0000.0001)     2 @  9.071447638299399E+10,             /* I =112:113 */
(PID.TID 0000.0001)                 9.003884657168852E+10,      /* I =114 */
(PID.TID 0000.0001)                 8.869393350723613E+10,      /* I =115 */
(PID.TID 0000.0001)                 8.669186205742538E+10,      /* I =116 */
(PID.TID 0000.0001)                 8.404959656062837E+10,      /* I =117 */
(PID.TID 0000.0001)                 8.078743937057304E+10,      /* I =118 */
(PID.TID 0000.0001)                 7.692702995909871E+10,      /* I =119 */
(PID.TID 0000.0001)                 7.248875782324815E+10,      /* I =120 */
(PID.TID 0000.0001)                 6.748840226738273E+10,      /* I =121 */
(PID.TID 0000.0001)                 6.193257577506788E+10,      /* I =122 */
(PID.TID 0000.0001)                 5.581203765722643E+10,      /* I =123 */
(PID.TID 0000.0001)                 4.909074590409593E+10,      /* I =124 */
(PID.TID 0000.0001)                 4.168532893152940E+10,      /* I =125 */
(PID.TID 0000.0001)                 3.341968103208270E+10,      /* I =126 */
(PID.TID 0000.0001)                 2.390126200743558E+10,      /* I =127 */
(PID.TID 0000.0001)     2 @  1.216690346714270E+10,             /* I =128:129 */
(PID.TID 0000.0001)                 2.390126200743558E+10,      /* I =130 */
(PID.TID 0000.0001)                 3.341968103208270E+10,      /* I =131 */
(PID.TID 0000.0001)                 4.168532893152940E+10,      /* I =132 */
(PID.TID 0000.0001)                 4.909074590409593E+10,      /* I =133 */
(PID.TID 0000.0001)                 5.581203765722643E+10,      /* I =134 */
(PID.TID 0000.0001)                 6.193257577506788E+10,      /* I =135 */
(PID.TID 0000.0001)                 6.748840226738273E+10,      /* I =136 */
(PID.TID 0000.0001)                 7.248875782324815E+10,      /* I =137 */
(PID.TID 0000.0001)                 7.692702995909871E+10,      /* I =138 */
(PID.TID 0000.0001)                 8.078743937057304E+10,      /* I =139 */
(PID.TID 0000.0001)                 8.404959656062837E+10,      /* I =140 */
(PID.TID 0000.0001)                 8.669186205742538E+10,      /* I =141 */
(PID.TID 0000.0001)                 8.869393350723613E+10,      /* I =142 */
(PID.TID 0000.0001)                 9.003884657168852E+10,      /* I =143 */
(PID.TID 0000.0001)     2 @  9.071447638299399E+10,             /* I =144:145 */
(PID.TID 0000.0001)                 9.003884657168852E+10,      /* I =146 */
(PID.TID 0000.0001)                 8.869393350723613E+10,      /* I =147 */
(PID.TID 0000.0001)                 8.669186205742538E+10,      /* I =148 */
(PID.TID 0000.0001)                 8.404959656062837E+10,      /* I =149 */
(PID.TID 0000.0001)                 8.078743937057304E+10,      /* I =150 */
(PID.TID 0000.0001)                 7.692702995909871E+10,      /* I =151 */
(PID.TID 0000.0001)                 7.248875782324815E+10,      /* I =152 */
(PID.TID 0000.0001)                 6.748840226738273E+10,      /* I =153 */
(PID.TID 0000.0001)                 6.193257577506788E+10,      /* I =154 */
(PID.TID 0000.0001)                 5.581203765722643E+10,      /* I =155 */
(PID.TID 0000.0001)                 4.909074590409593E+10,      /* I =156 */
(PID.TID 0000.0001)                 4.168532893152940E+10,      /* I =157 */
(PID.TID 0000.0001)                 3.341968103208270E+10,      /* I =158 */
(PID.TID 0000.0001)                 2.390126200743558E+10,      /* I =159 */
(PID.TID 0000.0001)     2 @  1.216690346714270E+10,             /* I =160:161 */
(PID.TID 0000.0001)                 2.390126200743558E+10,      /* I =162 */
(PID.TID 0000.0001)                 3.341968103208270E+10,      /* I =163 */
(PID.TID 0000.0001)                 4.168532893152940E+10,      /* I =164 */
(PID.TID 0000.0001)                 4.909074590409593E+10,      /* I =165 */
(PID.TID 0000.0001)                 5.581203765722643E+10,      /* I =166 */
(PID.TID 0000.0001)                 6.193257577506788E+10,      /* I =167 */
(PID.TID 0000.0001)                 6.748840226738273E+10,      /* I =168 */
(PID.TID 0000.0001)                 7.248875782324815E+10,      /* I =169 */
(PID.TID 0000.0001)                 7.692702995909871E+10,      /* I =170 */
(PID.TID 0000.0001)                 8.078743937057304E+10,      /* I =171 */
(PID.TID 0000.0001)                 8.404959656062837E+10,      /* I =172 */
(PID.TID 0000.0001)                 8.669186205742538E+10,      /* I =173 */
(PID.TID 0000.0001)                 8.869393350723613E+10,      /* I =174 */
(PID.TID 0000.0001)                 9.003884657168852E+10,      /* I =175 */
(PID.TID 0000.0001)     2 @  9.071447638299399E+10,             /* I =176:177 */
(PID.TID 0000.0001)                 9.003884657168852E+10,      /* I =178 */
(PID.TID 0000.0001)                 8.869393350723613E+10,      /* I =179 */
(PID.TID 0000.0001)                 8.669186205742538E+10,      /* I =180 */
(PID.TID 0000.0001)                 8.404959656062837E+10,      /* I =181 */
(PID.TID 0000.0001)                 8.078743937057304E+10,      /* I =182 */
(PID.TID 0000.0001)                 7.692702995909871E+10,      /* I =183 */
(PID.TID 0000.0001)                 7.248875782324815E+10,      /* I =184 */
(PID.TID 0000.0001)                 6.748840226738273E+10,      /* I =185 */
(PID.TID 0000.0001)                 6.193257577506788E+10,      /* I =186 */
(PID.TID 0000.0001)                 5.581203765722643E+10,      /* I =187 */
(PID.TID 0000.0001)                 4.909074590409593E+10,      /* I =188 */
(PID.TID 0000.0001)                 4.168532893152940E+10,      /* I =189 */
(PID.TID 0000.0001)                 3.341968103208270E+10,      /* I =190 */
(PID.TID 0000.0001)                 2.390126200743558E+10,      /* I =191 */
(PID.TID 0000.0001)                 1.216690346714270E+10       /* I =192 */
(PID.TID 0000.0001)     ;
(PID.TID 0000.0001) rAs =  /* rAs(1,:,1,:) ( units: m^2 ) */
(PID.TID 0000.0001)                 1.216690346714270E+10,      /* J =  1 */
(PID.TID 0000.0001)                 1.974052138506315E+10,      /* J =  2 */
(PID.TID 0000.0001)                 2.943712825252015E+10,      /* J =  3 */
(PID.TID 0000.0001)                 3.801790263324359E+10,      /* J =  4 */
(PID.TID 0000.0001)                 4.571243814189866E+10,      /* J =  5 */
(PID.TID 0000.0001)                 5.269930713599979E+10,      /* J =  6 */
(PID.TID 0000.0001)                 5.907428494299063E+10,      /* J =  7 */
(PID.TID 0000.0001)                 6.488320895111514E+10,      /* J =  8 */
(PID.TID 0000.0001)                 7.014205907741882E+10,      /* J =  9 */
(PID.TID 0000.0001)                 7.484854821847499E+10,      /* J = 10 */
(PID.TID 0000.0001)                 7.898934631431560E+10,      /* J = 11 */
(PID.TID 0000.0001)                 8.254500894894537E+10,      /* J = 12 */
(PID.TID 0000.0001)                 8.549360686473492E+10,      /* J = 13 */
(PID.TID 0000.0001)                 8.781353403175085E+10,      /* J = 14 */
(PID.TID 0000.0001)                 8.948571540392021E+10,      /* J = 15 */
(PID.TID 0000.0001)                 9.049530583086168E+10,      /* J = 16 */
(PID.TID 0000.0001)                 9.083293515008307E+10,      /* J = 17 */
(PID.TID 0000.0001)                 9.049530583087070E+10,      /* J = 18 */
(PID.TID 0000.0001)                 8.948571540391121E+10,      /* J = 19 */
(PID.TID 0000.0001)                 8.781353403174185E+10,      /* J = 20 */
(PID.TID 0000.0001)                 8.549360686467184E+10,      /* J = 21 */
(PID.TID 0000.0001)                 8.254500894890933E+10,      /* J = 22 */
(PID.TID 0000.0001)                 7.898934631434262E+10,      /* J = 23 */
(PID.TID 0000.0001)                 7.484854821844795E+10,      /* J = 24 */
(PID.TID 0000.0001)                 7.014205907742783E+10,      /* J = 25 */
(PID.TID 0000.0001)                 6.488320895111514E+10,      /* J = 26 */
(PID.TID 0000.0001)                 5.907428494299063E+10,      /* J = 27 */
(PID.TID 0000.0001)                 5.269930713599078E+10,      /* J = 28 */
(PID.TID 0000.0001)                 4.571243814190767E+10,      /* J = 29 */
(PID.TID 0000.0001)                 3.801790263325260E+10,      /* J = 30 */
(PID.TID 0000.0001)                 2.943712825251114E+10,      /* J = 31 */
(PID.TID 0000.0001)                 1.974052138509018E+10       /* J = 32 */
(PID.TID 0000.0001)     ;
(PID.TID 0000.0001) globalArea = /* Integrated horizontal Area (m^2) */
(PID.TID 0000.0001)                 5.099043637817220E+14
(PID.TID 0000.0001)     ;
(PID.TID 0000.0001) // =======================================================
(PID.TID 0000.0001) // End of Model config. summary
(PID.TID 0000.0001) // =======================================================
(PID.TID 0000.0001) 
(PID.TID 0000.0001) // =======================================================
(PID.TID 0000.0001) // Field Ocean mixed-layer depth on atmos grid at iteration          1
(PID.TID 0000.0001) // CMIN =          5.000000000000000E+01
(PID.TID 0000.0001) // CMAX =          5.000000000000000E+01
(PID.TID 0000.0001) // CINT =          0.000000000000000E+00
(PID.TID 0000.0001) // SYMBOLS (CMIN->CMAX): -abcdefghijklmnopqrstuvwxyz+
(PID.TID 0000.0001) //                  0.0: .
(PID.TID 0000.0001) // RANGE I (Lo:Hi:Step):(  -1: 194:   1)
(PID.TID 0000.0001) // RANGE J (Lo:Hi:Step):(  34:  -1:  -1)
(PID.TID 0000.0001) // RANGE K (Lo:Hi:Step):(   1:   1:   1)
(PID.TID 0000.0001) // =======================================================
(PID.TID 0000.0001) // =======================================================
(PID.TID 0000.0001) // END OF FIELD                                          =
(PID.TID 0000.0001) // =======================================================
(PID.TID 0000.0001) 
(PID.TID 0000.0001) // =======================================================
(PID.TID 0000.0001) // Field Initial Temperature at iteration          1
(PID.TID 0000.0001) // CMIN =          2.896000000000000E+02
(PID.TID 0000.0001) // CMAX =          2.896000000000000E+02
(PID.TID 0000.0001) // CINT =          0.000000000000000E+00
(PID.TID 0000.0001) // SYMBOLS (CMIN->CMAX): -abcdefghijklmnopqrstuvwxyz+
(PID.TID 0000.0001) //                  0.0: .
(PID.TID 0000.0001) // RANGE I (Lo:Hi:Step):(   1: 192:   1)
(PID.TID 0000.0001) // RANGE J (Lo:Hi:Step):(  32:   1:  -1)
(PID.TID 0000.0001) // RANGE K (Lo:Hi:Step):(   1:   1:   1)
(PID.TID 0000.0001) // =======================================================
(PID.TID 0000.0001) // =======================================================
(PID.TID 0000.0001) // END OF FIELD                                          =
(PID.TID 0000.0001) // =======================================================
(PID.TID 0000.0001) 
(PID.TID 0000.0001) // =======================================================
(PID.TID 0000.0001) // Field Initial Salinity at iteration          1
(PID.TID 0000.0001) // CMIN =          1.000000000000000E+32
(PID.TID 0000.0001) // CMAX =         -1.000000000000000E+32
(PID.TID 0000.0001) // CINT =          0.000000000000000E+00
(PID.TID 0000.0001) // SYMBOLS (CMIN->CMAX): -abcdefghijklmnopqrstuvwxyz+
(PID.TID 0000.0001) //                  0.0: .
(PID.TID 0000.0001) // RANGE I (Lo:Hi:Step):(   1: 192:   1)
(PID.TID 0000.0001) // RANGE J (Lo:Hi:Step):(  32:   1:  -1)
(PID.TID 0000.0001) // RANGE K (Lo:Hi:Step):(   1:   1:   1)
(PID.TID 0000.0001) // =======================================================
(PID.TID 0000.0001) // =======================================================
(PID.TID 0000.0001) // END OF FIELD                                          =
(PID.TID 0000.0001) // =======================================================
(PID.TID 0000.0001) 
(PID.TID 0000.0001) Start initial hydrostatic pressure computation
(PID.TID 0000.0001) Pressure is predetermined for buoyancyRelation ATMOSPHERIC
(PID.TID 0000.0001) 
(PID.TID 0000.0001)  MDS_READ_FIELD: opening global file: land_grT_ini.cpl.bin
(PID.TID 0000.0001)  MDS_READ_FIELD: opening global file: land_grW_ini.mn.bin
(PID.TID 0000.0001)  MDS_READ_FIELD: opening global file: land_snw_ini.cpl.bin
(PID.TID 0000.0001) // =======================================================
(PID.TID 0000.0001) // Model current state
(PID.TID 0000.0001) // =======================================================
(PID.TID 0000.0001) 
(PID.TID 0000.0001) // =======================================================
(PID.TID 0000.0001) // Begin MONITOR dynamic field statistics
(PID.TID 0000.0001) // =======================================================
(PID.TID 0000.0001) %MON time_tsnumber                =                     0
(PID.TID 0000.0001) %MON time_secondsf                =   0.0000000000000E+00
(PID.TID 0000.0001) %MON dynstat_eta_max              =   0.0000000000000E+00
(PID.TID 0000.0001) %MON dynstat_eta_min              =   0.0000000000000E+00
(PID.TID 0000.0001) %MON dynstat_eta_mean             =   0.0000000000000E+00
(PID.TID 0000.0001) %MON dynstat_eta_sd               =   0.0000000000000E+00
(PID.TID 0000.0001) %MON dynstat_eta_del2             =   0.0000000000000E+00
(PID.TID 0000.0001) %MON dynstat_uvel_max             =   0.0000000000000E+00
(PID.TID 0000.0001) %MON dynstat_uvel_min             =   0.0000000000000E+00
(PID.TID 0000.0001) %MON dynstat_uvel_mean            =   0.0000000000000E+00
(PID.TID 0000.0001) %MON dynstat_uvel_sd              =   0.0000000000000E+00
(PID.TID 0000.0001) %MON dynstat_uvel_del2            =   0.0000000000000E+00
(PID.TID 0000.0001) %MON dynstat_vvel_max             =   0.0000000000000E+00
(PID.TID 0000.0001) %MON dynstat_vvel_min             =   0.0000000000000E+00
(PID.TID 0000.0001) %MON dynstat_vvel_mean            =   0.0000000000000E+00
(PID.TID 0000.0001) %MON dynstat_vvel_sd              =   0.0000000000000E+00
(PID.TID 0000.0001) %MON dynstat_vvel_del2            =   0.0000000000000E+00
(PID.TID 0000.0001) %MON dynstat_wvel_max             =   0.0000000000000E+00
(PID.TID 0000.0001) %MON dynstat_wvel_min             =   0.0000000000000E+00
(PID.TID 0000.0001) %MON dynstat_wvel_mean            =   0.0000000000000E+00
(PID.TID 0000.0001) %MON dynstat_wvel_sd              =   0.0000000000000E+00
(PID.TID 0000.0001) %MON dynstat_wvel_del2            =   0.0000000000000E+00
(PID.TID 0000.0001) %MON dynstat_theta_max            =   4.3740000000000E+02
(PID.TID 0000.0001) %MON dynstat_theta_min            =   2.8960000000000E+02
(PID.TID 0000.0001) %MON dynstat_theta_mean           =   3.3171566851928E+02
(PID.TID 0000.0001) %MON dynstat_theta_sd             =   4.7418367738381E+01
(PID.TID 0000.0001) %MON dynstat_theta_del2           =   0.0000000000000E+00
(PID.TID 0000.0001) %MON dynstat_salt_max             =   0.0000000000000E+00
(PID.TID 0000.0001) %MON dynstat_salt_min             =   0.0000000000000E+00
(PID.TID 0000.0001) %MON dynstat_salt_mean            =   0.0000000000000E+00
(PID.TID 0000.0001) %MON dynstat_salt_sd              =   0.0000000000000E+00
(PID.TID 0000.0001) %MON dynstat_salt_del2            =   0.0000000000000E+00
(PID.TID 0000.0001) %MON advcfl_uvel_max              =   0.0000000000000E+00
(PID.TID 0000.0001) %MON advcfl_vvel_max              =   0.0000000000000E+00
(PID.TID 0000.0001) %MON advcfl_wvel_max              =   0.0000000000000E+00
(PID.TID 0000.0001) %MON advcfl_W_hf_max              =   0.0000000000000E+00
(PID.TID 0000.0001) %MON pe_b_mean                    =   0.0000000000000E+00
(PID.TID 0000.0001) %MON ke_max                       =   0.0000000000000E+00
(PID.TID 0000.0001) %MON ke_mean                      =   0.0000000000000E+00
(PID.TID 0000.0001) %MON ke_vol                       =   4.9523908919847E+19
(PID.TID 0000.0001) %MON vort_r_min                   =   0.0000000000000E+00
(PID.TID 0000.0001) %MON vort_r_max                   =   0.0000000000000E+00
(PID.TID 0000.0001) %MON vort_a_mean                  =   6.7242814765318E-08
(PID.TID 0000.0001) %MON vort_a_sd                    =   8.3936822068631E-05
(PID.TID 0000.0001) %MON vort_p_mean                  =   6.8939448519602E-08
(PID.TID 0000.0001) %MON vort_p_sd                    =   9.1626513531368E-05
(PID.TID 0000.0001) %MON surfExpan_theta_mean         =   0.0000000000000E+00
(PID.TID 0000.0001) %MON surfExpan_salt_mean          =   0.0000000000000E+00
(PID.TID 0000.0001) %MON surfExpan_Heat_mean          =   0.0000000000000E+00
(PID.TID 0000.0001) %MON En_Budget_T2PE_mean          =   0.0000000000000E+00
(PID.TID 0000.0001) // =======================================================
(PID.TID 0000.0001) // End MONITOR dynamic field statistics
(PID.TID 0000.0001) // =======================================================
(PID.TID 0000.0001) // =======================================================
(PID.TID 0000.0001) // Begin MONITOR Land statistics
(PID.TID 0000.0001) // =======================================================
(PID.TID 0000.0001) %MON land_time_sec                =   0.0000000000000E+00
(PID.TID 0000.0001) %MON land_SnwH_ave_G              =   1.5327595968918E-01
(PID.TID 0000.0001) %MON land_SnwH_ave_S              =   5.5906277570341E-01
(PID.TID 0000.0001) %MON land_SnwH_ave_T              =   2.7405468051285E-07
(PID.TID 0000.0001) %MON land_SnwH_ave_N              =   1.2399418417812E-01
(PID.TID 0000.0001) %MON land_SnwH_max_S              =   1.0000000000000E+00
(PID.TID 0000.0001) %MON land_SnwH_max_T              =   7.7654719504950E-05
(PID.TID 0000.0001) %MON land_SnwH_max_N              =   1.0000000000000E+00
(PID.TID 0000.0001) %MON land_TotEnerg_G              =  -6.2318014275423E+21
(PID.TID 0000.0001) %MON land_TotEnerg_S              =  -4.9893442833974E+21
(PID.TID 0000.0001) %MON land_TotEnerg_T              =   7.3640891470528E+21
(PID.TID 0000.0001) %MON land_TotEnerg_N              =  -8.6065462911976E+21
(PID.TID 0000.0001) %MON land_Tsrf_ave_G              =  -2.5815959216687E+00
(PID.TID 0000.0001) %MON land_Tsrf_ave_S              =  -3.3132697963695E+00
(PID.TID 0000.0001) %MON land_Tsrf_ave_T              =   2.0149199094728E+01
(PID.TID 0000.0001) %MON land_Tsrf_ave_N              =  -1.7523201785581E+01
(PID.TID 0000.0001) %MON land_Tsrf_min_S              =  -3.8985871813098E+01
(PID.TID 0000.0001) %MON land_Tsrf_min_T              =  -8.0316451094858E+00
(PID.TID 0000.0001) %MON land_Tsrf_min_N              =  -5.5018877502675E+01
(PID.TID 0000.0001) %MON land_Tsrf_max_S              =   3.3608904510445E+01
(PID.TID 0000.0001) %MON land_Tsrf_max_T              =   3.7568273139015E+01
(PID.TID 0000.0001) %MON land_Tsrf_max_N              =   1.5686208531239E+01
(PID.TID 0000.0001) %MON land_Tgr1_ave_G              =  -2.5815959216687E+00
(PID.TID 0000.0001) %MON land_Tgr1_ave_S              =  -3.3132697963695E+00
(PID.TID 0000.0001) %MON land_Tgr1_ave_T              =   2.0149199094728E+01
(PID.TID 0000.0001) %MON land_Tgr1_ave_N              =  -1.7523201785581E+01
(PID.TID 0000.0001) %MON land_Tgr1_min_S              =  -3.8985871813098E+01
(PID.TID 0000.0001) %MON land_Tgr1_min_T              =  -8.0316451094858E+00
(PID.TID 0000.0001) %MON land_Tgr1_min_N              =  -5.5018877502675E+01
(PID.TID 0000.0001) %MON land_Tgr1_max_S              =   3.3608904510445E+01
(PID.TID 0000.0001) %MON land_Tgr1_max_T              =   3.7568273139015E+01
(PID.TID 0000.0001) %MON land_Tgr1_max_N              =   1.5686208531239E+01
(PID.TID 0000.0001) %MON land_Tgr2_ave_G              =   4.2075844789702E+00
(PID.TID 0000.0001) %MON land_Tgr2_ave_S              =  -1.8731900381715E+01
(PID.TID 0000.0001) %MON land_Tgr2_ave_T              =   2.2013117275370E+01
(PID.TID 0000.0001) %MON land_Tgr2_ave_N              =  -2.4099755438273E-01
(PID.TID 0000.0001) %MON land_Tgr2_min_S              =  -6.4762296561906E+01
(PID.TID 0000.0001) %MON land_Tgr2_min_T              =  -9.7051070040243E+00
(PID.TID 0000.0001) %MON land_Tgr2_min_N              =  -4.0193619391069E+01
(PID.TID 0000.0001) %MON land_Tgr2_max_S              =   2.3360008819708E+01
(PID.TID 0000.0001) %MON land_Tgr2_max_T              =   3.1360925912704E+01
(PID.TID 0000.0001) %MON land_Tgr2_max_N              =   2.9833038898793E+01
(PID.TID 0000.0001) %MON land_grdW_ave_G              =   4.8705004606900E-01
(PID.TID 0000.0001) %MON land_grdW_ave_S              =   3.0877764965169E-01
(PID.TID 0000.0001) %MON land_grdW_ave_T              =   5.6494425086260E-01
(PID.TID 0000.0001) %MON land_grdW_ave_N              =   4.9286506610416E-01
(PID.TID 0000.0001) %MON land_grdW_min_S              =   2.5944074829007E-02
(PID.TID 0000.0001) %MON land_grdW_min_T              =   0.0000000000000E+00
(PID.TID 0000.0001) %MON land_grdW_min_N              =   0.0000000000000E+00
(PID.TID 0000.0001) // =======================================================
(PID.TID 0000.0001) // End MONITOR Land statistics
(PID.TID 0000.0001) // =======================================================
(PID.TID 0000.0001) // =======================================================
(PID.TID 0000.0001) // Begin MONITOR Therm.SeaIce statistics
(PID.TID 0000.0001) // =======================================================
(PID.TID 0000.0001) %MON thSI_time_sec                =   0.0000000000000E+00
(PID.TID 0000.0001) %MON thSI_Ice_Area_G              =   0.0000000000000E+00
(PID.TID 0000.0001) %MON thSI_Ice_Area_S              =   0.0000000000000E+00
(PID.TID 0000.0001) %MON thSI_Ice_Area_N              =   0.0000000000000E+00
(PID.TID 0000.0001) %MON thSI_IceH_ave_G              =   0.0000000000000E+00
(PID.TID 0000.0001) %MON thSI_IceH_ave_S              =   0.0000000000000E+00
(PID.TID 0000.0001) %MON thSI_IceH_ave_N              =   0.0000000000000E+00
(PID.TID 0000.0001) %MON thSI_IceH_max_S              =   0.0000000000000E+00
(PID.TID 0000.0001) %MON thSI_IceH_max_N              =   0.0000000000000E+00
(PID.TID 0000.0001) %MON thSI_SnwH_ave_G              =   0.0000000000000E+00
(PID.TID 0000.0001) %MON thSI_SnwH_ave_S              =   0.0000000000000E+00
(PID.TID 0000.0001) %MON thSI_SnwH_ave_N              =   0.0000000000000E+00
(PID.TID 0000.0001) %MON thSI_SnwH_max_S              =   0.0000000000000E+00
(PID.TID 0000.0001) %MON thSI_SnwH_max_N              =   0.0000000000000E+00
(PID.TID 0000.0001) %MON thSI_TotEnerg_G              =   0.0000000000000E+00
(PID.TID 0000.0001) %MON thSI_Tsrf_ave_G              =   0.0000000000000E+00
(PID.TID 0000.0001) %MON thSI_Tsrf_ave_S              =   0.0000000000000E+00
(PID.TID 0000.0001) %MON thSI_Tsrf_ave_N              =   0.0000000000000E+00
(PID.TID 0000.0001) %MON thSI_Tsrf_min_S              =   0.0000000000000E+00
(PID.TID 0000.0001) %MON thSI_Tsrf_min_N              =   0.0000000000000E+00
(PID.TID 0000.0001) %MON thSI_Tsrf_max_S              =   0.0000000000000E+00
(PID.TID 0000.0001) %MON thSI_Tsrf_max_N              =   0.0000000000000E+00
(PID.TID 0000.0001) %MON thSI_Tic1_ave_G              =   0.0000000000000E+00
(PID.TID 0000.0001) %MON thSI_Tic1_ave_S              =   0.0000000000000E+00
(PID.TID 0000.0001) %MON thSI_Tic1_ave_N              =   0.0000000000000E+00
(PID.TID 0000.0001) %MON thSI_Tic1_min_S              =   0.0000000000000E+00
(PID.TID 0000.0001) %MON thSI_Tic1_min_N              =   0.0000000000000E+00
(PID.TID 0000.0001) %MON thSI_Tic1_max_S              =   0.0000000000000E+00
(PID.TID 0000.0001) %MON thSI_Tic1_max_N              =   0.0000000000000E+00
(PID.TID 0000.0001) %MON thSI_Tic2_ave_G              =   0.0000000000000E+00
(PID.TID 0000.0001) %MON thSI_Tic2_ave_S              =   0.0000000000000E+00
(PID.TID 0000.0001) %MON thSI_Tic2_ave_N              =   0.0000000000000E+00
(PID.TID 0000.0001) %MON thSI_Tic2_min_S              =   0.0000000000000E+00
(PID.TID 0000.0001) %MON thSI_Tic2_min_N              =   0.0000000000000E+00
(PID.TID 0000.0001) %MON thSI_Tic2_max_S              =   0.0000000000000E+00
(PID.TID 0000.0001) %MON thSI_Tic2_max_N              =   0.0000000000000E+00
(PID.TID 0000.0001) // =======================================================
(PID.TID 0000.0001) // End MONITOR Therm.SeaIce statistics
(PID.TID 0000.0001) // =======================================================
(PID.TID 0000.0001)  MDS_READ_FIELD: opening global file: albedo_cs32.bin
(PID.TID 0000.0001)  MDS_READ_FIELD: opening global file: vegetFrc.cpl_FM.bin
(PID.TID 0000.0001)  MDS_READ_FIELD: opening global file: seaSurfT.cpl_FM.bin
(PID.TID 0000.0001)  MDS_READ_FIELD: opening global file: seaSurfT.cpl_FM.bin
(PID.TID 0000.0001)  MDS_READ_FIELD: opening global file: lndSurfT.cpl_FM.bin
(PID.TID 0000.0001)  MDS_READ_FIELD: opening global file: lndSurfT.cpl_FM.bin
(PID.TID 0000.0001)  MDS_READ_FIELD: opening global file: seaIce.cpl3FM.bin
(PID.TID 0000.0001)  MDS_READ_FIELD: opening global file: seaIce.cpl3FM.bin
(PID.TID 0000.0001)  MDS_READ_FIELD: opening global file: snowDepth.cpl_FM.bin
(PID.TID 0000.0001)  MDS_READ_FIELD: opening global file: snowDepth.cpl_FM.bin
(PID.TID 0000.0001)  MDS_READ_FIELD: opening global file: soilMoist.cpl_FM.bin
(PID.TID 0000.0001)  MDS_READ_FIELD: opening global file: soilMoist.cpl_FM.bin
(PID.TID 0000.0001)  MDS_READ_FIELD: opening global file: soilMoist.cpl_FM.bin
(PID.TID 0000.0001)  MDS_READ_FIELD: opening global file: soilMoist.cpl_FM.bin
 cg2d: Sum(rhs),rhsMax =   3.97903932025656E-12  4.56406615217961E+03
(PID.TID 0000.0001)                    cg2d_init_res =    2.69435642942126E+04
(PID.TID 0000.0001)                       cg2d_iters =    16
(PID.TID 0000.0001)                         cg2d_res =    1.06445831620481E-10
(PID.TID 0000.0001) // =======================================================
(PID.TID 0000.0001) // Begin MONITOR dynamic field statistics
(PID.TID 0000.0001) // =======================================================
(PID.TID 0000.0001) %MON time_tsnumber                =                     1
(PID.TID 0000.0001) %MON time_secondsf                =   4.5000000000000E+02
(PID.TID 0000.0001) %MON dynstat_eta_max              =   4.9613836014184E+02
(PID.TID 0000.0001) %MON dynstat_eta_min              =  -4.3215362210608E+02
(PID.TID 0000.0001) %MON dynstat_eta_mean             =  -5.2166645138552E-17
(PID.TID 0000.0001) %MON dynstat_eta_sd               =   4.9165804759269E+01
(PID.TID 0000.0001) %MON dynstat_eta_del2             =   1.4268407331310E+01
(PID.TID 0000.0001) %MON dynstat_uvel_max             =   3.4896271935293E+00
(PID.TID 0000.0001) %MON dynstat_uvel_min             =  -2.8043477370503E+00
(PID.TID 0000.0001) %MON dynstat_uvel_mean            =  -8.6186344161884E-04
(PID.TID 0000.0001) %MON dynstat_uvel_sd              =   2.3938982710456E-01
(PID.TID 0000.0001) %MON dynstat_uvel_del2            =   3.3130023277177E-02
(PID.TID 0000.0001) %MON dynstat_vvel_max             =   3.6044902563287E+00
(PID.TID 0000.0001) %MON dynstat_vvel_min             =  -3.8832729647589E+00
(PID.TID 0000.0001) %MON dynstat_vvel_mean            =   1.0770655299200E-03
(PID.TID 0000.0001) %MON dynstat_vvel_sd              =   2.3140373950851E-01
(PID.TID 0000.0001) %MON dynstat_vvel_del2            =   3.3576370990052E-02
(PID.TID 0000.0001) %MON dynstat_wvel_max             =   4.7528267180664E-02
(PID.TID 0000.0001) %MON dynstat_wvel_min             =  -3.2491026139051E-01
(PID.TID 0000.0001) %MON dynstat_wvel_mean            =  -1.2601788696702E-03
(PID.TID 0000.0001) %MON dynstat_wvel_sd              =   1.0323039191429E-02
(PID.TID 0000.0001) %MON dynstat_wvel_del2            =   1.1364719435226E-03
(PID.TID 0000.0001) %MON dynstat_theta_max            =   4.3742421279788E+02
(PID.TID 0000.0001) %MON dynstat_theta_min            =   2.8934446142054E+02
(PID.TID 0000.0001) %MON dynstat_theta_mean           =   3.3171676172326E+02
(PID.TID 0000.0001) %MON dynstat_theta_sd             =   4.7417133656499E+01
(PID.TID 0000.0001) %MON dynstat_theta_del2           =   1.8580024936099E-03
(PID.TID 0000.0001) %MON dynstat_salt_max             =   4.8330616477211E-01
(PID.TID 0000.0001) %MON dynstat_salt_min             =  -3.6263106967984E-03
(PID.TID 0000.0001) %MON dynstat_salt_mean            =   4.0262311598958E-03
(PID.TID 0000.0001) %MON dynstat_salt_sd              =   1.7723624218200E-02
(PID.TID 0000.0001) %MON dynstat_salt_del2            =   7.7663633143347E-04
(PID.TID 0000.0001) %MON advcfl_uvel_max              =   5.0093339770585E-03
(PID.TID 0000.0001) %MON advcfl_vvel_max              =   5.5233695889847E-03
(PID.TID 0000.0001) %MON advcfl_wvel_max              =   5.3167133682084E-03
(PID.TID 0000.0001) %MON advcfl_W_hf_max              =   1.3330281514811E-02
(PID.TID 0000.0001) %MON pe_b_mean                    =  -1.2347200430462E-01
(PID.TID 0000.0001) %MON ke_max                       =   6.1065189290563E+00
(PID.TID 0000.0001) %MON ke_mean                      =   5.5101768014871E-02
(PID.TID 0000.0001) %MON ke_vol                       =   4.9523908919847E+19
(PID.TID 0000.0001) %MON vort_r_min                   =  -9.4580139346488E-06
(PID.TID 0000.0001) %MON vort_r_max                   =   7.4909088464658E-06
(PID.TID 0000.0001) %MON vort_a_mean                  =   6.7242814765328E-08
(PID.TID 0000.0001) %MON vort_a_sd                    =   8.3936940089773E-05
(PID.TID 0000.0001) %MON vort_p_mean                  =   6.8939448519615E-08
(PID.TID 0000.0001) %MON vort_p_sd                    =   9.1622197174781E-05
(PID.TID 0000.0001) %MON surfExpan_theta_mean         =   1.1973318489192E-01
(PID.TID 0000.0001) %MON surfExpan_salt_mean          =   8.6085474370720E-07
(PID.TID 0000.0001) %MON surfExpan_Heat_mean          =  -9.8253401830277E+00
(PID.TID 0000.0001) %MON En_Budget_T2PE_mean          =   1.8746049275873E+01
(PID.TID 0000.0001) // =======================================================
(PID.TID 0000.0001) // End MONITOR dynamic field statistics
(PID.TID 0000.0001) // =======================================================
(PID.TID 0000.0001) // =======================================================
(PID.TID 0000.0001) // Begin MONITOR Land statistics
(PID.TID 0000.0001) // =======================================================
(PID.TID 0000.0001) %MON land_time_sec                =   4.5000000000000E+02
(PID.TID 0000.0001) %MON land_SnwH_ave_G              =   1.5324899397338E-01
(PID.TID 0000.0001) %MON land_SnwH_ave_S              =   5.5906218965844E-01
(PID.TID 0000.0001) %MON land_SnwH_ave_T              =   0.0000000000000E+00
(PID.TID 0000.0001) %MON land_SnwH_ave_N              =   1.2394083715153E-01
(PID.TID 0000.0001) %MON land_SnwH_max_S              =   9.9999995109566E-01
(PID.TID 0000.0001) %MON land_SnwH_max_T              =   0.0000000000000E+00
(PID.TID 0000.0001) %MON land_SnwH_max_N              =   9.9999994050054E-01
(PID.TID 0000.0001) %MON LAND : Area= 1.460176263E+14 ; Lat sep= -24.00  24.00
(PID.TID 0000.0001) %MON LAND : LatA= 2.377676559E+13 4.894489218E+13 7.329596851E+13
(PID.TID 0000.0001) %MON land_TotEnerg_G              =  -6.2449515374219E+21
(PID.TID 0000.0001) %MON land_TotEnerg_S              =  -4.9909822313117E+21
(PID.TID 0000.0001) %MON land_TotEnerg_T              =   7.3535791679035E+21
(PID.TID 0000.0001) %MON land_TotEnerg_N              =  -8.6075484740138E+21
(PID.TID 0000.0001) %MON land_Tsrf_ave_G              =  -4.5052770691886E+00
(PID.TID 0000.0001) %MON land_Tsrf_ave_S              =  -4.8557437392646E+00
(PID.TID 0000.0001) %MON land_Tsrf_ave_T              =   1.8966286014486E+01
(PID.TID 0000.0001) %MON land_Tsrf_ave_N              =  -2.0065207357261E+01
(PID.TID 0000.0001) %MON land_Tsrf_min_S              =  -3.4789766254951E+01
(PID.TID 0000.0001) %MON land_Tsrf_min_T              =  -7.7792666782447E+00
(PID.TID 0000.0001) %MON land_Tsrf_min_N              =  -5.2214355600519E+01
(PID.TID 0000.0001) %MON land_Tsrf_max_S              =   3.1948450259187E+01
(PID.TID 0000.0001) %MON land_Tsrf_max_T              =   3.5749274328408E+01
(PID.TID 0000.0001) %MON land_Tsrf_max_N              =   1.5372300088674E+01
(PID.TID 0000.0001) %MON land_Tgr1_ave_G              =  -3.1128744327563E+00
(PID.TID 0000.0001) %MON land_Tgr1_ave_S              =  -3.7817603349593E+00
(PID.TID 0000.0001) %MON land_Tgr1_ave_T              =   1.8966286014486E+01
(PID.TID 0000.0001) %MON land_Tgr1_ave_N              =  -1.7639705931337E+01
(PID.TID 0000.0001) %MON land_Tgr1_min_S              =  -3.8998400972344E+01
(PID.TID 0000.0001) %MON land_Tgr1_min_T              =  -7.7792666782447E+00
(PID.TID 0000.0001) %MON land_Tgr1_min_N              =  -5.5006040010541E+01
(PID.TID 0000.0001) %MON land_Tgr1_max_S              =   3.1948450259187E+01
(PID.TID 0000.0001) %MON land_Tgr1_max_T              =   3.5749274328408E+01
(PID.TID 0000.0001) %MON land_Tgr1_max_N              =   1.5372300088674E+01
(PID.TID 0000.0001) %MON land_Tgr2_ave_G              =   4.2074719542915E+00
(PID.TID 0000.0001) %MON land_Tgr2_ave_S              =  -1.8731652801597E+01
(PID.TID 0000.0001) %MON land_Tgr2_ave_T              =   2.2013064780622E+01
(PID.TID 0000.0001) %MON land_Tgr2_ave_N              =  -2.4126698108521E-01
(PID.TID 0000.0001) %MON land_Tgr2_min_S              =  -6.4761861869264E+01
(PID.TID 0000.0001) %MON land_Tgr2_min_T              =  -9.7050826694738E+00
(PID.TID 0000.0001) %MON land_Tgr2_min_N              =  -4.0193860864839E+01
(PID.TID 0000.0001) %MON land_Tgr2_max_S              =   2.3360154761154E+01
(PID.TID 0000.0001) %MON land_Tgr2_max_T              =   3.1360681941136E+01
(PID.TID 0000.0001) %MON land_Tgr2_max_N              =   2.9832408494537E+01
(PID.TID 0000.0001) %MON land_grdW_ave_G              =   4.8703719987843E-01
(PID.TID 0000.0001) %MON land_grdW_ave_S              =   3.0876198463413E-01
(PID.TID 0000.0001) %MON land_grdW_ave_T              =   5.6488810374958E-01
(PID.TID 0000.0001) %MON land_grdW_ave_N              =   4.9288204940644E-01
(PID.TID 0000.0001) %MON land_grdW_min_S              =   2.5934335757901E-02
(PID.TID 0000.0001) %MON land_grdW_min_T              =   0.0000000000000E+00
(PID.TID 0000.0001) %MON land_grdW_min_N              =   0.0000000000000E+00
(PID.TID 0000.0001) // =======================================================
(PID.TID 0000.0001) // End MONITOR Land statistics
(PID.TID 0000.0001) // =======================================================
(PID.TID 0000.0001) // =======================================================
(PID.TID 0000.0001) // Begin MONITOR Therm.SeaIce statistics
(PID.TID 0000.0001) // =======================================================
(PID.TID 0000.0001) %MON thSI_time_sec                =   4.5000000000000E+02
(PID.TID 0000.0001) %MON thSI_Ice_Area_G              =   1.4228206176723E+10
(PID.TID 0000.0001) %MON thSI_Ice_Area_S              =   0.0000000000000E+00
(PID.TID 0000.0001) %MON thSI_Ice_Area_N              =   1.4228206176723E+10
(PID.TID 0000.0001) %MON thSI_IceH_ave_G              =   1.0000000000000E-01
(PID.TID 0000.0001) %MON thSI_IceH_ave_S              =   0.0000000000000E+00
(PID.TID 0000.0001) %MON thSI_IceH_ave_N              =   1.0000000000000E-01
(PID.TID 0000.0001) %MON thSI_IceH_max_S              =   0.0000000000000E+00
(PID.TID 0000.0001) %MON thSI_IceH_max_N              =   1.0000000000000E-01
(PID.TID 0000.0001) %MON thSI_SnwH_ave_G              =   0.0000000000000E+00
(PID.TID 0000.0001) %MON thSI_SnwH_ave_S              =   0.0000000000000E+00
(PID.TID 0000.0001) %MON thSI_SnwH_ave_N              =   0.0000000000000E+00
(PID.TID 0000.0001) %MON thSI_SnwH_max_S              =   0.0000000000000E+00
(PID.TID 0000.0001) %MON thSI_SnwH_max_N              =   0.0000000000000E+00
(PID.TID 0000.0001) %MON thSI_TotEnerg_G              =  -4.2531549312148E+17
(PID.TID 0000.0001) %MON thSI_Tsrf_ave_G              =  -1.6648040993130E+00
(PID.TID 0000.0001) %MON thSI_Tsrf_ave_S              =   0.0000000000000E+00
(PID.TID 0000.0001) %MON thSI_Tsrf_ave_N              =  -1.6648040993130E+00
(PID.TID 0000.0001) %MON thSI_Tsrf_min_S              =   0.0000000000000E+00
(PID.TID 0000.0001) %MON thSI_Tsrf_min_N              =  -1.7019828369658E+00
(PID.TID 0000.0001) %MON thSI_Tsrf_max_S              =   0.0000000000000E+00
(PID.TID 0000.0001) %MON thSI_Tsrf_max_N              =  -1.6162307215484E+00
(PID.TID 0000.0001) %MON thSI_Tic1_ave_G              =  -1.6648040993130E+00
(PID.TID 0000.0001) %MON thSI_Tic1_ave_S              =   0.0000000000000E+00
(PID.TID 0000.0001) %MON thSI_Tic1_ave_N              =  -1.6648040993130E+00
(PID.TID 0000.0001) %MON thSI_Tic1_min_S              =   0.0000000000000E+00
(PID.TID 0000.0001) %MON thSI_Tic1_min_N              =  -1.7019828369658E+00
(PID.TID 0000.0001) %MON thSI_Tic1_max_S              =   0.0000000000000E+00
(PID.TID 0000.0001) %MON thSI_Tic1_max_N              =  -1.6162307215484E+00
(PID.TID 0000.0001) %MON thSI_Tic2_ave_G              =  -1.6648040993130E+00
(PID.TID 0000.0001) %MON thSI_Tic2_ave_S              =   0.0000000000000E+00
(PID.TID 0000.0001) %MON thSI_Tic2_ave_N              =  -1.6648040993130E+00
(PID.TID 0000.0001) %MON thSI_Tic2_min_S              =   0.0000000000000E+00
(PID.TID 0000.0001) %MON thSI_Tic2_min_N              =  -1.7019828369658E+00
(PID.TID 0000.0001) %MON thSI_Tic2_max_S              =   0.0000000000000E+00
(PID.TID 0000.0001) %MON thSI_Tic2_max_N              =  -1.6162307215484E+00
(PID.TID 0000.0001) // =======================================================
(PID.TID 0000.0001) // End MONITOR Therm.SeaIce statistics
(PID.TID 0000.0001) // =======================================================
 cg2d: Sum(rhs),rhsMax =  -1.00612851383630E-11  9.58133938764946E+03
(PID.TID 0000.0001)                    cg2d_init_res =    3.46523975247678E+04
(PID.TID 0000.0001)                       cg2d_iters =    17
(PID.TID 0000.0001)                         cg2d_res =    1.39031813142455E-11
(PID.TID 0000.0001) // =======================================================
(PID.TID 0000.0001) // Begin MONITOR dynamic field statistics
(PID.TID 0000.0001) // =======================================================
(PID.TID 0000.0001) %MON time_tsnumber                =                     2
(PID.TID 0000.0001) %MON time_secondsf                =   9.0000000000000E+02
(PID.TID 0000.0001) %MON dynstat_eta_max              =   1.0853914163580E+03
(PID.TID 0000.0001) %MON dynstat_eta_min              =  -1.0760016672715E+03
(PID.TID 0000.0001) %MON dynstat_eta_mean             =  -1.5532324417193E-16
(PID.TID 0000.0001) %MON dynstat_eta_sd               =   1.1831655799719E+02
(PID.TID 0000.0001) %MON dynstat_eta_del2             =   2.9872886790151E+01
(PID.TID 0000.0001) %MON dynstat_uvel_max             =   5.5539509422153E+00
(PID.TID 0000.0001) %MON dynstat_uvel_min             =  -4.8926215391332E+00
(PID.TID 0000.0001) %MON dynstat_uvel_mean            =  -1.7287037237750E-03
(PID.TID 0000.0001) %MON dynstat_uvel_sd              =   4.1490358966983E-01
(PID.TID 0000.0001) %MON dynstat_uvel_del2            =   4.0980475224547E-02
(PID.TID 0000.0001) %MON dynstat_vvel_max             =   5.9068742128278E+00
(PID.TID 0000.0001) %MON dynstat_vvel_min             =  -6.6426715003767E+00
(PID.TID 0000.0001) %MON dynstat_vvel_mean            =   2.2390642620045E-03
(PID.TID 0000.0001) %MON dynstat_vvel_sd              =   3.9224223481705E-01
(PID.TID 0000.0001) %MON dynstat_vvel_del2            =   4.1445142070960E-02
(PID.TID 0000.0001) %MON dynstat_wvel_max             =   6.4868391740251E-02
(PID.TID 0000.0001) %MON dynstat_wvel_min             =  -5.1947617889938E-01
(PID.TID 0000.0001) %MON dynstat_wvel_mean            =  -2.0758535150083E-03
(PID.TID 0000.0001) %MON dynstat_wvel_sd              =   1.6609473936638E-02
(PID.TID 0000.0001) %MON dynstat_wvel_del2            =   1.6510604918019E-03
(PID.TID 0000.0001) %MON dynstat_theta_max            =   4.3746525698884E+02
(PID.TID 0000.0001) %MON dynstat_theta_min            =   2.8908988169716E+02
(PID.TID 0000.0001) %MON dynstat_theta_mean           =   3.3171699700068E+02
(PID.TID 0000.0001) %MON dynstat_theta_sd             =   4.7416616094142E+01
(PID.TID 0000.0001) %MON dynstat_theta_del2           =   3.8019475617308E-03
(PID.TID 0000.0001) %MON dynstat_salt_max             =   9.1989086885272E-01
(PID.TID 0000.0001) %MON dynstat_salt_min             =  -2.9723583702825E-03
(PID.TID 0000.0001) %MON dynstat_salt_mean            =   7.9943952217067E-03
(PID.TID 0000.0001) %MON dynstat_salt_sd              =   3.4968210277791E-02
(PID.TID 0000.0001) %MON dynstat_salt_del2            =   1.4851476420819E-03
(PID.TID 0000.0001) %MON advcfl_uvel_max              =   7.9726554209985E-03
(PID.TID 0000.0001) %MON advcfl_vvel_max              =   9.4481974581135E-03
(PID.TID 0000.0001) %MON advcfl_wvel_max              =   8.5005192910808E-03
(PID.TID 0000.0001) %MON advcfl_W_hf_max              =   2.1179740636076E-02
(PID.TID 0000.0001) %MON pe_b_mean                    =  -2.8685682105793E-01
(PID.TID 0000.0001) %MON ke_max                       =   1.6262340343151E+01
(PID.TID 0000.0001) %MON ke_mean                      =   1.6204269927506E-01
(PID.TID 0000.0001) %MON ke_vol                       =   4.9523908919847E+19
(PID.TID 0000.0001) %MON vort_r_min                   =  -1.6353943411386E-05
(PID.TID 0000.0001) %MON vort_r_max                   =   1.1012625086235E-05
(PID.TID 0000.0001) %MON vort_a_mean                  =   6.7242814765345E-08
(PID.TID 0000.0001) %MON vort_a_sd                    =   8.3937541614152E-05
(PID.TID 0000.0001) %MON vort_p_mean                  =   6.8939448374251E-08
(PID.TID 0000.0001) %MON vort_p_sd                    =   9.1637371190803E-05
(PID.TID 0000.0001) %MON surfExpan_theta_mean         =   1.9851910159159E-01
(PID.TID 0000.0001) %MON surfExpan_salt_mean          =   1.7496736592385E-06
(PID.TID 0000.0001) %MON surfExpan_Heat_mean          =  -1.6220504518153E+01
(PID.TID 0000.0001) %MON En_Budget_T2PE_mean          =   3.0984361187958E+01
(PID.TID 0000.0001) // =======================================================
(PID.TID 0000.0001) // End MONITOR dynamic field statistics
(PID.TID 0000.0001) // =======================================================
(PID.TID 0000.0001) // =======================================================
(PID.TID 0000.0001) // Begin MONITOR Land statistics
(PID.TID 0000.0001) // =======================================================
(PID.TID 0000.0001) %MON land_time_sec                =   9.0000000000000E+02
(PID.TID 0000.0001) %MON land_SnwH_ave_G              =   1.5324757180228E-01
(PID.TID 0000.0001) %MON land_SnwH_ave_S              =   5.5906150893174E-01
(PID.TID 0000.0001) %MON land_SnwH_ave_T              =   0.0000000000000E+00
(PID.TID 0000.0001) %MON land_SnwH_ave_N              =   1.2393822477635E-01
(PID.TID 0000.0001) %MON land_SnwH_max_S              =   9.9999903262772E-01
(PID.TID 0000.0001) %MON land_SnwH_max_T              =   0.0000000000000E+00
(PID.TID 0000.0001) %MON land_SnwH_max_N              =   9.9999987508519E-01
(PID.TID 0000.0001) %MON land_TotEnerg_G              =  -6.2564815953304E+21
(PID.TID 0000.0001) %MON land_TotEnerg_S              =  -4.9923928132787E+21
(PID.TID 0000.0001) %MON land_TotEnerg_T              =   7.3445863805968E+21
(PID.TID 0000.0001) %MON land_TotEnerg_N              =  -8.6086751626486E+21
(PID.TID 0000.0001) %MON land_Tsrf_ave_G              =  -5.0729778646852E+00
(PID.TID 0000.0001) %MON land_Tsrf_ave_S              =  -5.5210828801944E+00
(PID.TID 0000.0001) %MON land_Tsrf_ave_T              =   1.7948308537027E+01
(PID.TID 0000.0001) %MON land_Tsrf_ave_N              =  -2.0300553342615E+01
(PID.TID 0000.0001) %MON land_Tsrf_min_S              =  -3.4815105324779E+01
(PID.TID 0000.0001) %MON land_Tsrf_min_T              =  -7.5297669213811E+00
(PID.TID 0000.0001) %MON land_Tsrf_min_N              =  -5.1963151923798E+01
(PID.TID 0000.0001) %MON land_Tsrf_max_S              =   3.0526187593677E+01
(PID.TID 0000.0001) %MON land_Tsrf_max_T              =   3.4123617405344E+01
(PID.TID 0000.0001) %MON land_Tsrf_max_N              =   1.4714652401307E+01
(PID.TID 0000.0001) %MON land_Tgr1_ave_G              =  -3.5654986475994E+00
(PID.TID 0000.0001) %MON land_Tgr1_ave_S              =  -4.1884732916978E+00
(PID.TID 0000.0001) %MON land_Tgr1_ave_T              =   1.7948308537027E+01
(PID.TID 0000.0001) %MON land_Tgr1_ave_N              =  -1.7729697196547E+01
(PID.TID 0000.0001) %MON land_Tgr1_min_S              =  -3.9010948749135E+01
(PID.TID 0000.0001) %MON land_Tgr1_min_T              =  -7.5297669213811E+00
(PID.TID 0000.0001) %MON land_Tgr1_min_N              =  -5.4992979126802E+01
(PID.TID 0000.0001) %MON land_Tgr1_max_S              =   3.0526187593677E+01
(PID.TID 0000.0001) %MON land_Tgr1_max_T              =   3.4123617405344E+01
(PID.TID 0000.0001) %MON land_Tgr1_max_N              =   1.4714652401307E+01
(PID.TID 0000.0001) %MON land_Tgr2_ave_G              =   4.2073557436843E+00
(PID.TID 0000.0001) %MON land_Tgr2_ave_S              =  -1.8731411682894E+01
(PID.TID 0000.0001) %MON land_Tgr2_ave_T              =   2.2012996564054E+01
(PID.TID 0000.0001) %MON land_Tgr2_ave_N              =  -2.4153115615139E-01
(PID.TID 0000.0001) %MON land_Tgr2_min_S              =  -6.4761427410580E+01
(PID.TID 0000.0001) %MON land_Tgr2_min_T              =  -9.7050551832179E+00
(PID.TID 0000.0001) %MON land_Tgr2_min_N              =  -4.0194102086638E+01
(PID.TID 0000.0001) %MON land_Tgr2_max_S              =   2.3360276042917E+01
(PID.TID 0000.0001) %MON land_Tgr2_max_T              =   3.1360419768010E+01
(PID.TID 0000.0001) %MON land_Tgr2_max_N              =   2.9832066072851E+01
(PID.TID 0000.0001) %MON land_grdW_ave_G              =   4.8701735000251E-01
(PID.TID 0000.0001) %MON land_grdW_ave_S              =   3.0874741400518E-01
(PID.TID 0000.0001) %MON land_grdW_ave_T              =   5.6483645251108E-01
(PID.TID 0000.0001) %MON land_grdW_ave_N              =   4.9288172298963E-01
(PID.TID 0000.0001) %MON land_grdW_min_S              =   2.5938631412469E-02
(PID.TID 0000.0001) %MON land_grdW_min_T              =   0.0000000000000E+00
(PID.TID 0000.0001) %MON land_grdW_min_N              =   0.0000000000000E+00
(PID.TID 0000.0001) // =======================================================
(PID.TID 0000.0001) // End MONITOR Land statistics
(PID.TID 0000.0001) // =======================================================
(PID.TID 0000.0001) // =======================================================
(PID.TID 0000.0001) // Begin MONITOR Therm.SeaIce statistics
(PID.TID 0000.0001) // =======================================================
(PID.TID 0000.0001) %MON thSI_time_sec                =   9.0000000000000E+02
(PID.TID 0000.0001) %MON thSI_Ice_Area_G              =   2.7746328336626E+10
(PID.TID 0000.0001) %MON thSI_Ice_Area_S              =   0.0000000000000E+00
(PID.TID 0000.0001) %MON thSI_Ice_Area_N              =   2.7746328336626E+10
(PID.TID 0000.0001) %MON thSI_IceH_ave_G              =   1.0238174705879E-01
(PID.TID 0000.0001) %MON thSI_IceH_ave_S              =   0.0000000000000E+00
(PID.TID 0000.0001) %MON thSI_IceH_ave_N              =   1.0238174705879E-01
(PID.TID 0000.0001) %MON thSI_IceH_max_S              =   0.0000000000000E+00
(PID.TID 0000.0001) %MON thSI_IceH_max_N              =   1.0298625601109E-01
(PID.TID 0000.0001) %MON thSI_SnwH_ave_G              =   0.0000000000000E+00
(PID.TID 0000.0001) %MON thSI_SnwH_ave_S              =   0.0000000000000E+00
(PID.TID 0000.0001) %MON thSI_SnwH_ave_N              =   0.0000000000000E+00
(PID.TID 0000.0001) %MON thSI_SnwH_max_S              =   0.0000000000000E+00
(PID.TID 0000.0001) %MON thSI_SnwH_max_N              =   0.0000000000000E+00
(PID.TID 0000.0001) %MON thSI_TotEnerg_G              =  -8.5185611162644E+17
(PID.TID 0000.0001) %MON thSI_Tsrf_ave_G              =  -4.2744947711150E+00
(PID.TID 0000.0001) %MON thSI_Tsrf_ave_S              =   0.0000000000000E+00
(PID.TID 0000.0001) %MON thSI_Tsrf_ave_N              =  -4.2744947711150E+00
(PID.TID 0000.0001) %MON thSI_Tsrf_min_S              =   0.0000000000000E+00
(PID.TID 0000.0001) %MON thSI_Tsrf_min_N              =  -4.3153550678667E+00
(PID.TID 0000.0001) %MON thSI_Tsrf_max_S              =   0.0000000000000E+00
(PID.TID 0000.0001) %MON thSI_Tsrf_max_N              =  -4.2209527584233E+00
(PID.TID 0000.0001) %MON thSI_Tic1_ave_G              =  -1.9009253651304E+00
(PID.TID 0000.0001) %MON thSI_Tic1_ave_S              =   0.0000000000000E+00
(PID.TID 0000.0001) %MON thSI_Tic1_ave_N              =  -1.9009253651304E+00
(PID.TID 0000.0001) %MON thSI_Tic1_min_S              =   0.0000000000000E+00
(PID.TID 0000.0001) %MON thSI_Tic1_min_N              =  -1.9452830897484E+00
(PID.TID 0000.0001) %MON thSI_Tic1_max_S              =   0.0000000000000E+00
(PID.TID 0000.0001) %MON thSI_Tic1_max_N              =  -1.8429323090860E+00
(PID.TID 0000.0001) %MON thSI_Tic2_ave_G              =  -1.6936451784549E+00
(PID.TID 0000.0001) %MON thSI_Tic2_ave_S              =   0.0000000000000E+00
(PID.TID 0000.0001) %MON thSI_Tic2_ave_N              =  -1.6936451784549E+00
(PID.TID 0000.0001) %MON thSI_Tic2_min_S              =   0.0000000000000E+00
(PID.TID 0000.0001) %MON thSI_Tic2_min_N              =  -1.7317000158556E+00
(PID.TID 0000.0001) %MON thSI_Tic2_max_S              =   0.0000000000000E+00
(PID.TID 0000.0001) %MON thSI_Tic2_max_N              =  -1.6439205063078E+00
(PID.TID 0000.0001) // =======================================================
(PID.TID 0000.0001) // End MONITOR Therm.SeaIce statistics
(PID.TID 0000.0001) // =======================================================
 cg2d: Sum(rhs),rhsMax =   1.37561073643155E-11  1.30306870138184E+04
(PID.TID 0000.0001)                    cg2d_init_res =    3.21684520880119E+04
(PID.TID 0000.0001)                       cg2d_iters =    17
(PID.TID 0000.0001)                         cg2d_res =    1.32086573932420E-11
(PID.TID 0000.0001) // =======================================================
(PID.TID 0000.0001) // Begin MONITOR dynamic field statistics
(PID.TID 0000.0001) // =======================================================
(PID.TID 0000.0001) %MON time_tsnumber                =                     3
(PID.TID 0000.0001) %MON time_secondsf                =   1.3500000000000E+03
(PID.TID 0000.0001) %MON dynstat_eta_max              =   1.7332625812134E+03
(PID.TID 0000.0001) %MON dynstat_eta_min              =  -1.7700751364913E+03
(PID.TID 0000.0001) %MON dynstat_eta_mean             =   3.8595472794237E-16
(PID.TID 0000.0001) %MON dynstat_eta_sd               =   1.8802154813069E+02
(PID.TID 0000.0001) %MON dynstat_eta_del2             =   4.0442946173130E+01
(PID.TID 0000.0001) %MON dynstat_uvel_max             =   6.2749001149311E+00
(PID.TID 0000.0001) %MON dynstat_uvel_min             =  -6.2705267002895E+00
(PID.TID 0000.0001) %MON dynstat_uvel_mean            =  -2.5947660136463E-03
(PID.TID 0000.0001) %MON dynstat_uvel_sd              =   5.3869417682312E-01
(PID.TID 0000.0001) %MON dynstat_uvel_del2            =   3.5257904711303E-02
(PID.TID 0000.0001) %MON dynstat_vvel_max             =   7.0884917509192E+00
(PID.TID 0000.0001) %MON dynstat_vvel_min             =  -8.1797510858002E+00
(PID.TID 0000.0001) %MON dynstat_vvel_mean            =   3.4220990469542E-03
(PID.TID 0000.0001) %MON dynstat_vvel_sd              =   5.0059678289337E-01
(PID.TID 0000.0001) %MON dynstat_vvel_del2            =   3.5417933357962E-02
(PID.TID 0000.0001) %MON dynstat_wvel_max             =   5.9167689436665E-02
(PID.TID 0000.0001) %MON dynstat_wvel_min             =  -6.0037827800718E-01
(PID.TID 0000.0001) %MON dynstat_wvel_mean            =  -2.4816067791425E-03
(PID.TID 0000.0001) %MON dynstat_wvel_sd              =   1.9350993305916E-02
(PID.TID 0000.0001) %MON dynstat_wvel_del2            =   1.7155085002098E-03
(PID.TID 0000.0001) %MON dynstat_theta_max            =   4.3749846667035E+02
(PID.TID 0000.0001) %MON dynstat_theta_min            =   2.8883949680218E+02
(PID.TID 0000.0001) %MON dynstat_theta_mean           =   3.3171692036135E+02
(PID.TID 0000.0001) %MON dynstat_theta_sd             =   4.7416684883044E+01
(PID.TID 0000.0001) %MON dynstat_theta_del2           =   5.4079376553540E-03
(PID.TID 0000.0001) %MON dynstat_salt_max             =   1.2942924751153E+00
(PID.TID 0000.0001) %MON dynstat_salt_min             =  -2.2927478100649E-03
(PID.TID 0000.0001) %MON dynstat_salt_mean            =   1.1907482223365E-02
(PID.TID 0000.0001) %MON dynstat_salt_sd              =   5.1818121884461E-02
(PID.TID 0000.0001) %MON dynstat_salt_del2            =   2.1443312476840E-03
(PID.TID 0000.0001) %MON advcfl_uvel_max              =   9.0075726159681E-03
(PID.TID 0000.0001) %MON advcfl_vvel_max              =   1.1634461136980E-02
(PID.TID 0000.0001) %MON advcfl_wvel_max              =   9.8243718219357E-03
(PID.TID 0000.0001) %MON advcfl_W_hf_max              =   2.4448906399935E-02
(PID.TID 0000.0001) %MON pe_b_mean                    =  -4.4124506129157E-01
(PID.TID 0000.0001) %MON ke_max                       =   2.3381143328874E+01
(PID.TID 0000.0001) %MON ke_mean                      =   2.6880972714189E-01
(PID.TID 0000.0001) %MON ke_vol                       =   4.9523908919847E+19
(PID.TID 0000.0001) %MON vort_r_min                   =  -2.0637169891949E-05
(PID.TID 0000.0001) %MON vort_r_max                   =   1.2387159537372E-05
(PID.TID 0000.0001) %MON vort_a_mean                  =   6.7242814765254E-08
(PID.TID 0000.0001) %MON vort_a_sd                    =   8.3938489288401E-05
(PID.TID 0000.0001) %MON vort_p_mean                  =   6.8939448483266E-08
(PID.TID 0000.0001) %MON vort_p_sd                    =   9.1659823785021E-05
(PID.TID 0000.0001) %MON surfExpan_theta_mean         =   2.3861722157847E-01
(PID.TID 0000.0001) %MON surfExpan_salt_mean          =   1.5211636026475E-07
(PID.TID 0000.0001) %MON surfExpan_Heat_mean          =  -1.9469594108627E+01
(PID.TID 0000.0001) %MON En_Budget_T2PE_mean          =   3.7181617257774E+01
(PID.TID 0000.0001) // =======================================================
(PID.TID 0000.0001) // End MONITOR dynamic field statistics
(PID.TID 0000.0001) // =======================================================
(PID.TID 0000.0001) // =======================================================
(PID.TID 0000.0001) // Begin MONITOR Land statistics
(PID.TID 0000.0001) // =======================================================
(PID.TID 0000.0001) %MON land_time_sec                =   1.3500000000000E+03
(PID.TID 0000.0001) %MON land_SnwH_ave_G              =   1.5324622328405E-01
(PID.TID 0000.0001) %MON land_SnwH_ave_S              =   5.5906076491882E-01
(PID.TID 0000.0001) %MON land_SnwH_ave_T              =   0.0000000000000E+00
(PID.TID 0000.0001) %MON land_SnwH_ave_N              =   1.2393577965946E-01
(PID.TID 0000.0001) %MON land_SnwH_max_S              =   9.9999852974914E-01
(PID.TID 0000.0001) %MON land_SnwH_max_T              =   0.0000000000000E+00
(PID.TID 0000.0001) %MON land_SnwH_max_N              =   9.9999980255627E-01
(PID.TID 0000.0001) %MON land_TotEnerg_G              =  -6.2665864083396E+21
(PID.TID 0000.0001) %MON land_TotEnerg_S              =  -4.9936184855770E+21
(PID.TID 0000.0001) %MON land_TotEnerg_T              =   7.3367862243534E+21
(PID.TID 0000.0001) %MON land_TotEnerg_N              =  -8.6097541471160E+21
(PID.TID 0000.0001) %MON land_Tsrf_ave_G              =  -5.4214416204117E+00
(PID.TID 0000.0001) %MON land_Tsrf_ave_S              =  -5.7076706597405E+00
(PID.TID 0000.0001) %MON land_Tsrf_ave_T              =   1.7061714369232E+01
(PID.TID 0000.0001) %MON land_Tsrf_ave_N              =  -2.0342181015654E+01
(PID.TID 0000.0001) %MON land_Tsrf_min_S              =  -3.4758814041772E+01
(PID.TID 0000.0001) %MON land_Tsrf_min_T              =  -7.2831021819723E+00
(PID.TID 0000.0001) %MON land_Tsrf_min_N              =  -5.1364631618120E+01
(PID.TID 0000.0001) %MON land_Tsrf_max_S              =   2.9347021810171E+01
(PID.TID 0000.0001) %MON land_Tsrf_max_T              =   3.2666593184460E+01
(PID.TID 0000.0001) %MON land_Tsrf_max_N              =   1.4113892578212E+01
(PID.TID 0000.0001) %MON land_Tgr1_ave_G              =  -3.9629305913457E+00
(PID.TID 0000.0001) %MON land_Tgr1_ave_S              =  -4.5441747905048E+00
(PID.TID 0000.0001) %MON land_Tgr1_ave_T              =   1.7061714369232E+01
(PID.TID 0000.0001) %MON land_Tgr1_ave_N              =  -1.7814018095159E+01
(PID.TID 0000.0001) %MON land_Tgr1_min_S              =  -3.9023408470398E+01
(PID.TID 0000.0001) %MON land_Tgr1_min_T              =  -7.2831021819723E+00
(PID.TID 0000.0001) %MON land_Tgr1_min_N              =  -5.4979357037116E+01
(PID.TID 0000.0001) %MON land_Tgr1_max_S              =   2.9347021810171E+01
(PID.TID 0000.0001) %MON land_Tgr1_max_T              =   3.2666593184460E+01
(PID.TID 0000.0001) %MON land_Tgr1_max_N              =   1.4113892578212E+01
(PID.TID 0000.0001) %MON land_Tgr2_ave_G              =   4.2072329172634E+00
(PID.TID 0000.0001) %MON land_Tgr2_ave_S              =  -1.8731176221012E+01
(PID.TID 0000.0001) %MON land_Tgr2_ave_T              =   2.2012913713609E+01
(PID.TID 0000.0001) %MON land_Tgr2_ave_N              =  -2.4179690389588E-01
(PID.TID 0000.0001) %MON land_Tgr2_min_S              =  -6.4760993184559E+01
(PID.TID 0000.0001) %MON land_Tgr2_min_T              =  -9.7050245811227E+00
(PID.TID 0000.0001) %MON land_Tgr2_min_N              =  -4.0194343044151E+01
(PID.TID 0000.0001) %MON land_Tgr2_max_S              =   2.3360375667087E+01
(PID.TID 0000.0001) %MON land_Tgr2_max_T              =   3.1360140929534E+01
(PID.TID 0000.0001) %MON land_Tgr2_max_N              =   2.9831710315087E+01
(PID.TID 0000.0001) %MON land_grdW_ave_G              =   4.8699895613051E-01
(PID.TID 0000.0001) %MON land_grdW_ave_S              =   3.0873374237942E-01
(PID.TID 0000.0001) %MON land_grdW_ave_T              =   5.6478870574609E-01
(PID.TID 0000.0001) %MON land_grdW_ave_N              =   4.9288139824840E-01
(PID.TID 0000.0001) %MON land_grdW_min_S              =   2.5954898335907E-02
(PID.TID 0000.0001) %MON land_grdW_min_T              =   0.0000000000000E+00
(PID.TID 0000.0001) %MON land_grdW_min_N              =   0.0000000000000E+00
(PID.TID 0000.0001) // =======================================================
(PID.TID 0000.0001) // End MONITOR Land statistics
(PID.TID 0000.0001) // =======================================================
(PID.TID 0000.0001) // =======================================================
(PID.TID 0000.0001) // Begin MONITOR Therm.SeaIce statistics
(PID.TID 0000.0001) // =======================================================
(PID.TID 0000.0001) %MON thSI_time_sec                =   1.3500000000000E+03
(PID.TID 0000.0001) %MON thSI_Ice_Area_G              =   4.0609715853990E+10
(PID.TID 0000.0001) %MON thSI_Ice_Area_S              =   0.0000000000000E+00
(PID.TID 0000.0001) %MON thSI_Ice_Area_N              =   4.0609715853990E+10
(PID.TID 0000.0001) %MON thSI_IceH_ave_G              =   1.0476430916435E-01
(PID.TID 0000.0001) %MON thSI_IceH_ave_S              =   0.0000000000000E+00
(PID.TID 0000.0001) %MON thSI_IceH_ave_N              =   1.0476430916435E-01
(PID.TID 0000.0001) %MON thSI_IceH_max_S              =   0.0000000000000E+00
(PID.TID 0000.0001) %MON thSI_IceH_max_N              =   1.0597833202171E-01
(PID.TID 0000.0001) %MON thSI_SnwH_ave_G              =   0.0000000000000E+00
(PID.TID 0000.0001) %MON thSI_SnwH_ave_S              =   0.0000000000000E+00
(PID.TID 0000.0001) %MON thSI_SnwH_ave_N              =   0.0000000000000E+00
(PID.TID 0000.0001) %MON thSI_SnwH_max_S              =   0.0000000000000E+00
(PID.TID 0000.0001) %MON thSI_SnwH_max_N              =   0.0000000000000E+00
(PID.TID 0000.0001) %MON thSI_TotEnerg_G              =  -1.2795226607712E+18
(PID.TID 0000.0001) %MON thSI_Tsrf_ave_G              =  -4.5859547114964E+00
(PID.TID 0000.0001) %MON thSI_Tsrf_ave_S              =   0.0000000000000E+00
(PID.TID 0000.0001) %MON thSI_Tsrf_ave_N              =  -4.5859547114964E+00
(PID.TID 0000.0001) %MON thSI_Tsrf_min_S              =   0.0000000000000E+00
(PID.TID 0000.0001) %MON thSI_Tsrf_min_N              =  -4.6321265201411E+00
(PID.TID 0000.0001) %MON thSI_Tsrf_max_S              =   0.0000000000000E+00
(PID.TID 0000.0001) %MON thSI_Tsrf_max_N              =  -4.5177411619085E+00
(PID.TID 0000.0001) %MON thSI_Tic1_ave_G              =  -2.1943569907363E+00
(PID.TID 0000.0001) %MON thSI_Tic1_ave_S              =   0.0000000000000E+00
(PID.TID 0000.0001) %MON thSI_Tic1_ave_N              =  -2.1943569907363E+00
(PID.TID 0000.0001) %MON thSI_Tic1_min_S              =   0.0000000000000E+00
(PID.TID 0000.0001) %MON thSI_Tic1_min_N              =  -2.2412931202975E+00
(PID.TID 0000.0001) %MON thSI_Tic1_max_S              =   0.0000000000000E+00
(PID.TID 0000.0001) %MON thSI_Tic1_max_N              =  -2.1247803577130E+00
(PID.TID 0000.0001) %MON thSI_Tic2_ave_G              =  -1.7453073927007E+00
(PID.TID 0000.0001) %MON thSI_Tic2_ave_S              =   0.0000000000000E+00
(PID.TID 0000.0001) %MON thSI_Tic2_ave_N              =  -1.7453073927007E+00
(PID.TID 0000.0001) %MON thSI_Tic2_min_S              =   0.0000000000000E+00
(PID.TID 0000.0001) %MON thSI_Tic2_min_N              =  -1.7845250963175E+00
(PID.TID 0000.0001) %MON thSI_Tic2_max_S              =   0.0000000000000E+00
(PID.TID 0000.0001) %MON thSI_Tic2_max_N              =  -1.6937231729021E+00
(PID.TID 0000.0001) // =======================================================
(PID.TID 0000.0001) // End MONITOR Therm.SeaIce statistics
(PID.TID 0000.0001) // =======================================================
 cg2d: Sum(rhs),rhsMax =  -7.02584657119587E-11  1.49233112994252E+04
(PID.TID 0000.0001)                    cg2d_init_res =    2.74414619289800E+04
(PID.TID 0000.0001)                       cg2d_iters =    16
(PID.TID 0000.0001)                         cg2d_res =    1.12131032419594E-10
(PID.TID 0000.0001) // =======================================================
(PID.TID 0000.0001) // Begin MONITOR dynamic field statistics
(PID.TID 0000.0001) // =======================================================
(PID.TID 0000.0001) %MON time_tsnumber                =                     4
(PID.TID 0000.0001) %MON time_secondsf                =   1.8000000000000E+03
(PID.TID 0000.0001) %MON dynstat_eta_max              =   2.5069097486615E+03
(PID.TID 0000.0001) %MON dynstat_eta_min              =  -2.3444242803900E+03
(PID.TID 0000.0001) %MON dynstat_eta_mean             =   4.1607802378177E-15
(PID.TID 0000.0001) %MON dynstat_eta_sd               =   2.4936992722728E+02
(PID.TID 0000.0001) %MON dynstat_eta_del2             =   4.5057961922709E+01
(PID.TID 0000.0001) %MON dynstat_uvel_max             =   7.1224761089585E+00
(PID.TID 0000.0001) %MON dynstat_uvel_min             =  -7.0654469765215E+00
(PID.TID 0000.0001) %MON dynstat_uvel_mean            =  -3.4311374610391E-03
(PID.TID 0000.0001) %MON dynstat_uvel_sd              =   6.2636234601713E-01
(PID.TID 0000.0001) %MON dynstat_uvel_del2            =   2.7369610929358E-02
(PID.TID 0000.0001) %MON dynstat_vvel_max             =   7.5150484988167E+00
(PID.TID 0000.0001) %MON dynstat_vvel_min             =  -8.7187950930292E+00
(PID.TID 0000.0001) %MON dynstat_vvel_mean            =   4.6580488394803E-03
(PID.TID 0000.0001) %MON dynstat_vvel_sd              =   5.7920992919304E-01
(PID.TID 0000.0001) %MON dynstat_vvel_del2            =   2.6779218174704E-02
(PID.TID 0000.0001) %MON dynstat_wvel_max             =   5.7913524821079E-02
(PID.TID 0000.0001) %MON dynstat_wvel_min             =  -6.0295369758333E-01
(PID.TID 0000.0001) %MON dynstat_wvel_mean            =  -2.5887431987232E-03
(PID.TID 0000.0001) %MON dynstat_wvel_sd              =   1.9703090099548E-02
(PID.TID 0000.0001) %MON dynstat_wvel_del2            =   1.5736931302491E-03
(PID.TID 0000.0001) %MON dynstat_theta_max            =   4.3752943939424E+02
(PID.TID 0000.0001) %MON dynstat_theta_min            =   2.8859309274984E+02
(PID.TID 0000.0001) %MON dynstat_theta_mean           =   3.3171662134357E+02
(PID.TID 0000.0001) %MON dynstat_theta_sd             =   4.7417182941470E+01
(PID.TID 0000.0001) %MON dynstat_theta_del2           =   6.6628480571311E-03
(PID.TID 0000.0001) %MON dynstat_salt_max             =   1.6281646393985E+00
(PID.TID 0000.0001) %MON dynstat_salt_min             =  -1.6185146259320E-03
(PID.TID 0000.0001) %MON dynstat_salt_mean            =   1.5772127090820E-02
(PID.TID 0000.0001) %MON dynstat_salt_sd              =   6.8295324352234E-02
(PID.TID 0000.0001) %MON dynstat_salt_del2            =   2.7492766239182E-03
(PID.TID 0000.0001) %MON advcfl_uvel_max              =   1.0097230804873E-02
(PID.TID 0000.0001) %MON advcfl_vvel_max              =   1.2401169865332E-02
(PID.TID 0000.0001) %MON advcfl_wvel_max              =   9.8665150513635E-03
(PID.TID 0000.0001) %MON advcfl_W_hf_max              =   2.4509619354951E-02
(PID.TID 0000.0001) %MON pe_b_mean                    =  -5.7498587781229E-01
(PID.TID 0000.0001) %MON ke_max                       =   2.9082581842814E+01
(PID.TID 0000.0001) %MON ke_mean                      =   3.6177885480597E-01
(PID.TID 0000.0001) %MON ke_vol                       =   4.9523908919847E+19
(PID.TID 0000.0001) %MON vort_r_min                   =  -2.3041449258121E-05
(PID.TID 0000.0001) %MON vort_r_max                   =   1.2750076606301E-05
(PID.TID 0000.0001) %MON vort_a_mean                  =   6.7242814765306E-08
(PID.TID 0000.0001) %MON vort_a_sd                    =   8.3939785002183E-05
(PID.TID 0000.0001) %MON vort_p_mean                  =   6.8939448727999E-08
(PID.TID 0000.0001) %MON vort_p_sd                    =   9.1687382061801E-05
(PID.TID 0000.0001) %MON surfExpan_theta_mean         =   2.4997651288611E-01
(PID.TID 0000.0001) %MON surfExpan_salt_mean          =  -5.3276808781654E-06
(PID.TID 0000.0001) %MON surfExpan_Heat_mean          =  -2.0422926526500E+01
(PID.TID 0000.0001) %MON En_Budget_T2PE_mean          =   3.8942284649084E+01
(PID.TID 0000.0001) // =======================================================
(PID.TID 0000.0001) // End MONITOR dynamic field statistics
(PID.TID 0000.0001) // =======================================================
(PID.TID 0000.0001) // =======================================================
(PID.TID 0000.0001) // Begin MONITOR Land statistics
(PID.TID 0000.0001) // =======================================================
(PID.TID 0000.0001) %MON land_time_sec                =   1.8000000000000E+03
(PID.TID 0000.0001) %MON land_SnwH_ave_G              =   1.5324495077115E-01
(PID.TID 0000.0001) %MON land_SnwH_ave_S              =   5.5905997275217E-01
(PID.TID 0000.0001) %MON land_SnwH_ave_T              =   0.0000000000000E+00
(PID.TID 0000.0001) %MON land_SnwH_ave_N              =   1.2393350157849E-01
(PID.TID 0000.0001) %MON land_SnwH_max_S              =   9.9999802230281E-01
(PID.TID 0000.0001) %MON land_SnwH_max_T              =   0.0000000000000E+00
(PID.TID 0000.0001) %MON land_SnwH_max_N              =   9.9999972369936E-01
(PID.TID 0000.0001) %MON land_TotEnerg_G              =  -6.2755335785365E+21
(PID.TID 0000.0001) %MON land_TotEnerg_S              =  -4.9946903545469E+21
(PID.TID 0000.0001) %MON land_TotEnerg_T              =   7.3299482510173E+21
(PID.TID 0000.0001) %MON land_TotEnerg_N              =  -8.6107914750068E+21
(PID.TID 0000.0001) %MON land_Tsrf_ave_G              =  -5.7258731261944E+00
(PID.TID 0000.0001) %MON land_Tsrf_ave_S              =  -5.8196522658903E+00
(PID.TID 0000.0001) %MON land_Tsrf_ave_T              =   1.6282163302842E+01
(PID.TID 0000.0001) %MON land_Tsrf_ave_N              =  -2.0391771226715E+01
(PID.TID 0000.0001) %MON land_Tsrf_min_S              =  -3.4693268521236E+01
(PID.TID 0000.0001) %MON land_Tsrf_min_T              =  -7.0446215464112E+00
(PID.TID 0000.0001) %MON land_Tsrf_min_N              =  -5.0887095756294E+01
(PID.TID 0000.0001) %MON land_Tsrf_max_S              =   2.8299077196510E+01
(PID.TID 0000.0001) %MON land_Tsrf_max_T              =   3.1357644684745E+01
(PID.TID 0000.0001) %MON land_Tsrf_max_N              =   1.3560187851739E+01
(PID.TID 0000.0001) %MON land_Tgr1_ave_G              =  -4.3146637665367E+00
(PID.TID 0000.0001) %MON land_Tgr1_ave_S              =  -4.8569762008897E+00
(PID.TID 0000.0001) %MON land_Tgr1_ave_T              =   1.6282163302842E+01
(PID.TID 0000.0001) %MON land_Tgr1_ave_N              =  -1.7892696291805E+01
(PID.TID 0000.0001) %MON land_Tgr1_min_S              =  -3.9035767762797E+01
(PID.TID 0000.0001) %MON land_Tgr1_min_T              =  -7.0446215464112E+00
(PID.TID 0000.0001) %MON land_Tgr1_min_N              =  -5.4965292462712E+01
(PID.TID 0000.0001) %MON land_Tgr1_max_S              =   2.8299077196510E+01
(PID.TID 0000.0001) %MON land_Tgr1_max_T              =   3.1357644684745E+01
(PID.TID 0000.0001) %MON land_Tgr1_max_N              =   1.3560187851739E+01
(PID.TID 0000.0001) %MON land_Tgr2_ave_G              =   4.2071042628001E+00
(PID.TID 0000.0001) %MON land_Tgr2_ave_S              =  -1.8730945736236E+01
(PID.TID 0000.0001) %MON land_Tgr2_ave_T              =   2.2012818085677E+01
(PID.TID 0000.0001) %MON land_Tgr2_ave_N              =  -2.4206411508605E-01
(PID.TID 0000.0001) %MON land_Tgr2_min_S              =  -6.4760559189761E+01
(PID.TID 0000.0001) %MON land_Tgr2_min_T              =  -9.7049909660423E+00
(PID.TID 0000.0001) %MON land_Tgr2_min_N              =  -4.0194583728204E+01
(PID.TID 0000.0001) %MON land_Tgr2_max_S              =   2.3360456186081E+01
(PID.TID 0000.0001) %MON land_Tgr2_max_T              =   3.1359846826230E+01
(PID.TID 0000.0001) %MON land_Tgr2_max_N              =   2.9831342281627E+01
(PID.TID 0000.0001) %MON land_grdW_ave_G              =   4.8698180261211E-01
(PID.TID 0000.0001) %MON land_grdW_ave_S              =   3.0872082528634E-01
(PID.TID 0000.0001) %MON land_grdW_ave_T              =   5.6474430669923E-01
(PID.TID 0000.0001) %MON land_grdW_ave_N              =   4.9288106422208E-01
(PID.TID 0000.0001) %MON land_grdW_min_S              =   2.5981427539378E-02
(PID.TID 0000.0001) %MON land_grdW_min_T              =   0.0000000000000E+00
(PID.TID 0000.0001) %MON land_grdW_min_N              =   0.0000000000000E+00
(PID.TID 0000.0001) // =======================================================
(PID.TID 0000.0001) // End MONITOR Land statistics
(PID.TID 0000.0001) // =======================================================
(PID.TID 0000.0001) // =======================================================
(PID.TID 0000.0001) // Begin MONITOR Therm.SeaIce statistics
(PID.TID 0000.0001) // =======================================================
(PID.TID 0000.0001) %MON thSI_time_sec                =   1.8000000000000E+03
(PID.TID 0000.0001) %MON thSI_Ice_Area_G              =   5.2867978504825E+10
(PID.TID 0000.0001) %MON thSI_Ice_Area_S              =   0.0000000000000E+00
(PID.TID 0000.0001) %MON thSI_Ice_Area_N              =   5.2867978504825E+10
(PID.TID 0000.0001) %MON thSI_IceH_ave_G              =   1.0714952576819E-01
(PID.TID 0000.0001) %MON thSI_IceH_ave_S              =   0.0000000000000E+00
(PID.TID 0000.0001) %MON thSI_IceH_ave_N              =   1.0714952576819E-01
(PID.TID 0000.0001) %MON thSI_IceH_max_S              =   0.0000000000000E+00
(PID.TID 0000.0001) %MON thSI_IceH_max_N              =   1.0897758482395E-01
(PID.TID 0000.0001) %MON thSI_SnwH_ave_G              =   0.0000000000000E+00
(PID.TID 0000.0001) %MON thSI_SnwH_ave_S              =   0.0000000000000E+00
(PID.TID 0000.0001) %MON thSI_SnwH_ave_N              =   0.0000000000000E+00
(PID.TID 0000.0001) %MON thSI_SnwH_max_S              =   0.0000000000000E+00
(PID.TID 0000.0001) %MON thSI_SnwH_max_N              =   0.0000000000000E+00
(PID.TID 0000.0001) %MON thSI_TotEnerg_G              =  -1.7082145737413E+18
(PID.TID 0000.0001) %MON thSI_Tsrf_ave_G              =  -4.9078600355135E+00
(PID.TID 0000.0001) %MON thSI_Tsrf_ave_S              =   0.0000000000000E+00
(PID.TID 0000.0001) %MON thSI_Tsrf_ave_N              =  -4.9078600355135E+00
(PID.TID 0000.0001) %MON thSI_Tsrf_min_S              =   0.0000000000000E+00
(PID.TID 0000.0001) %MON thSI_Tsrf_min_N              =  -4.9622253983823E+00
(PID.TID 0000.0001) %MON thSI_Tsrf_max_S              =   0.0000000000000E+00
(PID.TID 0000.0001) %MON thSI_Tsrf_max_N              =  -4.8273479381195E+00
(PID.TID 0000.0001) %MON thSI_Tic1_ave_G              =  -2.5067655358110E+00
(PID.TID 0000.0001) %MON thSI_Tic1_ave_S              =   0.0000000000000E+00
(PID.TID 0000.0001) %MON thSI_Tic1_ave_N              =  -2.5067655358110E+00
(PID.TID 0000.0001) %MON thSI_Tic1_min_S              =   0.0000000000000E+00
(PID.TID 0000.0001) %MON thSI_Tic1_min_N              =  -2.5600620807676E+00
(PID.TID 0000.0001) %MON thSI_Tic1_max_S              =   0.0000000000000E+00
(PID.TID 0000.0001) %MON thSI_Tic1_max_N              =  -2.4275570305775E+00
(PID.TID 0000.0001) %MON thSI_Tic2_ave_G              =  -1.8120191594707E+00
(PID.TID 0000.0001) %MON thSI_Tic2_ave_S              =   0.0000000000000E+00
(PID.TID 0000.0001) %MON thSI_Tic2_ave_N              =  -1.8120191594707E+00
(PID.TID 0000.0001) %MON thSI_Tic2_min_S              =   0.0000000000000E+00
(PID.TID 0000.0001) %MON thSI_Tic2_min_N              =  -1.8532283405847E+00
(PID.TID 0000.0001) %MON thSI_Tic2_max_S              =   0.0000000000000E+00
(PID.TID 0000.0001) %MON thSI_Tic2_max_N              =  -1.7585383570211E+00
(PID.TID 0000.0001) // =======================================================
(PID.TID 0000.0001) // End MONITOR Therm.SeaIce statistics
(PID.TID 0000.0001) // =======================================================
 cg2d: Sum(rhs),rhsMax =  -5.47970557818189E-11  1.79855096739185E+04
(PID.TID 0000.0001)                    cg2d_init_res =    2.42201223227292E+04
(PID.TID 0000.0001)                       cg2d_iters =    16
(PID.TID 0000.0001)                         cg2d_res =    9.12766014505944E-11
(PID.TID 0000.0001) // =======================================================
(PID.TID 0000.0001) // Begin MONITOR dynamic field statistics
(PID.TID 0000.0001) // =======================================================
(PID.TID 0000.0001) %MON time_tsnumber                =                     5
(PID.TID 0000.0001) %MON time_secondsf                =   2.2500000000000E+03
(PID.TID 0000.0001) %MON dynstat_eta_max              =   3.1711085890464E+03
(PID.TID 0000.0001) %MON dynstat_eta_min              =  -2.7173523278937E+03
(PID.TID 0000.0001) %MON dynstat_eta_mean             =  -2.6295126993147E-15
(PID.TID 0000.0001) %MON dynstat_eta_sd               =   3.0044549279978E+02
(PID.TID 0000.0001) %MON dynstat_eta_del2             =   4.5486800500477E+01
(PID.TID 0000.0001) %MON dynstat_uvel_max             =   7.7271641517916E+00
(PID.TID 0000.0001) %MON dynstat_uvel_min             =  -7.5717254412233E+00
(PID.TID 0000.0001) %MON dynstat_uvel_mean            =  -4.2189612880410E-03
(PID.TID 0000.0001) %MON dynstat_uvel_sd              =   6.8856529002272E-01
(PID.TID 0000.0001) %MON dynstat_uvel_del2            =   2.3196652987375E-02
(PID.TID 0000.0001) %MON dynstat_vvel_max             =   7.5431240016667E+00
(PID.TID 0000.0001) %MON dynstat_vvel_min             =  -8.6012135165899E+00
(PID.TID 0000.0001) %MON dynstat_vvel_mean            =   5.9740133221685E-03
(PID.TID 0000.0001) %MON dynstat_vvel_sd              =   6.4313361445405E-01
(PID.TID 0000.0001) %MON dynstat_vvel_del2            =   2.1403936566185E-02
(PID.TID 0000.0001) %MON dynstat_wvel_max             =   5.0729705164003E-02
(PID.TID 0000.0001) %MON dynstat_wvel_min             =  -5.6094694695269E-01
(PID.TID 0000.0001) %MON dynstat_wvel_mean            =  -2.5150013295979E-03
(PID.TID 0000.0001) %MON dynstat_wvel_sd              =   1.8782690918011E-02
(PID.TID 0000.0001) %MON dynstat_wvel_del2            =   1.4163915392092E-03
(PID.TID 0000.0001) %MON dynstat_theta_max            =   4.3754929689885E+02
(PID.TID 0000.0001) %MON dynstat_theta_min            =   2.8834954283566E+02
(PID.TID 0000.0001) %MON dynstat_theta_mean           =   3.3171612952261E+02
(PID.TID 0000.0001) %MON dynstat_theta_sd             =   4.7417995223978E+01
(PID.TID 0000.0001) %MON dynstat_theta_del2           =   7.6525282024084E-03
(PID.TID 0000.0001) %MON dynstat_salt_max             =   1.9274179023910E+00
(PID.TID 0000.0001) %MON dynstat_salt_min             =  -9.5315644920775E-04
(PID.TID 0000.0001) %MON dynstat_salt_mean            =   1.9593269765165E-02
(PID.TID 0000.0001) %MON dynstat_salt_sd              =   8.4452952297583E-02
(PID.TID 0000.0001) %MON dynstat_salt_del2            =   3.3088518344438E-03
(PID.TID 0000.0001) %MON advcfl_uvel_max              =   1.0843292422233E-02
(PID.TID 0000.0001) %MON advcfl_vvel_max              =   1.2233927822492E-02
(PID.TID 0000.0001) %MON advcfl_wvel_max              =   9.1791318592258E-03
(PID.TID 0000.0001) %MON advcfl_W_hf_max              =   2.2667891296350E-02
(PID.TID 0000.0001) %MON pe_b_mean                    =  -6.8992767921347E-01
(PID.TID 0000.0001) %MON ke_max                       =   3.3074184335420E+01
(PID.TID 0000.0001) %MON ke_mean                      =   4.4128252840030E-01
(PID.TID 0000.0001) %MON ke_vol                       =   4.9523908919847E+19
(PID.TID 0000.0001) %MON vort_r_min                   =  -2.4872667645300E-05
(PID.TID 0000.0001) %MON vort_r_max                   =   1.2307014802651E-05
(PID.TID 0000.0001) %MON vort_a_mean                  =   6.7242814765321E-08
(PID.TID 0000.0001) %MON vort_a_sd                    =   8.3941393309340E-05
(PID.TID 0000.0001) %MON vort_p_mean                  =   6.8939448912213E-08
(PID.TID 0000.0001) %MON vort_p_sd                    =   9.1717567871089E-05
(PID.TID 0000.0001) %MON surfExpan_theta_mean         =   2.4363805771750E-01
(PID.TID 0000.0001) %MON surfExpan_salt_mean          =  -1.4701379698256E-05
(PID.TID 0000.0001) %MON surfExpan_Heat_mean          =  -1.9966566906444E+01
(PID.TID 0000.0001) %MON En_Budget_T2PE_mean          =   3.7982367380235E+01
(PID.TID 0000.0001) // =======================================================
(PID.TID 0000.0001) // End MONITOR dynamic field statistics
(PID.TID 0000.0001) // =======================================================
(PID.TID 0000.0001) // =======================================================
(PID.TID 0000.0001) // Begin MONITOR Land statistics
(PID.TID 0000.0001) // =======================================================
(PID.TID 0000.0001) %MON land_time_sec                =   2.2500000000000E+03
(PID.TID 0000.0001) %MON land_SnwH_ave_G              =   1.5324375290395E-01
(PID.TID 0000.0001) %MON land_SnwH_ave_S              =   5.5905913630225E-01
(PID.TID 0000.0001) %MON land_SnwH_ave_T              =   0.0000000000000E+00
(PID.TID 0000.0001) %MON land_SnwH_ave_N              =   1.2393138656922E-01
(PID.TID 0000.0001) %MON land_SnwH_max_S              =   9.9999750912951E-01
(PID.TID 0000.0001) %MON land_SnwH_max_T              =   0.0000000000000E+00
(PID.TID 0000.0001) %MON land_SnwH_max_N              =   9.9999964347670E-01
(PID.TID 0000.0001) %MON land_TotEnerg_G              =  -6.2835107080870E+21
(PID.TID 0000.0001) %MON land_TotEnerg_S              =  -4.9956323657321E+21
(PID.TID 0000.0001) %MON land_TotEnerg_T              =   7.3239135277648E+21
(PID.TID 0000.0001) %MON land_TotEnerg_N              =  -8.6117918701197E+21
(PID.TID 0000.0001) %MON land_Tsrf_ave_G              =  -6.0030220671567E+00
(PID.TID 0000.0001) %MON land_Tsrf_ave_S              =  -5.9127864822183E+00
(PID.TID 0000.0001) %MON land_Tsrf_ave_T              =   1.5592626447725E+01
(PID.TID 0000.0001) %MON land_Tsrf_ave_N              =  -2.0453232902178E+01
(PID.TID 0000.0001) %MON land_Tsrf_min_S              =  -3.4616218020564E+01
(PID.TID 0000.0001) %MON land_Tsrf_min_T              =  -6.8157570817405E+00
(PID.TID 0000.0001) %MON land_Tsrf_min_N              =  -5.0782262993753E+01
(PID.TID 0000.0001) %MON land_Tsrf_max_S              =   2.7365946890610E+01
(PID.TID 0000.0001) %MON land_Tsrf_max_T              =   3.0179485203477E+01
(PID.TID 0000.0001) %MON land_Tsrf_max_N              =   1.3045667353200E+01
(PID.TID 0000.0001) %MON land_Tgr1_ave_G              =  -4.6277638451183E+00
(PID.TID 0000.0001) %MON land_Tgr1_ave_S              =  -5.1332404353285E+00
(PID.TID 0000.0001) %MON land_Tgr1_ave_T              =   1.5592626447725E+01
(PID.TID 0000.0001) %MON land_Tgr1_ave_N              =  -1.7966372285228E+01
(PID.TID 0000.0001) %MON land_Tgr1_min_S              =  -3.9048015103209E+01
(PID.TID 0000.0001) %MON land_Tgr1_min_T              =  -6.8157570817405E+00
(PID.TID 0000.0001) %MON land_Tgr1_min_N              =  -5.4951149027333E+01
(PID.TID 0000.0001) %MON land_Tgr1_max_S              =   2.7365946890610E+01
(PID.TID 0000.0001) %MON land_Tgr1_max_T              =   3.0179485203477E+01
(PID.TID 0000.0001) %MON land_Tgr1_max_N              =   1.3045667353200E+01
(PID.TID 0000.0001) %MON land_Tgr2_ave_G              =   4.2069704456323E+00
(PID.TID 0000.0001) %MON land_Tgr2_ave_S              =  -1.8730719647737E+01
(PID.TID 0000.0001) %MON land_Tgr2_ave_T              =   2.2012711236151E+01
(PID.TID 0000.0001) %MON land_Tgr2_ave_N              =  -2.4233269165756E-01
(PID.TID 0000.0001) %MON land_Tgr2_min_S              =  -6.4760125424560E+01
(PID.TID 0000.0001) %MON land_Tgr2_min_T              =  -9.7049544593660E+00
(PID.TID 0000.0001) %MON land_Tgr2_min_N              =  -4.0194824137328E+01
(PID.TID 0000.0001) %MON land_Tgr2_max_S              =   2.3360519791274E+01
(PID.TID 0000.0001) %MON land_Tgr2_max_T              =   3.1359538739672E+01
(PID.TID 0000.0001) %MON land_Tgr2_max_N              =   2.9830962854178E+01
(PID.TID 0000.0001) %MON land_grdW_ave_G              =   4.8696573097784E-01
(PID.TID 0000.0001) %MON land_grdW_ave_S              =   3.0870854723176E-01
(PID.TID 0000.0001) %MON land_grdW_ave_T              =   5.6470284842390E-01
(PID.TID 0000.0001) %MON land_grdW_ave_N              =   4.9288071442596E-01
(PID.TID 0000.0001) %MON land_grdW_min_S              =   2.6016783482972E-02
(PID.TID 0000.0001) %MON land_grdW_min_T              =   0.0000000000000E+00
(PID.TID 0000.0001) %MON land_grdW_min_N              =   0.0000000000000E+00
(PID.TID 0000.0001) // =======================================================
(PID.TID 0000.0001) // End MONITOR Land statistics
(PID.TID 0000.0001) // =======================================================
(PID.TID 0000.0001) // =======================================================
(PID.TID 0000.0001) // Begin MONITOR Therm.SeaIce statistics
(PID.TID 0000.0001) // =======================================================
(PID.TID 0000.0001) %MON thSI_time_sec                =   2.2500000000000E+03
(PID.TID 0000.0001) %MON thSI_Ice_Area_G              =   6.4565655049876E+10
(PID.TID 0000.0001) %MON thSI_Ice_Area_S              =   0.0000000000000E+00
(PID.TID 0000.0001) %MON thSI_Ice_Area_N              =   6.4565655049876E+10
(PID.TID 0000.0001) %MON thSI_IceH_ave_G              =   1.0953844853975E-01
(PID.TID 0000.0001) %MON thSI_IceH_ave_S              =   0.0000000000000E+00
(PID.TID 0000.0001) %MON thSI_IceH_ave_N              =   1.0953844853975E-01
(PID.TID 0000.0001) %MON thSI_IceH_max_S              =   0.0000000000000E+00
(PID.TID 0000.0001) %MON thSI_IceH_max_N              =   1.1198459611789E-01
(PID.TID 0000.0001) %MON thSI_SnwH_ave_G              =   0.0000000000000E+00
(PID.TID 0000.0001) %MON thSI_SnwH_ave_S              =   0.0000000000000E+00
(PID.TID 0000.0001) %MON thSI_SnwH_ave_N              =   0.0000000000000E+00
(PID.TID 0000.0001) %MON thSI_SnwH_max_S              =   0.0000000000000E+00
(PID.TID 0000.0001) %MON thSI_SnwH_max_N              =   0.0000000000000E+00
(PID.TID 0000.0001) %MON thSI_TotEnerg_G              =  -2.1378407544988E+18
(PID.TID 0000.0001) %MON thSI_Tsrf_ave_G              =  -5.2365704927997E+00
(PID.TID 0000.0001) %MON thSI_Tsrf_ave_S              =   0.0000000000000E+00
(PID.TID 0000.0001) %MON thSI_Tsrf_ave_N              =  -5.2365704927997E+00
(PID.TID 0000.0001) %MON thSI_Tsrf_min_S              =   0.0000000000000E+00
(PID.TID 0000.0001) %MON thSI_Tsrf_min_N              =  -5.3004659748559E+00
(PID.TID 0000.0001) %MON thSI_Tsrf_max_S              =   0.0000000000000E+00
(PID.TID 0000.0001) %MON thSI_Tsrf_max_N              =  -5.1469339952550E+00
(PID.TID 0000.0001) %MON thSI_Tic1_ave_G              =  -2.8284440012156E+00
(PID.TID 0000.0001) %MON thSI_Tic1_ave_S              =   0.0000000000000E+00
(PID.TID 0000.0001) %MON thSI_Tic1_ave_N              =  -2.8284440012156E+00
(PID.TID 0000.0001) %MON thSI_Tic1_min_S              =   0.0000000000000E+00
(PID.TID 0000.0001) %MON thSI_Tic1_min_N              =  -2.8860751594155E+00
(PID.TID 0000.0001) %MON thSI_Tic1_max_S              =   0.0000000000000E+00
(PID.TID 0000.0001) %MON thSI_Tic1_max_N              =  -2.7423819788924E+00
(PID.TID 0000.0001) %MON thSI_Tic2_ave_G              =  -1.8883411960266E+00
(PID.TID 0000.0001) %MON thSI_Tic2_ave_S              =   0.0000000000000E+00
(PID.TID 0000.0001) %MON thSI_Tic2_ave_N              =  -1.8883411960266E+00
(PID.TID 0000.0001) %MON thSI_Tic2_min_S              =   0.0000000000000E+00
(PID.TID 0000.0001) %MON thSI_Tic2_min_N              =  -1.9325121673937E+00
(PID.TID 0000.0001) %MON thSI_Tic2_max_S              =   0.0000000000000E+00
(PID.TID 0000.0001) %MON thSI_Tic2_max_N              =  -1.8333413802530E+00
(PID.TID 0000.0001) // =======================================================
(PID.TID 0000.0001) // End MONITOR Therm.SeaIce statistics
(PID.TID 0000.0001) // =======================================================
 cg2d: Sum(rhs),rhsMax =   6.04813976678997E-11  2.06443449601604E+04
(PID.TID 0000.0001)                    cg2d_init_res =    2.25035487452904E+04
(PID.TID 0000.0001)                       cg2d_iters =    16
(PID.TID 0000.0001)                         cg2d_res =    8.38470894622518E-11
(PID.TID 0000.0001) // =======================================================
(PID.TID 0000.0001) // Begin MONITOR dynamic field statistics
(PID.TID 0000.0001) // =======================================================
(PID.TID 0000.0001) %MON time_tsnumber                =                     6
(PID.TID 0000.0001) %MON time_secondsf                =   2.7000000000000E+03
(PID.TID 0000.0001) %MON dynstat_eta_max              =   3.6540795525124E+03
(PID.TID 0000.0001) %MON dynstat_eta_min              =  -2.8732816904084E+03
(PID.TID 0000.0001) %MON dynstat_eta_mean             =   5.4598473708920E-15
(PID.TID 0000.0001) %MON dynstat_eta_sd               =   3.4255015252773E+02
(PID.TID 0000.0001) %MON dynstat_eta_del2             =   4.3866384135361E+01
(PID.TID 0000.0001) %MON dynstat_uvel_max             =   7.8601959427465E+00
(PID.TID 0000.0001) %MON dynstat_uvel_min             =  -7.8174808085980E+00
(PID.TID 0000.0001) %MON dynstat_uvel_mean            =  -4.9524309165044E-03
(PID.TID 0000.0001) %MON dynstat_uvel_sd              =   7.3176783781683E-01
(PID.TID 0000.0001) %MON dynstat_uvel_del2            =   2.1861634173650E-02
(PID.TID 0000.0001) %MON dynstat_vvel_max             =   7.4253941387947E+00
(PID.TID 0000.0001) %MON dynstat_vvel_min             =  -8.4840281416383E+00
(PID.TID 0000.0001) %MON dynstat_vvel_mean            =   7.3824178937439E-03
(PID.TID 0000.0001) %MON dynstat_vvel_sd              =   6.9883297369809E-01
(PID.TID 0000.0001) %MON dynstat_vvel_del2            =   2.0418488055295E-02
(PID.TID 0000.0001) %MON dynstat_wvel_max             =   6.4640994455350E-02
(PID.TID 0000.0001) %MON dynstat_wvel_min             =  -4.9949789400965E-01
(PID.TID 0000.0001) %MON dynstat_wvel_mean            =  -2.3533179562913E-03
(PID.TID 0000.0001) %MON dynstat_wvel_sd              =   1.7428475643065E-02
(PID.TID 0000.0001) %MON dynstat_wvel_del2            =   1.3223074956175E-03
(PID.TID 0000.0001) %MON dynstat_theta_max            =   4.3755716372746E+02
(PID.TID 0000.0001) %MON dynstat_theta_min            =   2.8810745460096E+02
(PID.TID 0000.0001) %MON dynstat_theta_mean           =   3.3171545433275E+02
(PID.TID 0000.0001) %MON dynstat_theta_sd             =   4.7419040630485E+01
(PID.TID 0000.0001) %MON dynstat_theta_del2           =   8.4804330262153E-03
(PID.TID 0000.0001) %MON dynstat_salt_max             =   2.1966513983353E+00
(PID.TID 0000.0001) %MON dynstat_salt_min             =  -1.0186234464722E-03
(PID.TID 0000.0001) %MON dynstat_salt_mean            =   2.3374829822674E-02
(PID.TID 0000.0001) %MON dynstat_salt_sd              =   1.0033300385003E-01
(PID.TID 0000.0001) %MON dynstat_salt_del2            =   3.8309547506997E-03
(PID.TID 0000.0001) %MON advcfl_uvel_max              =   1.1195232984984E-02
(PID.TID 0000.0001) %MON advcfl_vvel_max              =   1.2033078883252E-02
(PID.TID 0000.0001) %MON advcfl_wvel_max              =   8.1736019019761E-03
(PID.TID 0000.0001) %MON advcfl_W_hf_max              =   1.9918201373584E-02
(PID.TID 0000.0001) %MON pe_b_mean                    =  -7.8868246063789E-01
(PID.TID 0000.0001) %MON ke_max                       =   3.5161590922037E+01
(PID.TID 0000.0001) %MON ke_mean                      =   5.0894939989344E-01
(PID.TID 0000.0001) %MON ke_vol                       =   4.9523908919847E+19
(PID.TID 0000.0001) %MON vort_r_min                   =  -2.6422276580286E-05
(PID.TID 0000.0001) %MON vort_r_max                   =   1.2343915335723E-05
(PID.TID 0000.0001) %MON vort_a_mean                  =   6.7242814765333E-08
(PID.TID 0000.0001) %MON vort_a_sd                    =   8.3943251066676E-05
(PID.TID 0000.0001) %MON vort_p_mean                  =   6.8939448990560E-08
(PID.TID 0000.0001) %MON vort_p_sd                    =   9.1747992974959E-05
(PID.TID 0000.0001) %MON surfExpan_theta_mean         =   2.2852437120537E-01
(PID.TID 0000.0001) %MON surfExpan_salt_mean          =  -2.7287504620008E-05
(PID.TID 0000.0001) %MON surfExpan_Heat_mean          =  -1.8801015878884E+01
(PID.TID 0000.0001) %MON En_Budget_T2PE_mean          =   3.5669474494619E+01
(PID.TID 0000.0001) // =======================================================
(PID.TID 0000.0001) // End MONITOR dynamic field statistics
(PID.TID 0000.0001) // =======================================================
(PID.TID 0000.0001) // =======================================================
(PID.TID 0000.0001) // Begin MONITOR Land statistics
(PID.TID 0000.0001) // =======================================================
(PID.TID 0000.0001) %MON land_time_sec                =   2.7000000000000E+03
(PID.TID 0000.0001) %MON land_SnwH_ave_G              =   1.5324262649442E-01
(PID.TID 0000.0001) %MON land_SnwH_ave_S              =   5.5905826211878E-01
(PID.TID 0000.0001) %MON land_SnwH_ave_T              =   0.0000000000000E+00
(PID.TID 0000.0001) %MON land_SnwH_ave_N              =   1.2392942615594E-01
(PID.TID 0000.0001) %MON land_SnwH_max_S              =   9.9999698854381E-01
(PID.TID 0000.0001) %MON land_SnwH_max_T              =   0.0000000000000E+00
(PID.TID 0000.0001) %MON land_SnwH_max_N              =   9.9999956679837E-01
(PID.TID 0000.0001) %MON land_TotEnerg_G              =  -6.2906584200881E+21
(PID.TID 0000.0001) %MON land_TotEnerg_S              =  -4.9964629584015E+21
(PID.TID 0000.0001) %MON land_TotEnerg_T              =   7.3185633152271E+21
(PID.TID 0000.0001) %MON land_TotEnerg_N              =  -8.6127587769137E+21
(PID.TID 0000.0001) %MON land_Tsrf_ave_G              =  -6.2567717014887E+00
(PID.TID 0000.0001) %MON land_Tsrf_ave_S              =  -6.0006306280173E+00
(PID.TID 0000.0001) %MON land_Tsrf_ave_T              =   1.4980196127672E+01
(PID.TID 0000.0001) %MON land_Tsrf_ave_N              =  -2.0521284852806E+01
(PID.TID 0000.0001) %MON land_Tsrf_min_S              =  -3.4523342968439E+01
(PID.TID 0000.0001) %MON land_Tsrf_min_T              =  -6.5960254611072E+00
(PID.TID 0000.0001) %MON land_Tsrf_min_N              =  -5.1015658532217E+01
(PID.TID 0000.0001) %MON land_Tsrf_max_S              =   2.6533807447430E+01
(PID.TID 0000.0001) %MON land_Tsrf_max_T              =   2.9117512059867E+01
(PID.TID 0000.0001) %MON land_Tsrf_max_N              =   1.2563940005701E+01
(PID.TID 0000.0001) %MON land_Tgr1_ave_G              =  -4.9077596295155E+00
(PID.TID 0000.0001) %MON land_Tgr1_ave_S              =  -5.3779527544576E+00
(PID.TID 0000.0001) %MON land_Tgr1_ave_T              =   1.4980196127672E+01
(PID.TID 0000.0001) %MON land_Tgr1_ave_N              =  -1.8035823804594E+01
(PID.TID 0000.0001) %MON land_Tgr1_min_S              =  -3.9060137654125E+01
(PID.TID 0000.0001) %MON land_Tgr1_min_T              =  -6.5960254611072E+00
(PID.TID 0000.0001) %MON land_Tgr1_min_N              =  -5.4937256191055E+01
(PID.TID 0000.0001) %MON land_Tgr1_max_S              =   2.6533807447430E+01
(PID.TID 0000.0001) %MON land_Tgr1_max_T              =   2.9117512059867E+01
(PID.TID 0000.0001) %MON land_Tgr1_max_N              =   1.2563940005701E+01
(PID.TID 0000.0001) %MON land_Tgr2_ave_G              =   4.2068320363257E+00
(PID.TID 0000.0001) %MON land_Tgr2_ave_S              =  -1.8730497453612E+01
(PID.TID 0000.0001) %MON land_Tgr2_ave_T              =   2.2012594499803E+01
(PID.TID 0000.0001) %MON land_Tgr2_ave_N              =  -2.4260255108470E-01
(PID.TID 0000.0001) %MON land_Tgr2_min_S              =  -6.4759691887076E+01
(PID.TID 0000.0001) %MON land_Tgr2_min_T              =  -9.7049151765727E+00
(PID.TID 0000.0001) %MON land_Tgr2_min_N              =  -4.0195064276896E+01
(PID.TID 0000.0001) %MON land_Tgr2_max_S              =   2.3360568379138E+01
(PID.TID 0000.0001) %MON land_Tgr2_max_T              =   3.1359217932483E+01
(PID.TID 0000.0001) %MON land_Tgr2_max_N              =   2.9830572769554E+01
(PID.TID 0000.0001) %MON land_grdW_ave_G              =   4.8695061607250E-01
(PID.TID 0000.0001) %MON land_grdW_ave_S              =   3.0869682091826E-01
(PID.TID 0000.0001) %MON land_grdW_ave_T              =   5.6466400421218E-01
(PID.TID 0000.0001) %MON land_grdW_ave_N              =   4.9288034601501E-01
(PID.TID 0000.0001) %MON land_grdW_min_S              =   2.6059758305439E-02
(PID.TID 0000.0001) %MON land_grdW_min_T              =   0.0000000000000E+00
(PID.TID 0000.0001) %MON land_grdW_min_N              =   0.0000000000000E+00
(PID.TID 0000.0001) // =======================================================
(PID.TID 0000.0001) // End MONITOR Land statistics
(PID.TID 0000.0001) // =======================================================
(PID.TID 0000.0001) // =======================================================
(PID.TID 0000.0001) // Begin MONITOR Therm.SeaIce statistics
(PID.TID 0000.0001) // =======================================================
(PID.TID 0000.0001) %MON thSI_time_sec                =   2.7000000000000E+03
(PID.TID 0000.0001) %MON thSI_Ice_Area_G              =   7.5742850716118E+10
(PID.TID 0000.0001) %MON thSI_Ice_Area_S              =   0.0000000000000E+00
(PID.TID 0000.0001) %MON thSI_Ice_Area_N              =   7.5742850716118E+10
(PID.TID 0000.0001) %MON thSI_IceH_ave_G              =   1.1193160260416E-01
(PID.TID 0000.0001) %MON thSI_IceH_ave_S              =   0.0000000000000E+00
(PID.TID 0000.0001) %MON thSI_IceH_ave_N              =   1.1193160260416E-01
(PID.TID 0000.0001) %MON thSI_IceH_max_S              =   0.0000000000000E+00
(PID.TID 0000.0001) %MON thSI_IceH_max_N              =   1.1499945874301E-01
(PID.TID 0000.0001) %MON thSI_SnwH_ave_G              =   0.0000000000000E+00
(PID.TID 0000.0001) %MON thSI_SnwH_ave_S              =   0.0000000000000E+00
(PID.TID 0000.0001) %MON thSI_SnwH_ave_N              =   0.0000000000000E+00
(PID.TID 0000.0001) %MON thSI_SnwH_max_S              =   0.0000000000000E+00
(PID.TID 0000.0001) %MON thSI_SnwH_max_N              =   0.0000000000000E+00
(PID.TID 0000.0001) %MON thSI_TotEnerg_G              =  -2.5683180168204E+18
(PID.TID 0000.0001) %MON thSI_Tsrf_ave_G              =  -5.5634749640335E+00
(PID.TID 0000.0001) %MON thSI_Tsrf_ave_S              =   0.0000000000000E+00
(PID.TID 0000.0001) %MON thSI_Tsrf_ave_N              =  -5.5634749640335E+00
(PID.TID 0000.0001) %MON thSI_Tsrf_min_S              =   0.0000000000000E+00
(PID.TID 0000.0001) %MON thSI_Tsrf_min_N              =  -5.6351106805119E+00
(PID.TID 0000.0001) %MON thSI_Tsrf_max_S              =   0.0000000000000E+00
(PID.TID 0000.0001) %MON thSI_Tsrf_max_N              =  -5.4635674720060E+00
(PID.TID 0000.0001) %MON thSI_Tic1_ave_G              =  -3.1498329960208E+00
(PID.TID 0000.0001) %MON thSI_Tic1_ave_S              =   0.0000000000000E+00
(PID.TID 0000.0001) %MON thSI_Tic1_ave_N              =  -3.1498329960208E+00
(PID.TID 0000.0001) %MON thSI_Tic1_min_S              =   0.0000000000000E+00
(PID.TID 0000.0001) %MON thSI_Tic1_min_N              =  -3.2096017201990E+00
(PID.TID 0000.0001) %MON thSI_Tic1_max_S              =   0.0000000000000E+00
(PID.TID 0000.0001) %MON thSI_Tic1_max_N              =  -3.0599380752672E+00
(PID.TID 0000.0001) %MON thSI_Tic2_ave_G              =  -1.9701339575925E+00
(PID.TID 0000.0001) %MON thSI_Tic2_ave_S              =   0.0000000000000E+00
(PID.TID 0000.0001) %MON thSI_Tic2_ave_N              =  -1.9701339575925E+00
(PID.TID 0000.0001) %MON thSI_Tic2_min_S              =   0.0000000000000E+00
(PID.TID 0000.0001) %MON thSI_Tic2_min_N              =  -2.0181733419852E+00
(PID.TID 0000.0001) %MON thSI_Tic2_max_S              =   0.0000000000000E+00
(PID.TID 0000.0001) %MON thSI_Tic2_max_N              =  -1.9142178756713E+00
(PID.TID 0000.0001) // =======================================================
(PID.TID 0000.0001) // End MONITOR Therm.SeaIce statistics
(PID.TID 0000.0001) // =======================================================
 cg2d: Sum(rhs),rhsMax =  -1.53249857248738E-10  2.21089530898191E+04
(PID.TID 0000.0001)                    cg2d_init_res =    2.13570748207497E+04
(PID.TID 0000.0001)                       cg2d_iters =    16
(PID.TID 0000.0001)                         cg2d_res =    7.64211775122086E-11
(PID.TID 0000.0001) // =======================================================
(PID.TID 0000.0001) // Begin MONITOR dynamic field statistics
(PID.TID 0000.0001) // =======================================================
(PID.TID 0000.0001) %MON time_tsnumber                =                     7
(PID.TID 0000.0001) %MON time_secondsf                =   3.1500000000000E+03
(PID.TID 0000.0001) %MON dynstat_eta_max              =   3.9354246164998E+03
(PID.TID 0000.0001) %MON dynstat_eta_min              =  -2.8397598997359E+03
(PID.TID 0000.0001) %MON dynstat_eta_mean             =  -1.4308565523717E-15
(PID.TID 0000.0001) %MON dynstat_eta_sd               =   3.7780659699530E+02
(PID.TID 0000.0001) %MON dynstat_eta_del2             =   4.1769427728850E+01
(PID.TID 0000.0001) %MON dynstat_uvel_max             =   7.6482269772611E+00
(PID.TID 0000.0001) %MON dynstat_uvel_min             =  -7.9888887207951E+00
(PID.TID 0000.0001) %MON dynstat_uvel_mean            =  -5.6368803238466E-03
(PID.TID 0000.0001) %MON dynstat_uvel_sd              =   7.6029409212265E-01
(PID.TID 0000.0001) %MON dynstat_uvel_del2            =   2.1099031801064E-02
(PID.TID 0000.0001) %MON dynstat_vvel_max             =   7.3574458816673E+00
(PID.TID 0000.0001) %MON dynstat_vvel_min             =  -8.6761442966750E+00
(PID.TID 0000.0001) %MON dynstat_vvel_mean            =   8.8803515795022E-03
(PID.TID 0000.0001) %MON dynstat_vvel_sd              =   7.4746737202754E-01
(PID.TID 0000.0001) %MON dynstat_vvel_del2            =   2.0346416974377E-02
(PID.TID 0000.0001) %MON dynstat_wvel_max             =   7.1116273904578E-02
(PID.TID 0000.0001) %MON dynstat_wvel_min             =  -4.3378395993361E-01
(PID.TID 0000.0001) %MON dynstat_wvel_mean            =  -2.1625762130338E-03
(PID.TID 0000.0001) %MON dynstat_wvel_sd              =   1.6132274421479E-02
(PID.TID 0000.0001) %MON dynstat_wvel_del2            =   1.2862524672566E-03
(PID.TID 0000.0001) %MON dynstat_theta_max            =   4.3755509045059E+02
(PID.TID 0000.0001) %MON dynstat_theta_min            =   2.8786564411008E+02
(PID.TID 0000.0001) %MON dynstat_theta_mean           =   3.3171460709686E+02
(PID.TID 0000.0001) %MON dynstat_theta_sd             =   4.7420262033894E+01
(PID.TID 0000.0001) %MON dynstat_theta_del2           =   9.2513162175659E-03
(PID.TID 0000.0001) %MON dynstat_salt_max             =   2.4396001494046E+00
(PID.TID 0000.0001) %MON dynstat_salt_min             =  -1.1550096329328E-03
(PID.TID 0000.0001) %MON dynstat_salt_mean            =   2.7120520947300E-02
(PID.TID 0000.0001) %MON dynstat_salt_sd              =   1.1597734871310E-01
(PID.TID 0000.0001) %MON dynstat_salt_del2            =   4.3248011225448E-03
(PID.TID 0000.0001) %MON advcfl_uvel_max              =   1.1362988234581E-02
(PID.TID 0000.0001) %MON advcfl_vvel_max              =   1.2305561342021E-02
(PID.TID 0000.0001) %MON advcfl_wvel_max              =   7.0982829807318E-03
(PID.TID 0000.0001) %MON advcfl_W_hf_max              =   1.8533998901941E-02
(PID.TID 0000.0001) %MON pe_b_mean                    =  -8.7227364894308E-01
(PID.TID 0000.0001) %MON ke_max                       =   3.5729133903055E+01
(PID.TID 0000.0001) %MON ke_mean                      =   5.6508507378355E-01
(PID.TID 0000.0001) %MON ke_vol                       =   4.9523908919847E+19
(PID.TID 0000.0001) %MON vort_r_min                   =  -2.7172586660902E-05
(PID.TID 0000.0001) %MON vort_r_max                   =   1.5560437147000E-05
(PID.TID 0000.0001) %MON vort_a_mean                  =   6.7242814765279E-08
(PID.TID 0000.0001) %MON vort_a_sd                    =   8.3945296919225E-05
(PID.TID 0000.0001) %MON vort_p_mean                  =   6.8939449051085E-08
(PID.TID 0000.0001) %MON vort_p_sd                    =   9.1776823534350E-05
(PID.TID 0000.0001) %MON surfExpan_theta_mean         =   2.1035744165206E-01
(PID.TID 0000.0001) %MON surfExpan_salt_mean          =  -4.2486886333574E-05
(PID.TID 0000.0001) %MON surfExpan_Heat_mean          =  -1.7376649337489E+01
(PID.TID 0000.0001) %MON En_Budget_T2PE_mean          =   3.2879817631580E+01
(PID.TID 0000.0001) // =======================================================
(PID.TID 0000.0001) // End MONITOR dynamic field statistics
(PID.TID 0000.0001) // =======================================================
(PID.TID 0000.0001) // =======================================================
(PID.TID 0000.0001) // Begin MONITOR Land statistics
(PID.TID 0000.0001) // =======================================================
(PID.TID 0000.0001) %MON land_time_sec                =   3.1500000000000E+03
(PID.TID 0000.0001) %MON land_SnwH_ave_G              =   1.5324152734379E-01
(PID.TID 0000.0001) %MON land_SnwH_ave_S              =   5.5905735778070E-01
(PID.TID 0000.0001) %MON land_SnwH_ave_T              =   0.0000000000000E+00
(PID.TID 0000.0001) %MON land_SnwH_ave_N              =   1.2392752982885E-01
(PID.TID 0000.0001) %MON land_SnwH_max_S              =   9.9999645860852E-01
(PID.TID 0000.0001) %MON land_SnwH_max_T              =   0.0000000000000E+00
(PID.TID 0000.0001) %MON land_SnwH_max_N              =   9.9999949528239E-01
(PID.TID 0000.0001) %MON land_TotEnerg_G              =  -6.2970936329796E+21
(PID.TID 0000.0001) %MON land_TotEnerg_S              =  -4.9971974009685E+21
(PID.TID 0000.0001) %MON land_TotEnerg_T              =   7.3137986835693E+21
(PID.TID 0000.0001) %MON land_TotEnerg_N              =  -8.6136949155804E+21
(PID.TID 0000.0001) %MON land_Tsrf_ave_G              =  -6.4888876265136E+00
(PID.TID 0000.0001) %MON land_Tsrf_ave_S              =  -6.0908324994653E+00
(PID.TID 0000.0001) %MON land_Tsrf_ave_T              =   1.4434110725701E+01
(PID.TID 0000.0001) %MON land_Tsrf_ave_N              =  -2.0589777249095E+01
(PID.TID 0000.0001) %MON land_Tsrf_min_S              =  -3.4413045417679E+01
(PID.TID 0000.0001) %MON land_Tsrf_min_T              =  -6.3849503294363E+00
(PID.TID 0000.0001) %MON land_Tsrf_min_N              =  -5.1386197268733E+01
(PID.TID 0000.0001) %MON land_Tsrf_max_S              =   2.5790886032643E+01
(PID.TID 0000.0001) %MON land_Tsrf_max_T              =   2.8158964338772E+01
(PID.TID 0000.0001) %MON land_Tsrf_max_N              =   1.2186303313665E+01
(PID.TID 0000.0001) %MON land_Tgr1_ave_G              =  -5.1593517815434E+00
(PID.TID 0000.0001) %MON land_Tgr1_ave_S              =  -5.5952827039627E+00
(PID.TID 0000.0001) %MON land_Tgr1_ave_T              =   1.4434110725701E+01
(PID.TID 0000.0001) %MON land_Tgr1_ave_N              =  -1.8101876474943E+01
(PID.TID 0000.0001) %MON land_Tgr1_min_S              =  -3.9072120929936E+01
(PID.TID 0000.0001) %MON land_Tgr1_min_T              =  -6.3849503294363E+00
(PID.TID 0000.0001) %MON land_Tgr1_min_N              =  -5.4923747078715E+01
(PID.TID 0000.0001) %MON land_Tgr1_max_S              =   2.5790886032643E+01
(PID.TID 0000.0001) %MON land_Tgr1_max_T              =   2.8158964338772E+01
(PID.TID 0000.0001) %MON land_Tgr1_max_N              =   1.2186303313665E+01
(PID.TID 0000.0001) %MON land_Tgr2_ave_G              =   4.2066895211618E+00
(PID.TID 0000.0001) %MON land_Tgr2_ave_S              =  -1.8730278718137E+01
(PID.TID 0000.0001) %MON land_Tgr2_ave_T              =   2.2012469014756E+01
(PID.TID 0000.0001) %MON land_Tgr2_ave_N              =  -2.4287362596607E-01
(PID.TID 0000.0001) %MON land_Tgr2_min_S              =  -6.4759258575150E+01
(PID.TID 0000.0001) %MON land_Tgr2_min_T              =  -9.7048732271175E+00
(PID.TID 0000.0001) %MON land_Tgr2_min_N              =  -4.0195304155386E+01
(PID.TID 0000.0001) %MON land_Tgr2_max_S              =   2.3360603601990E+01
(PID.TID 0000.0001) %MON land_Tgr2_max_T              =   3.1358885584463E+01
(PID.TID 0000.0001) %MON land_Tgr2_max_N              =   2.9830172645294E+01
(PID.TID 0000.0001) %MON land_grdW_ave_G              =   4.8693635132541E-01
(PID.TID 0000.0001) %MON land_grdW_ave_S              =   3.0868557041564E-01
(PID.TID 0000.0001) %MON land_grdW_ave_T              =   5.6462745511266E-01
(PID.TID 0000.0001) %MON land_grdW_ave_N              =   4.9287998430057E-01
(PID.TID 0000.0001) %MON land_grdW_min_S              =   2.6109329152630E-02
(PID.TID 0000.0001) %MON land_grdW_min_T              =   0.0000000000000E+00
(PID.TID 0000.0001) %MON land_grdW_min_N              =   0.0000000000000E+00
(PID.TID 0000.0001) // =======================================================
(PID.TID 0000.0001) // End MONITOR Land statistics
(PID.TID 0000.0001) // =======================================================
(PID.TID 0000.0001) // =======================================================
(PID.TID 0000.0001) // Begin MONITOR Therm.SeaIce statistics
(PID.TID 0000.0001) // =======================================================
(PID.TID 0000.0001) %MON thSI_time_sec                =   3.1500000000000E+03
(PID.TID 0000.0001) %MON thSI_Ice_Area_G              =   8.6435779931671E+10
(PID.TID 0000.0001) %MON thSI_Ice_Area_S              =   0.0000000000000E+00
(PID.TID 0000.0001) %MON thSI_Ice_Area_N              =   8.6435779931671E+10
(PID.TID 0000.0001) %MON thSI_IceH_ave_G              =   1.1432912993391E-01
(PID.TID 0000.0001) %MON thSI_IceH_ave_S              =   0.0000000000000E+00
(PID.TID 0000.0001) %MON thSI_IceH_ave_N              =   1.1432912993391E-01
(PID.TID 0000.0001) %MON thSI_IceH_max_S              =   0.0000000000000E+00
(PID.TID 0000.0001) %MON thSI_IceH_max_N              =   1.1802193205614E-01
(PID.TID 0000.0001) %MON thSI_SnwH_ave_G              =   0.0000000000000E+00
(PID.TID 0000.0001) %MON thSI_SnwH_ave_S              =   0.0000000000000E+00
(PID.TID 0000.0001) %MON thSI_SnwH_ave_N              =   0.0000000000000E+00
(PID.TID 0000.0001) %MON thSI_SnwH_max_S              =   0.0000000000000E+00
(PID.TID 0000.0001) %MON thSI_SnwH_max_N              =   0.0000000000000E+00
(PID.TID 0000.0001) %MON thSI_TotEnerg_G              =  -2.9995718160569E+18
(PID.TID 0000.0001) %MON thSI_Tsrf_ave_G              =  -5.8816512423783E+00
(PID.TID 0000.0001) %MON thSI_Tsrf_ave_S              =   0.0000000000000E+00
(PID.TID 0000.0001) %MON thSI_Tsrf_ave_N              =  -5.8816512423783E+00
(PID.TID 0000.0001) %MON thSI_Tsrf_min_S              =   0.0000000000000E+00
(PID.TID 0000.0001) %MON thSI_Tsrf_min_N              =  -5.9584319633665E+00
(PID.TID 0000.0001) %MON thSI_Tsrf_max_S              =   0.0000000000000E+00
(PID.TID 0000.0001) %MON thSI_Tsrf_max_N              =  -5.7692161594137E+00
(PID.TID 0000.0001) %MON thSI_Tic1_ave_G              =  -3.4630424921430E+00
(PID.TID 0000.0001) %MON thSI_Tic1_ave_S              =   0.0000000000000E+00
(PID.TID 0000.0001) %MON thSI_Tic1_ave_N              =  -3.4630424921430E+00
(PID.TID 0000.0001) %MON thSI_Tic1_min_S              =   0.0000000000000E+00
(PID.TID 0000.0001) %MON thSI_Tic1_min_N              =  -3.5230012082289E+00
(PID.TID 0000.0001) %MON thSI_Tic1_max_S              =   0.0000000000000E+00
(PID.TID 0000.0001) %MON thSI_Tic1_max_N              =  -3.3720539440031E+00
(PID.TID 0000.0001) %MON thSI_Tic2_ave_G              =  -2.0541707012878E+00
(PID.TID 0000.0001) %MON thSI_Tic2_ave_S              =   0.0000000000000E+00
(PID.TID 0000.0001) %MON thSI_Tic2_ave_N              =  -2.0541707012878E+00
(PID.TID 0000.0001) %MON thSI_Tic2_min_S              =   0.0000000000000E+00
(PID.TID 0000.0001) %MON thSI_Tic2_min_N              =  -2.1068154167643E+00
(PID.TID 0000.0001) %MON thSI_Tic2_max_S              =   0.0000000000000E+00
(PID.TID 0000.0001) %MON thSI_Tic2_max_N              =  -1.9980138724307E+00
(PID.TID 0000.0001) // =======================================================
(PID.TID 0000.0001) // End MONITOR Therm.SeaIce statistics
(PID.TID 0000.0001) // =======================================================
 cg2d: Sum(rhs),rhsMax =   2.24190443987027E-10  2.24900403076379E+04
(PID.TID 0000.0001)                    cg2d_init_res =    2.04168326603540E+04
(PID.TID 0000.0001)                       cg2d_iters =    16
(PID.TID 0000.0001)                         cg2d_res =    7.63520128885161E-11
(PID.TID 0000.0001) // =======================================================
(PID.TID 0000.0001) // Begin MONITOR dynamic field statistics
(PID.TID 0000.0001) // =======================================================
(PID.TID 0000.0001) %MON time_tsnumber                =                     8
(PID.TID 0000.0001) %MON time_secondsf                =   3.6000000000000E+03
(PID.TID 0000.0001) %MON dynstat_eta_max              =   4.0365275838240E+03
(PID.TID 0000.0001) %MON dynstat_eta_min              =  -2.6638406200100E+03
(PID.TID 0000.0001) %MON dynstat_eta_mean             =  -2.6357883859479E-16
(PID.TID 0000.0001) %MON dynstat_eta_sd               =   4.0813397751119E+02
(PID.TID 0000.0001) %MON dynstat_eta_del2             =   3.9962284050806E+01
(PID.TID 0000.0001) %MON dynstat_uvel_max             =   7.2842502910678E+00
(PID.TID 0000.0001) %MON dynstat_uvel_min             =  -8.0386806515017E+00
(PID.TID 0000.0001) %MON dynstat_uvel_mean            =  -6.2833189903112E-03
(PID.TID 0000.0001) %MON dynstat_uvel_sd              =   7.7750228867751E-01
(PID.TID 0000.0001) %MON dynstat_uvel_del2            =   2.0360031466872E-02
(PID.TID 0000.0001) %MON dynstat_vvel_max             =   7.9155995096985E+00
(PID.TID 0000.0001) %MON dynstat_vvel_min             =  -8.4836729506727E+00
(PID.TID 0000.0001) %MON dynstat_vvel_mean            =   1.0454019102976E-02
(PID.TID 0000.0001) %MON dynstat_vvel_sd              =   7.8802749161902E-01
(PID.TID 0000.0001) %MON dynstat_vvel_del2            =   2.0508350878749E-02
(PID.TID 0000.0001) %MON dynstat_wvel_max             =   1.0982682505818E-01
(PID.TID 0000.0001) %MON dynstat_wvel_min             =  -3.7087586532548E-01
(PID.TID 0000.0001) %MON dynstat_wvel_mean            =  -1.9723087527706E-03
(PID.TID 0000.0001) %MON dynstat_wvel_sd              =   1.5069468986209E-02
(PID.TID 0000.0001) %MON dynstat_wvel_del2            =   1.2906363816472E-03
(PID.TID 0000.0001) %MON dynstat_theta_max            =   4.3755369281225E+02
(PID.TID 0000.0001) %MON dynstat_theta_min            =   2.8762342819065E+02
(PID.TID 0000.0001) %MON dynstat_theta_mean           =   3.3171360525138E+02
(PID.TID 0000.0001) %MON dynstat_theta_sd             =   4.7421620123729E+01
(PID.TID 0000.0001) %MON dynstat_theta_del2           =   1.0080088560695E-02
(PID.TID 0000.0001) %MON dynstat_salt_max             =   2.6593773752516E+00
(PID.TID 0000.0001) %MON dynstat_salt_min             =  -1.4288537769135E-03
(PID.TID 0000.0001) %MON dynstat_salt_mean            =   3.0833498610072E-02
(PID.TID 0000.0001) %MON dynstat_salt_sd              =   1.3141258420547E-01
(PID.TID 0000.0001) %MON dynstat_salt_del2            =   4.7917525540227E-03
(PID.TID 0000.0001) %MON advcfl_uvel_max              =   1.1433809739620E-02
(PID.TID 0000.0001) %MON advcfl_vvel_max              =   1.2032575108295E-02
(PID.TID 0000.0001) %MON advcfl_wvel_max              =   6.0688777962351E-03
(PID.TID 0000.0001) %MON advcfl_W_hf_max              =   1.8135930489941E-02
(PID.TID 0000.0001) %MON pe_b_mean                    =  -9.4083254121840E-01
(PID.TID 0000.0001) %MON ke_max                       =   3.7653373909941E+01
(PID.TID 0000.0001) %MON ke_mean                      =   6.0921502552204E-01
(PID.TID 0000.0001) %MON ke_vol                       =   4.9523908919847E+19
(PID.TID 0000.0001) %MON vort_r_min                   =  -2.7295509742081E-05
(PID.TID 0000.0001) %MON vort_r_max                   =   1.7960715426197E-05
(PID.TID 0000.0001) %MON vort_a_mean                  =   6.7242814765353E-08
(PID.TID 0000.0001) %MON vort_a_sd                    =   8.3947485211466E-05
(PID.TID 0000.0001) %MON vort_p_mean                  =   6.8939449220152E-08
(PID.TID 0000.0001) %MON vort_p_sd                    =   9.1802977981937E-05
(PID.TID 0000.0001) %MON surfExpan_theta_mean         =   1.9202406504755E-01
(PID.TID 0000.0001) %MON surfExpan_salt_mean          =  -6.0099482243149E-05
(PID.TID 0000.0001) %MON surfExpan_Heat_mean          =  -1.5926542908130E+01
(PID.TID 0000.0001) %MON En_Budget_T2PE_mean          =   3.0060075407442E+01
(PID.TID 0000.0001) // =======================================================
(PID.TID 0000.0001) // End MONITOR dynamic field statistics
(PID.TID 0000.0001) // =======================================================
(PID.TID 0000.0001) // =======================================================
(PID.TID 0000.0001) // Begin MONITOR Land statistics
(PID.TID 0000.0001) // =======================================================
(PID.TID 0000.0001) %MON land_time_sec                =   3.6000000000000E+03
(PID.TID 0000.0001) %MON land_SnwH_ave_G              =   1.5324044635652E-01
(PID.TID 0000.0001) %MON land_SnwH_ave_S              =   5.5905643127772E-01
(PID.TID 0000.0001) %MON land_SnwH_ave_T              =   0.0000000000000E+00
(PID.TID 0000.0001) %MON land_SnwH_ave_N              =   1.2392567687631E-01
(PID.TID 0000.0001) %MON land_SnwH_max_S              =   9.9999591808496E-01
(PID.TID 0000.0001) %MON land_SnwH_max_T              =   0.0000000000000E+00
(PID.TID 0000.0001) %MON land_SnwH_max_N              =   9.9999942775323E-01
(PID.TID 0000.0001) %MON land_TotEnerg_G              =  -6.3029113176681E+21
(PID.TID 0000.0001) %MON land_TotEnerg_S              =  -4.9978483617486E+21
(PID.TID 0000.0001) %MON land_TotEnerg_T              =   7.3095396480875E+21
(PID.TID 0000.0001) %MON land_TotEnerg_N              =  -8.6146026040069E+21
(PID.TID 0000.0001) %MON land_Tsrf_ave_G              =  -6.7003532736570E+00
(PID.TID 0000.0001) %MON land_Tsrf_ave_S              =  -6.1878753421635E+00
(PID.TID 0000.0001) %MON land_Tsrf_ave_T              =   1.3945540361418E+01
(PID.TID 0000.0001) %MON land_Tsrf_ave_N              =  -2.0653318576216E+01
(PID.TID 0000.0001) %MON land_Tsrf_min_S              =  -3.4292001714217E+01
(PID.TID 0000.0001) %MON land_Tsrf_min_T              =  -6.1817949795989E+00
(PID.TID 0000.0001) %MON land_Tsrf_min_N              =  -5.1697239867348E+01
(PID.TID 0000.0001) %MON land_Tsrf_max_S              =   2.5126702242596E+01
(PID.TID 0000.0001) %MON land_Tsrf_max_T              =   2.7293281849254E+01
(PID.TID 0000.0001) %MON land_Tsrf_max_N              =   1.1877236904024E+01
(PID.TID 0000.0001) %MON land_Tgr1_ave_G              =  -5.3860839153569E+00
(PID.TID 0000.0001) %MON land_Tgr1_ave_S              =  -5.7887201151158E+00
(PID.TID 0000.0001) %MON land_Tgr1_ave_T              =   1.3945540361418E+01
(PID.TID 0000.0001) %MON land_Tgr1_ave_N              =  -1.8164561344144E+01
(PID.TID 0000.0001) %MON land_Tgr1_min_S              =  -3.9083949879020E+01
(PID.TID 0000.0001) %MON land_Tgr1_min_T              =  -6.1817949795989E+00
(PID.TID 0000.0001) %MON land_Tgr1_min_N              =  -5.4910563130376E+01
(PID.TID 0000.0001) %MON land_Tgr1_max_S              =   2.5126702242596E+01
(PID.TID 0000.0001) %MON land_Tgr1_max_T              =   2.7293281849254E+01
(PID.TID 0000.0001) %MON land_Tgr1_max_N              =   1.1877236904024E+01
(PID.TID 0000.0001) %MON land_Tgr2_ave_G              =   4.2065433230508E+00
(PID.TID 0000.0001) %MON land_Tgr2_ave_S              =  -1.8730063060310E+01
(PID.TID 0000.0001) %MON land_Tgr2_ave_T              =   2.2012335760249E+01
(PID.TID 0000.0001) %MON land_Tgr2_ave_N              =  -2.4314585129689E-01
(PID.TID 0000.0001) %MON land_Tgr2_min_S              =  -6.4758825486453E+01
(PID.TID 0000.0001) %MON land_Tgr2_min_T              =  -9.7048287111682E+00
(PID.TID 0000.0001) %MON land_Tgr2_min_N              =  -4.0195543780521E+01
(PID.TID 0000.0001) %MON land_Tgr2_max_S              =   2.3360626907212E+01
(PID.TID 0000.0001) %MON land_Tgr2_max_T              =   3.1358543039086E+01
(PID.TID 0000.0001) %MON land_Tgr2_max_N              =   2.9829762999249E+01
(PID.TID 0000.0001) %MON land_grdW_ave_G              =   4.8692283620032E-01
(PID.TID 0000.0001) %MON land_grdW_ave_S              =   3.0867473171638E-01
(PID.TID 0000.0001) %MON land_grdW_ave_T              =   5.6459292901982E-01
(PID.TID 0000.0001) %MON land_grdW_ave_N              =   4.9287963146559E-01
(PID.TID 0000.0001) %MON land_grdW_min_S              =   2.6164622262445E-02
(PID.TID 0000.0001) %MON land_grdW_min_T              =   0.0000000000000E+00
(PID.TID 0000.0001) %MON land_grdW_min_N              =   0.0000000000000E+00
(PID.TID 0000.0001) // =======================================================
(PID.TID 0000.0001) // End MONITOR Land statistics
(PID.TID 0000.0001) // =======================================================
(PID.TID 0000.0001) // =======================================================
(PID.TID 0000.0001) // Begin MONITOR Therm.SeaIce statistics
(PID.TID 0000.0001) // =======================================================
(PID.TID 0000.0001) %MON thSI_time_sec                =   3.6000000000000E+03
(PID.TID 0000.0001) %MON thSI_Ice_Area_G              =   9.6677232454587E+10
(PID.TID 0000.0001) %MON thSI_Ice_Area_S              =   0.0000000000000E+00
(PID.TID 0000.0001) %MON thSI_Ice_Area_N              =   9.6677232454587E+10
(PID.TID 0000.0001) %MON thSI_IceH_ave_G              =   1.1673090097659E-01
(PID.TID 0000.0001) %MON thSI_IceH_ave_S              =   0.0000000000000E+00
(PID.TID 0000.0001) %MON thSI_IceH_ave_N              =   1.1673090097659E-01
(PID.TID 0000.0001) %MON thSI_IceH_max_S              =   0.0000000000000E+00
(PID.TID 0000.0001) %MON thSI_IceH_max_N              =   1.2105155792180E-01
(PID.TID 0000.0001) %MON thSI_SnwH_ave_G              =   0.0000000000000E+00
(PID.TID 0000.0001) %MON thSI_SnwH_ave_S              =   0.0000000000000E+00
(PID.TID 0000.0001) %MON thSI_SnwH_ave_N              =   0.0000000000000E+00
(PID.TID 0000.0001) %MON thSI_SnwH_max_S              =   0.0000000000000E+00
(PID.TID 0000.0001) %MON thSI_SnwH_max_N              =   0.0000000000000E+00
(PID.TID 0000.0001) %MON thSI_TotEnerg_G              =  -3.4315362741503E+18
(PID.TID 0000.0001) %MON thSI_Tsrf_ave_G              =  -6.1863038714327E+00
(PID.TID 0000.0001) %MON thSI_Tsrf_ave_S              =   0.0000000000000E+00
(PID.TID 0000.0001) %MON thSI_Tsrf_ave_N              =  -6.1863038714327E+00
(PID.TID 0000.0001) %MON thSI_Tsrf_min_S              =   0.0000000000000E+00
(PID.TID 0000.0001) %MON thSI_Tsrf_min_N              =  -6.2662056897127E+00
(PID.TID 0000.0001) %MON thSI_Tsrf_max_S              =   0.0000000000000E+00
(PID.TID 0000.0001) %MON thSI_Tsrf_max_N              =  -6.0643855157761E+00
(PID.TID 0000.0001) %MON thSI_Tic1_ave_G              =  -3.7624875117131E+00
(PID.TID 0000.0001) %MON thSI_Tic1_ave_S              =   0.0000000000000E+00
(PID.TID 0000.0001) %MON thSI_Tic1_ave_N              =  -3.7624875117131E+00
(PID.TID 0000.0001) %MON thSI_Tic1_min_S              =   0.0000000000000E+00
(PID.TID 0000.0001) %MON thSI_Tic1_min_N              =  -3.8217894976382E+00
(PID.TID 0000.0001) %MON thSI_Tic1_max_S              =   0.0000000000000E+00
(PID.TID 0000.0001) %MON thSI_Tic1_max_N              =  -3.6725618795520E+00
(PID.TID 0000.0001) %MON thSI_Tic2_ave_G              =  -2.1379897633113E+00
(PID.TID 0000.0001) %MON thSI_Tic2_ave_S              =   0.0000000000000E+00
(PID.TID 0000.0001) %MON thSI_Tic2_ave_N              =  -2.1379897633113E+00
(PID.TID 0000.0001) %MON thSI_Tic2_min_S              =   0.0000000000000E+00
(PID.TID 0000.0001) %MON thSI_Tic2_min_N              =  -2.1957641410109E+00
(PID.TID 0000.0001) %MON thSI_Tic2_max_S              =   0.0000000000000E+00
(PID.TID 0000.0001) %MON thSI_Tic2_max_N              =  -2.0822305230521E+00
(PID.TID 0000.0001) // =======================================================
(PID.TID 0000.0001) // End MONITOR Therm.SeaIce statistics
(PID.TID 0000.0001) // =======================================================
 cg2d: Sum(rhs),rhsMax =  -9.14042175281793E-11  2.20987617847319E+04
(PID.TID 0000.0001)                    cg2d_init_res =    1.96082174931834E+04
(PID.TID 0000.0001)                       cg2d_iters =    16
(PID.TID 0000.0001)                         cg2d_res =    7.89576621773832E-11
(PID.TID 0000.0001) // =======================================================
(PID.TID 0000.0001) // Begin MONITOR dynamic field statistics
(PID.TID 0000.0001) // =======================================================
(PID.TID 0000.0001) %MON time_tsnumber                =                     9
(PID.TID 0000.0001) %MON time_secondsf                =   4.0500000000000E+03
(PID.TID 0000.0001) %MON dynstat_eta_max              =   4.0104667191972E+03
(PID.TID 0000.0001) %MON dynstat_eta_min              =  -2.5308181726924E+03
(PID.TID 0000.0001) %MON dynstat_eta_mean             =   4.8950355739032E-15
(PID.TID 0000.0001) %MON dynstat_eta_sd               =   4.3495268960911E+02
(PID.TID 0000.0001) %MON dynstat_eta_del2             =   3.8777939860446E+01
(PID.TID 0000.0001) %MON dynstat_uvel_max             =   6.7846528441657E+00
(PID.TID 0000.0001) %MON dynstat_uvel_min             =  -7.7608307904787E+00
(PID.TID 0000.0001) %MON dynstat_uvel_mean            =  -6.9022526672719E-03
(PID.TID 0000.0001) %MON dynstat_uvel_sd              =   7.8622827709805E-01
(PID.TID 0000.0001) %MON dynstat_uvel_del2            =   2.0086287669198E-02
(PID.TID 0000.0001) %MON dynstat_vvel_max             =   8.3417417482177E+00
(PID.TID 0000.0001) %MON dynstat_vvel_min             =  -8.4377864269982E+00
(PID.TID 0000.0001) %MON dynstat_vvel_mean            =   1.2084467390234E-02
(PID.TID 0000.0001) %MON dynstat_vvel_sd              =   8.1917926908159E-01
(PID.TID 0000.0001) %MON dynstat_vvel_del2            =   2.0727947459729E-02
(PID.TID 0000.0001) %MON dynstat_wvel_max             =   1.4147777263442E-01
(PID.TID 0000.0001) %MON dynstat_wvel_min             =  -3.4698900004800E-01
(PID.TID 0000.0001) %MON dynstat_wvel_mean            =  -1.7925738302495E-03
(PID.TID 0000.0001) %MON dynstat_wvel_sd              =   1.4199439624273E-02
(PID.TID 0000.0001) %MON dynstat_wvel_del2            =   1.3173107825299E-03
(PID.TID 0000.0001) %MON dynstat_theta_max            =   4.3757200607899E+02
(PID.TID 0000.0001) %MON dynstat_theta_min            =   2.8738066200856E+02
(PID.TID 0000.0001) %MON dynstat_theta_mean           =   3.3171246978962E+02
(PID.TID 0000.0001) %MON dynstat_theta_sd             =   4.7423088172675E+01
(PID.TID 0000.0001) %MON dynstat_theta_del2           =   1.1000518851590E-02
(PID.TID 0000.0001) %MON dynstat_salt_max             =   2.8586366425191E+00
(PID.TID 0000.0001) %MON dynstat_salt_min             =  -1.7158378920765E-03
(PID.TID 0000.0001) %MON dynstat_salt_mean            =   3.4516188910648E-02
(PID.TID 0000.0001) %MON dynstat_salt_sd              =   1.4666338673375E-01
(PID.TID 0000.0001) %MON dynstat_salt_del2            =   5.2360633063733E-03
(PID.TID 0000.0001) %MON advcfl_uvel_max              =   1.1038610255421E-02
(PID.TID 0000.0001) %MON advcfl_vvel_max              =   1.1953552331711E-02
(PID.TID 0000.0001) %MON advcfl_wvel_max              =   5.6780018189672E-03
(PID.TID 0000.0001) %MON advcfl_W_hf_max              =   1.7584011010302E-02
(PID.TID 0000.0001) %MON pe_b_mean                    =  -9.9442333016598E-01
(PID.TID 0000.0001) %MON ke_max                       =   3.7653985793682E+01
(PID.TID 0000.0001) %MON ke_mean                      =   6.4090671703717E-01
(PID.TID 0000.0001) %MON ke_vol                       =   4.9523908919847E+19
(PID.TID 0000.0001) %MON vort_r_min                   =  -2.6920237744158E-05
(PID.TID 0000.0001) %MON vort_r_max                   =   1.9425118046834E-05
(PID.TID 0000.0001) %MON vort_a_mean                  =   6.7242814765333E-08
(PID.TID 0000.0001) %MON vort_a_sd                    =   8.3949784577303E-05
(PID.TID 0000.0001) %MON vort_p_mean                  =   6.8939449595707E-08
(PID.TID 0000.0001) %MON vort_p_sd                    =   9.1826042881269E-05
(PID.TID 0000.0001) %MON surfExpan_theta_mean         =   1.7451344604132E-01
(PID.TID 0000.0001) %MON surfExpan_salt_mean          =  -8.0214945655678E-05
(PID.TID 0000.0001) %MON surfExpan_Heat_mean          =  -1.4536384230911E+01
(PID.TID 0000.0001) %MON En_Budget_T2PE_mean          =   2.7368145312113E+01
(PID.TID 0000.0001) // =======================================================
(PID.TID 0000.0001) // End MONITOR dynamic field statistics
(PID.TID 0000.0001) // =======================================================
(PID.TID 0000.0001) // =======================================================
(PID.TID 0000.0001) // Begin MONITOR Land statistics
(PID.TID 0000.0001) // =======================================================
(PID.TID 0000.0001) %MON land_time_sec                =   4.0500000000000E+03
(PID.TID 0000.0001) %MON land_SnwH_ave_G              =   1.5323938350104E-01
(PID.TID 0000.0001) %MON land_SnwH_ave_S              =   5.5905549074647E-01
(PID.TID 0000.0001) %MON land_SnwH_ave_T              =   0.0000000000000E+00
(PID.TID 0000.0001) %MON land_SnwH_ave_N              =   1.2392386459596E-01
(PID.TID 0000.0001) %MON land_SnwH_max_S              =   9.9999536768642E-01
(PID.TID 0000.0001) %MON land_SnwH_max_T              =   0.0000000000000E+00
(PID.TID 0000.0001) %MON land_SnwH_max_N              =   9.9999936229122E-01
(PID.TID 0000.0001) %MON land_TotEnerg_G              =  -6.3081859861840E+21
(PID.TID 0000.0001) %MON land_TotEnerg_S              =  -4.9984259616501E+21
(PID.TID 0000.0001) %MON land_TotEnerg_T              =   7.3057237620082E+21
(PID.TID 0000.0001) %MON land_TotEnerg_N              =  -8.6154837865422E+21
(PID.TID 0000.0001) %MON land_Tsrf_ave_G              =  -6.8930729011025E+00
(PID.TID 0000.0001) %MON land_Tsrf_ave_S              =  -6.2948518877694E+00
(PID.TID 0000.0001) %MON land_Tsrf_ave_T              =   1.3507515633034E+01
(PID.TID 0000.0001) %MON land_Tsrf_ave_N              =  -2.0710045204862E+01
(PID.TID 0000.0001) %MON land_Tsrf_min_S              =  -3.4176803644336E+01
(PID.TID 0000.0001) %MON land_Tsrf_min_T              =  -5.9857476294955E+00
(PID.TID 0000.0001) %MON land_Tsrf_min_N              =  -5.1868129985696E+01
(PID.TID 0000.0001) %MON land_Tsrf_max_S              =   2.4532860384746E+01
(PID.TID 0000.0001) %MON land_Tsrf_max_T              =   2.6510948265147E+01
(PID.TID 0000.0001) %MON land_Tsrf_max_N              =   1.1588654316279E+01
(PID.TID 0000.0001) %MON land_Tgr1_ave_G              =  -5.5909898169292E+00
(PID.TID 0000.0001) %MON land_Tgr1_ave_S              =  -5.9620633840196E+00
(PID.TID 0000.0001) %MON land_Tgr1_ave_T              =   1.3507515633034E+01
(PID.TID 0000.0001) %MON land_Tgr1_ave_N              =  -1.8224036074802E+01
(PID.TID 0000.0001) %MON land_Tgr1_min_S              =  -3.9095612772658E+01
(PID.TID 0000.0001) %MON land_Tgr1_min_T              =  -5.9857476294955E+00
(PID.TID 0000.0001) %MON land_Tgr1_min_N              =  -5.4897567347393E+01
(PID.TID 0000.0001) %MON land_Tgr1_max_S              =   2.4532860384746E+01
(PID.TID 0000.0001) %MON land_Tgr1_max_T              =   2.6510948265147E+01
(PID.TID 0000.0001) %MON land_Tgr1_max_N              =   1.1588654316279E+01
(PID.TID 0000.0001) %MON land_Tgr2_ave_G              =   4.2063938119740E+00
(PID.TID 0000.0001) %MON land_Tgr2_ave_S              =  -1.8729850159366E+01
(PID.TID 0000.0001) %MON land_Tgr2_ave_T              =   2.2012195587489E+01
(PID.TID 0000.0001) %MON land_Tgr2_ave_N              =  -2.4341916247789E-01
(PID.TID 0000.0001) %MON land_Tgr2_min_S              =  -6.4758392618754E+01
(PID.TID 0000.0001) %MON land_Tgr2_min_T              =  -9.7047817186392E+00
(PID.TID 0000.0001) %MON land_Tgr2_min_N              =  -4.0195783157221E+01
(PID.TID 0000.0001) %MON land_Tgr2_max_S              =   2.3360639560483E+01
(PID.TID 0000.0001) %MON land_Tgr2_max_T              =   3.1358191353868E+01
(PID.TID 0000.0001) %MON land_Tgr2_max_N              =   2.9829344254960E+01
(PID.TID 0000.0001) %MON land_grdW_ave_G              =   4.8690999105357E-01
(PID.TID 0000.0001) %MON land_grdW_ave_S              =   3.0866425668018E-01
(PID.TID 0000.0001) %MON land_grdW_ave_T              =   5.6456021574989E-01
(PID.TID 0000.0001) %MON land_grdW_ave_N              =   4.9287928481776E-01
(PID.TID 0000.0001) %MON land_grdW_min_S              =   2.6224883377147E-02
(PID.TID 0000.0001) %MON land_grdW_min_T              =   0.0000000000000E+00
(PID.TID 0000.0001) %MON land_grdW_min_N              =   0.0000000000000E+00
(PID.TID 0000.0001) // =======================================================
(PID.TID 0000.0001) // End MONITOR Land statistics
(PID.TID 0000.0001) // =======================================================
(PID.TID 0000.0001) // =======================================================
(PID.TID 0000.0001) // Begin MONITOR Therm.SeaIce statistics
(PID.TID 0000.0001) // =======================================================
(PID.TID 0000.0001) %MON thSI_time_sec                =   4.0500000000000E+03
(PID.TID 0000.0001) %MON thSI_Ice_Area_G              =   1.0648599868993E+11
(PID.TID 0000.0001) %MON thSI_Ice_Area_S              =   0.0000000000000E+00
(PID.TID 0000.0001) %MON thSI_Ice_Area_N              =   1.0648599868993E+11
(PID.TID 0000.0001) %MON thSI_IceH_ave_G              =   1.1913363775153E-01
(PID.TID 0000.0001) %MON thSI_IceH_ave_S              =   0.0000000000000E+00
(PID.TID 0000.0001) %MON thSI_IceH_ave_N              =   1.1913363775153E-01
(PID.TID 0000.0001) %MON thSI_IceH_max_S              =   0.0000000000000E+00
(PID.TID 0000.0001) %MON thSI_IceH_max_N              =   1.2408300535833E-01
(PID.TID 0000.0001) %MON thSI_SnwH_ave_G              =   0.0000000000000E+00
(PID.TID 0000.0001) %MON thSI_SnwH_ave_S              =   0.0000000000000E+00
(PID.TID 0000.0001) %MON thSI_SnwH_ave_N              =   0.0000000000000E+00
(PID.TID 0000.0001) %MON thSI_SnwH_max_S              =   0.0000000000000E+00
(PID.TID 0000.0001) %MON thSI_SnwH_max_N              =   0.0000000000000E+00
(PID.TID 0000.0001) %MON thSI_TotEnerg_G              =  -3.8636593187674E+18
(PID.TID 0000.0001) %MON thSI_Tsrf_ave_G              =  -6.4745608796565E+00
(PID.TID 0000.0001) %MON thSI_Tsrf_ave_S              =   0.0000000000000E+00
(PID.TID 0000.0001) %MON thSI_Tsrf_ave_N              =  -6.4745608796565E+00
(PID.TID 0000.0001) %MON thSI_Tsrf_min_S              =   0.0000000000000E+00
(PID.TID 0000.0001) %MON thSI_Tsrf_min_N              =  -6.5563475176790E+00
(PID.TID 0000.0001) %MON thSI_Tsrf_max_S              =   0.0000000000000E+00
(PID.TID 0000.0001) %MON thSI_Tsrf_max_N              =  -6.3449556100640E+00
(PID.TID 0000.0001) %MON thSI_Tic1_ave_G              =  -4.0448017649463E+00
(PID.TID 0000.0001) %MON thSI_Tic1_ave_S              =   0.0000000000000E+00
(PID.TID 0000.0001) %MON thSI_Tic1_ave_N              =  -4.0448017649463E+00
(PID.TID 0000.0001) %MON thSI_Tic1_min_S              =   0.0000000000000E+00
(PID.TID 0000.0001) %MON thSI_Tic1_min_N              =  -4.1094258582269E+00
(PID.TID 0000.0001) %MON thSI_Tic1_max_S              =   0.0000000000000E+00
(PID.TID 0000.0001) %MON thSI_Tic1_max_N              =  -3.9574369572282E+00
(PID.TID 0000.0001) %MON thSI_Tic2_ave_G              =  -2.2198044708448E+00
(PID.TID 0000.0001) %MON thSI_Tic2_ave_S              =   0.0000000000000E+00
(PID.TID 0000.0001) %MON thSI_Tic2_ave_N              =  -2.2198044708448E+00
(PID.TID 0000.0001) %MON thSI_Tic2_min_S              =   0.0000000000000E+00
(PID.TID 0000.0001) %MON thSI_Tic2_min_N              =  -2.2830119351078E+00
(PID.TID 0000.0001) %MON thSI_Tic2_max_S              =   0.0000000000000E+00
(PID.TID 0000.0001) %MON thSI_Tic2_max_N              =  -2.1634768021655E+00
(PID.TID 0000.0001) // =======================================================
(PID.TID 0000.0001) // End MONITOR Therm.SeaIce statistics
(PID.TID 0000.0001) // =======================================================
 cg2d: Sum(rhs),rhsMax =   7.73070496506989E-11  2.12760325979112E+04
(PID.TID 0000.0001)                    cg2d_init_res =    1.88105112471696E+04
(PID.TID 0000.0001)                       cg2d_iters =    16
(PID.TID 0000.0001)                         cg2d_res =    8.15718476396406E-11
(PID.TID 0000.0001) // =======================================================
(PID.TID 0000.0001) // Begin MONITOR dynamic field statistics
(PID.TID 0000.0001) // =======================================================
(PID.TID 0000.0001) %MON time_tsnumber                =                    10
(PID.TID 0000.0001) %MON time_secondsf                =   4.5000000000000E+03
(PID.TID 0000.0001) %MON dynstat_eta_max              =   3.9166105659471E+03
(PID.TID 0000.0001) %MON dynstat_eta_min              =  -2.2942770799704E+03
(PID.TID 0000.0001) %MON dynstat_eta_mean             =   1.9580142295613E-15
(PID.TID 0000.0001) %MON dynstat_eta_sd               =   4.5913960312137E+02
(PID.TID 0000.0001) %MON dynstat_eta_del2             =   3.8102647622386E+01
(PID.TID 0000.0001) %MON dynstat_uvel_max             =   6.7832329179885E+00
(PID.TID 0000.0001) %MON dynstat_uvel_min             =  -7.2501701180454E+00
(PID.TID 0000.0001) %MON dynstat_uvel_mean            =  -7.4986515695922E-03
(PID.TID 0000.0001) %MON dynstat_uvel_sd              =   7.8901298384830E-01
(PID.TID 0000.0001) %MON dynstat_uvel_del2            =   2.0022624281892E-02
(PID.TID 0000.0001) %MON dynstat_vvel_max             =   8.5737330020757E+00
(PID.TID 0000.0001) %MON dynstat_vvel_min             =  -8.3899936702893E+00
(PID.TID 0000.0001) %MON dynstat_vvel_mean            =   1.3752086093763E-02
(PID.TID 0000.0001) %MON dynstat_vvel_sd              =   8.4021503290768E-01
(PID.TID 0000.0001) %MON dynstat_vvel_del2            =   2.0823735247763E-02
(PID.TID 0000.0001) %MON dynstat_wvel_max             =   1.6038388307668E-01
(PID.TID 0000.0001) %MON dynstat_wvel_min             =  -3.3666334054038E-01
(PID.TID 0000.0001) %MON dynstat_wvel_mean            =  -1.6233137090891E-03
(PID.TID 0000.0001) %MON dynstat_wvel_sd              =   1.3399189592425E-02
(PID.TID 0000.0001) %MON dynstat_wvel_del2            =   1.3329264142098E-03
(PID.TID 0000.0001) %MON dynstat_theta_max            =   4.3759291596470E+02
(PID.TID 0000.0001) %MON dynstat_theta_min            =   2.8713764269411E+02
(PID.TID 0000.0001) %MON dynstat_theta_mean           =   3.3171122178230E+02
(PID.TID 0000.0001) %MON dynstat_theta_sd             =   4.7424647410869E+01
(PID.TID 0000.0001) %MON dynstat_theta_del2           =   1.1986961912122E-02
(PID.TID 0000.0001) %MON dynstat_salt_max             =   3.0396882117555E+00
(PID.TID 0000.0001) %MON dynstat_salt_min             =  -1.8833156355756E-03
(PID.TID 0000.0001) %MON dynstat_salt_mean            =   3.8170533082528E-02
(PID.TID 0000.0001) %MON dynstat_salt_sd              =   1.6175016506782E-01
(PID.TID 0000.0001) %MON dynstat_salt_del2            =   5.6645655298802E-03
(PID.TID 0000.0001) %MON advcfl_uvel_max              =   1.0312272536181E-02
(PID.TID 0000.0001) %MON advcfl_vvel_max              =   1.2054709830878E-02
(PID.TID 0000.0001) %MON advcfl_wvel_max              =   5.5090364815699E-03
(PID.TID 0000.0001) %MON advcfl_W_hf_max              =   1.6859884744097E-02
(PID.TID 0000.0001) %MON pe_b_mean                    =  -1.0337208634575E+00
(PID.TID 0000.0001) %MON ke_max                       =   3.6090183828183E+01
(PID.TID 0000.0001) %MON ke_mean                      =   6.6046351434781E-01
(PID.TID 0000.0001) %MON ke_vol                       =   4.9523908919847E+19
(PID.TID 0000.0001) %MON vort_r_min                   =  -2.9127173460299E-05
(PID.TID 0000.0001) %MON vort_r_max                   =   1.9986057313082E-05
(PID.TID 0000.0001) %MON vort_a_mean                  =   6.7242814765420E-08
(PID.TID 0000.0001) %MON vort_a_sd                    =   8.3952171751843E-05
(PID.TID 0000.0001) %MON vort_p_mean                  =   6.8939450229584E-08
(PID.TID 0000.0001) %MON vort_p_sd                    =   9.1846029993555E-05
(PID.TID 0000.0001) %MON surfExpan_theta_mean         =   1.5783485591008E-01
(PID.TID 0000.0001) %MON surfExpan_salt_mean          =  -1.0296110168302E-04
(PID.TID 0000.0001) %MON surfExpan_Heat_mean          =  -1.3212243217433E+01
(PID.TID 0000.0001) %MON En_Budget_T2PE_mean          =   2.4809586718714E+01
(PID.TID 0000.0001) // =======================================================
(PID.TID 0000.0001) // End MONITOR dynamic field statistics
(PID.TID 0000.0001) // =======================================================
(PID.TID 0000.0001) // =======================================================
(PID.TID 0000.0001) // Begin MONITOR Land statistics
(PID.TID 0000.0001) // =======================================================
(PID.TID 0000.0001) %MON land_time_sec                =   4.5000000000000E+03
(PID.TID 0000.0001) %MON land_SnwH_ave_G              =   1.5323833872699E-01
(PID.TID 0000.0001) %MON land_SnwH_ave_S              =   5.5905454419567E-01
(PID.TID 0000.0001) %MON land_SnwH_ave_T              =   0.0000000000000E+00
(PID.TID 0000.0001) %MON land_SnwH_ave_N              =   1.2392209028950E-01
(PID.TID 0000.0001) %MON land_SnwH_max_S              =   9.9999481059575E-01
(PID.TID 0000.0001) %MON land_SnwH_max_T              =   0.0000000000000E+00
(PID.TID 0000.0001) %MON land_SnwH_max_N              =   9.9999929752786E-01
(PID.TID 0000.0001) %MON land_TotEnerg_G              =  -6.3129782824883E+21
(PID.TID 0000.0001) %MON land_TotEnerg_S              =  -4.9989391240829E+21
(PID.TID 0000.0001) %MON land_TotEnerg_T              =   7.3023011587758E+21
(PID.TID 0000.0001) %MON land_TotEnerg_N              =  -8.6163403171812E+21
(PID.TID 0000.0001) %MON land_Tsrf_ave_G              =  -7.0691356228560E+00
(PID.TID 0000.0001) %MON land_Tsrf_ave_S              =  -6.4113752721894E+00
(PID.TID 0000.0001) %MON land_Tsrf_ave_T              =   1.3114552650757E+01
(PID.TID 0000.0001) %MON land_Tsrf_ave_N              =  -2.0760582509818E+01
(PID.TID 0000.0001) %MON land_Tsrf_min_S              =  -3.4087176680562E+01
(PID.TID 0000.0001) %MON land_Tsrf_min_T              =  -5.7964677114398E+00
(PID.TID 0000.0001) %MON land_Tsrf_min_N              =  -5.1928076733935E+01
(PID.TID 0000.0001) %MON land_Tsrf_max_S              =   2.4001725559576E+01
(PID.TID 0000.0001) %MON land_Tsrf_max_T              =   2.5803554366920E+01
(PID.TID 0000.0001) %MON land_Tsrf_max_N              =   1.1317522723333E+01
(PID.TID 0000.0001) %MON land_Tgr1_ave_G              =  -5.7761536429655E+00
(PID.TID 0000.0001) %MON land_Tgr1_ave_S              =  -6.1169927967208E+00
(PID.TID 0000.0001) %MON land_Tgr1_ave_T              =   1.3114552650757E+01
(PID.TID 0000.0001) %MON land_Tgr1_ave_N              =  -1.8280245595034E+01
(PID.TID 0000.0001) %MON land_Tgr1_min_S              =  -3.9107108232173E+01
(PID.TID 0000.0001) %MON land_Tgr1_min_T              =  -5.7964677114398E+00
(PID.TID 0000.0001) %MON land_Tgr1_min_N              =  -5.4884651396335E+01
(PID.TID 0000.0001) %MON land_Tgr1_max_S              =   2.4001725559576E+01
(PID.TID 0000.0001) %MON land_Tgr1_max_T              =   2.5803554366920E+01
(PID.TID 0000.0001) %MON land_Tgr1_max_N              =   1.1317522723333E+01
(PID.TID 0000.0001) %MON land_Tgr2_ave_G              =   4.2062413200672E+00
(PID.TID 0000.0001) %MON land_Tgr2_ave_S              =  -1.8729639721994E+01
(PID.TID 0000.0001) %MON land_Tgr2_ave_T              =   2.2012049243707E+01
(PID.TID 0000.0001) %MON land_Tgr2_ave_N              =  -2.4369349196835E-01
(PID.TID 0000.0001) %MON land_Tgr2_min_S              =  -6.4757959970241E+01
(PID.TID 0000.0001) %MON land_Tgr2_min_T              =  -9.7047323350979E+00
(PID.TID 0000.0001) %MON land_Tgr2_min_N              =  -4.0196022287691E+01
(PID.TID 0000.0001) %MON land_Tgr2_max_S              =   2.3360642686951E+01
(PID.TID 0000.0001) %MON land_Tgr2_max_T              =   3.1357831369508E+01
(PID.TID 0000.0001) %MON land_Tgr2_max_N              =   2.9828916770138E+01
(PID.TID 0000.0001) %MON land_grdW_ave_G              =   4.8689775316644E-01
(PID.TID 0000.0001) %MON land_grdW_ave_S              =   3.0865410057602E-01
(PID.TID 0000.0001) %MON land_grdW_ave_T              =   5.6452915447090E-01
(PID.TID 0000.0001) %MON land_grdW_ave_N              =   4.9287894132042E-01
(PID.TID 0000.0001) %MON land_grdW_min_S              =   2.6289459026524E-02
(PID.TID 0000.0001) %MON land_grdW_min_T              =   0.0000000000000E+00
(PID.TID 0000.0001) %MON land_grdW_min_N              =   0.0000000000000E+00
(PID.TID 0000.0001) // =======================================================
(PID.TID 0000.0001) // End MONITOR Land statistics
(PID.TID 0000.0001) // =======================================================
(PID.TID 0000.0001) // =======================================================
(PID.TID 0000.0001) // Begin MONITOR Therm.SeaIce statistics
(PID.TID 0000.0001) // =======================================================
(PID.TID 0000.0001) %MON thSI_time_sec                =   4.5000000000000E+03
(PID.TID 0000.0001) %MON thSI_Ice_Area_G              =   1.1590104366110E+11
(PID.TID 0000.0001) %MON thSI_Ice_Area_S              =   0.0000000000000E+00
(PID.TID 0000.0001) %MON thSI_Ice_Area_N              =   1.1590104366110E+11
(PID.TID 0000.0001) %MON thSI_IceH_ave_G              =   1.2153989868369E-01
(PID.TID 0000.0001) %MON thSI_IceH_ave_S              =   0.0000000000000E+00
(PID.TID 0000.0001) %MON thSI_IceH_ave_N              =   1.2153989868369E-01
(PID.TID 0000.0001) %MON thSI_IceH_max_S              =   0.0000000000000E+00
(PID.TID 0000.0001) %MON thSI_IceH_max_N              =   1.2712037591411E-01
(PID.TID 0000.0001) %MON thSI_SnwH_ave_G              =   0.0000000000000E+00
(PID.TID 0000.0001) %MON thSI_SnwH_ave_S              =   0.0000000000000E+00
(PID.TID 0000.0001) %MON thSI_SnwH_ave_N              =   0.0000000000000E+00
(PID.TID 0000.0001) %MON thSI_SnwH_max_S              =   0.0000000000000E+00
(PID.TID 0000.0001) %MON thSI_SnwH_max_N              =   0.0000000000000E+00
(PID.TID 0000.0001) %MON thSI_TotEnerg_G              =  -4.2963830776577E+18
(PID.TID 0000.0001) %MON thSI_Tsrf_ave_G              =  -6.7449612355319E+00
(PID.TID 0000.0001) %MON thSI_Tsrf_ave_S              =   0.0000000000000E+00
(PID.TID 0000.0001) %MON thSI_Tsrf_ave_N              =  -6.7449612355319E+00
(PID.TID 0000.0001) %MON thSI_Tsrf_min_S              =   0.0000000000000E+00
(PID.TID 0000.0001) %MON thSI_Tsrf_min_N              =  -6.8281729358813E+00
(PID.TID 0000.0001) %MON thSI_Tsrf_max_S              =   0.0000000000000E+00
(PID.TID 0000.0001) %MON thSI_Tsrf_max_N              =  -6.6085488160232E+00
(PID.TID 0000.0001) %MON thSI_Tic1_ave_G              =  -4.3083699289039E+00
(PID.TID 0000.0001) %MON thSI_Tic1_ave_S              =   0.0000000000000E+00
(PID.TID 0000.0001) %MON thSI_Tic1_ave_N              =  -4.3083699289039E+00
(PID.TID 0000.0001) %MON thSI_Tic1_min_S              =   0.0000000000000E+00
(PID.TID 0000.0001) %MON thSI_Tic1_min_N              =  -4.3782374215081E+00
(PID.TID 0000.0001) %MON thSI_Tic1_max_S              =   0.0000000000000E+00
(PID.TID 0000.0001) %MON thSI_Tic1_max_N              =  -4.2244967086292E+00
(PID.TID 0000.0001) %MON thSI_Tic2_ave_G              =  -2.2984049881457E+00
(PID.TID 0000.0001) %MON thSI_Tic2_ave_S              =   0.0000000000000E+00
(PID.TID 0000.0001) %MON thSI_Tic2_ave_N              =  -2.2984049881457E+00
(PID.TID 0000.0001) %MON thSI_Tic2_min_S              =   0.0000000000000E+00
(PID.TID 0000.0001) %MON thSI_Tic2_min_N              =  -2.3671444119668E+00
(PID.TID 0000.0001) %MON thSI_Tic2_max_S              =   0.0000000000000E+00
(PID.TID 0000.0001) %MON thSI_Tic2_max_N              =  -2.2374743077175E+00
(PID.TID 0000.0001) // =======================================================
(PID.TID 0000.0001) // End MONITOR Therm.SeaIce statistics
(PID.TID 0000.0001) // =======================================================
 cg2d: Sum(rhs),rhsMax =   3.03771230392158E-10  2.03646795959468E+04
(PID.TID 0000.0001)                    cg2d_init_res =    1.78976390403519E+04
(PID.TID 0000.0001)                       cg2d_iters =    16
(PID.TID 0000.0001)                         cg2d_res =    8.53267074773603E-11
(PID.TID 0000.0001) // =======================================================
(PID.TID 0000.0001) // Begin MONITOR dynamic field statistics
(PID.TID 0000.0001) // =======================================================
(PID.TID 0000.0001) %MON time_tsnumber                =                    11
(PID.TID 0000.0001) %MON time_secondsf                =   4.9500000000000E+03
(PID.TID 0000.0001) %MON dynstat_eta_max              =   3.8564571972088E+03
(PID.TID 0000.0001) %MON dynstat_eta_min              =  -2.0306568748624E+03
(PID.TID 0000.0001) %MON dynstat_eta_mean             =   7.0287690291943E-15
(PID.TID 0000.0001) %MON dynstat_eta_sd               =   4.8107793327971E+02
(PID.TID 0000.0001) %MON dynstat_eta_del2             =   3.7824191133512E+01
(PID.TID 0000.0001) %MON dynstat_uvel_max             =   6.7152215954800E+00
(PID.TID 0000.0001) %MON dynstat_uvel_min             =  -6.6378156601727E+00
(PID.TID 0000.0001) %MON dynstat_uvel_mean            =  -8.0685495664492E-03
(PID.TID 0000.0001) %MON dynstat_uvel_sd              =   7.8823049518070E-01
(PID.TID 0000.0001) %MON dynstat_uvel_del2            =   1.9966209562550E-02
(PID.TID 0000.0001) %MON dynstat_vvel_max             =   8.5050171953393E+00
(PID.TID 0000.0001) %MON dynstat_vvel_min             =  -8.1351514196193E+00
(PID.TID 0000.0001) %MON dynstat_vvel_mean            =   1.5438710344764E-02
(PID.TID 0000.0001) %MON dynstat_vvel_sd              =   8.5145996293910E-01
(PID.TID 0000.0001) %MON dynstat_vvel_del2            =   2.0651874595459E-02
(PID.TID 0000.0001) %MON dynstat_wvel_max             =   1.7183295852367E-01
(PID.TID 0000.0001) %MON dynstat_wvel_min             =  -3.2137929880703E-01
(PID.TID 0000.0001) %MON dynstat_wvel_mean            =  -1.4608206482390E-03
(PID.TID 0000.0001) %MON dynstat_wvel_sd              =   1.2568324169584E-02
(PID.TID 0000.0001) %MON dynstat_wvel_del2            =   1.3316292194320E-03
(PID.TID 0000.0001) %MON dynstat_theta_max            =   4.3764977462999E+02
(PID.TID 0000.0001) %MON dynstat_theta_min            =   2.8689488908045E+02
(PID.TID 0000.0001) %MON dynstat_theta_mean           =   3.3170987976615E+02
(PID.TID 0000.0001) %MON dynstat_theta_sd             =   4.7426284188038E+01
(PID.TID 0000.0001) %MON dynstat_theta_del2           =   1.3018714578303E-02
(PID.TID 0000.0001) %MON dynstat_salt_max             =   3.2045510763105E+00
(PID.TID 0000.0001) %MON dynstat_salt_min             =  -2.2327618256352E-03
(PID.TID 0000.0001) %MON dynstat_salt_mean            =   4.1798051407143E-02
(PID.TID 0000.0001) %MON dynstat_salt_sd              =   1.7647559155717E-01
(PID.TID 0000.0001) %MON dynstat_salt_del2            =   6.0784689275430E-03
(PID.TID 0000.0001) %MON advcfl_uvel_max              =   9.5451924097519E-03
(PID.TID 0000.0001) %MON advcfl_vvel_max              =   1.1958095076161E-02
(PID.TID 0000.0001) %MON advcfl_wvel_max              =   5.2589339804787E-03
(PID.TID 0000.0001) %MON advcfl_W_hf_max              =   1.5933265271069E-02
(PID.TID 0000.0001) %MON pe_b_mean                    =  -1.0604423009029E+00
(PID.TID 0000.0001) %MON ke_max                       =   3.7025730818372E+01
(PID.TID 0000.0001) %MON ke_mean                      =   6.6933381564075E-01
(PID.TID 0000.0001) %MON ke_vol                       =   4.9523908919847E+19
(PID.TID 0000.0001) %MON vort_r_min                   =  -3.1222965161329E-05
(PID.TID 0000.0001) %MON vort_r_max                   =   1.9764752125328E-05
(PID.TID 0000.0001) %MON vort_a_mean                  =   6.7242814765249E-08
(PID.TID 0000.0001) %MON vort_a_sd                    =   8.3954627539573E-05
(PID.TID 0000.0001) %MON vort_p_mean                  =   6.8939451133163E-08
(PID.TID 0000.0001) %MON vort_p_sd                    =   9.1863115490885E-05
(PID.TID 0000.0001) %MON surfExpan_theta_mean         =   1.4165748579358E-01
(PID.TID 0000.0001) %MON surfExpan_salt_mean          =  -1.2840107780406E-04
(PID.TID 0000.0001) %MON surfExpan_Heat_mean          =  -1.1929022197281E+01
(PID.TID 0000.0001) %MON En_Budget_T2PE_mean          =   2.2333683497573E+01
(PID.TID 0000.0001) // =======================================================
(PID.TID 0000.0001) // End MONITOR dynamic field statistics
(PID.TID 0000.0001) // =======================================================
(PID.TID 0000.0001) // =======================================================
(PID.TID 0000.0001) // Begin MONITOR Land statistics
(PID.TID 0000.0001) // =======================================================
(PID.TID 0000.0001) %MON land_time_sec                =   4.9500000000000E+03
(PID.TID 0000.0001) %MON land_SnwH_ave_G              =   1.5323731180967E-01
(PID.TID 0000.0001) %MON land_SnwH_ave_S              =   5.5905359901982E-01
(PID.TID 0000.0001) %MON land_SnwH_ave_T              =   0.0000000000000E+00
(PID.TID 0000.0001) %MON land_SnwH_ave_N              =   1.2392035111056E-01
(PID.TID 0000.0001) %MON land_SnwH_max_S              =   9.9999425139927E-01
(PID.TID 0000.0001) %MON land_SnwH_max_T              =   0.0000000000000E+00
(PID.TID 0000.0001) %MON land_SnwH_max_N              =   9.9999923289053E-01
(PID.TID 0000.0001) %MON land_TotEnerg_G              =  -6.3173378220893E+21
(PID.TID 0000.0001) %MON land_TotEnerg_S              =  -4.9993953526211E+21
(PID.TID 0000.0001) %MON land_TotEnerg_T              =   7.2992311961954E+21
(PID.TID 0000.0001) %MON land_TotEnerg_N              =  -8.6171736656636E+21
(PID.TID 0000.0001) %MON land_Tsrf_ave_G              =  -7.2310258222323E+00
(PID.TID 0000.0001) %MON land_Tsrf_ave_S              =  -6.5358983966207E+00
(PID.TID 0000.0001) %MON land_Tsrf_ave_T              =   1.2761690746128E+01
(PID.TID 0000.0001) %MON land_Tsrf_ave_N              =  -2.0807069072239E+01
(PID.TID 0000.0001) %MON land_Tsrf_min_S              =  -3.4033871102466E+01
(PID.TID 0000.0001) %MON land_Tsrf_min_T              =  -5.6136283928749E+00
(PID.TID 0000.0001) %MON land_Tsrf_min_N              =  -5.1940639538050E+01
(PID.TID 0000.0001) %MON land_Tsrf_max_S              =   2.3526615046373E+01
(PID.TID 0000.0001) %MON land_Tsrf_max_T              =   2.5163656748473E+01
(PID.TID 0000.0001) %MON land_Tsrf_max_N              =   1.1057055531084E+01
(PID.TID 0000.0001) %MON land_Tgr1_ave_G              =  -5.9438432154699E+00
(PID.TID 0000.0001) %MON land_Tgr1_ave_S              =  -6.2554718344957E+00
(PID.TID 0000.0001) %MON land_Tgr1_ave_T              =   1.2761690746128E+01
(PID.TID 0000.0001) %MON land_Tgr1_ave_N              =  -1.8333758249454E+01
(PID.TID 0000.0001) %MON land_Tgr1_min_S              =  -3.9118451693888E+01
(PID.TID 0000.0001) %MON land_Tgr1_min_T              =  -5.6136283928749E+00
(PID.TID 0000.0001) %MON land_Tgr1_min_N              =  -5.4871769008750E+01
(PID.TID 0000.0001) %MON land_Tgr1_max_S              =   2.3526615046373E+01
(PID.TID 0000.0001) %MON land_Tgr1_max_T              =   2.5163656748473E+01
(PID.TID 0000.0001) %MON land_Tgr1_max_N              =   1.1057055531084E+01
(PID.TID 0000.0001) %MON land_Tgr2_ave_G              =   4.2060861360065E+00
(PID.TID 0000.0001) %MON land_Tgr2_ave_S              =  -1.8729431485477E+01
(PID.TID 0000.0001) %MON land_Tgr2_ave_T              =   2.2011897382020E+01
(PID.TID 0000.0001) %MON land_Tgr2_ave_N              =  -2.4396878603373E-01
(PID.TID 0000.0001) %MON land_Tgr2_min_S              =  -6.4757527539692E+01
(PID.TID 0000.0001) %MON land_Tgr2_min_T              =  -9.7046806419796E+00
(PID.TID 0000.0001) %MON land_Tgr2_min_N              =  -4.0196261172597E+01
(PID.TID 0000.0001) %MON land_Tgr2_max_S              =   2.3360637283420E+01
(PID.TID 0000.0001) %MON land_Tgr2_max_T              =   3.1357463812024E+01
(PID.TID 0000.0001) %MON land_Tgr2_max_N              =   2.9828480850178E+01
(PID.TID 0000.0001) %MON land_grdW_ave_G              =   4.8688607372505E-01
(PID.TID 0000.0001) %MON land_grdW_ave_S              =   3.0864422722227E-01
(PID.TID 0000.0001) %MON land_grdW_ave_T              =   5.6449961940760E-01
(PID.TID 0000.0001) %MON land_grdW_ave_N              =   4.9287859945438E-01
(PID.TID 0000.0001) %MON land_grdW_min_S              =   2.6357780527671E-02
(PID.TID 0000.0001) %MON land_grdW_min_T              =   0.0000000000000E+00
(PID.TID 0000.0001) %MON land_grdW_min_N              =   0.0000000000000E+00
(PID.TID 0000.0001) // =======================================================
(PID.TID 0000.0001) // End MONITOR Land statistics
(PID.TID 0000.0001) // =======================================================
(PID.TID 0000.0001) // =======================================================
(PID.TID 0000.0001) // Begin MONITOR Therm.SeaIce statistics
(PID.TID 0000.0001) // =======================================================
(PID.TID 0000.0001) %MON thSI_time_sec                =   4.9500000000000E+03
(PID.TID 0000.0001) %MON thSI_Ice_Area_G              =   1.2494700777248E+11
(PID.TID 0000.0001) %MON thSI_Ice_Area_S              =   0.0000000000000E+00
(PID.TID 0000.0001) %MON thSI_Ice_Area_N              =   1.2494700777248E+11
(PID.TID 0000.0001) %MON thSI_IceH_ave_G              =   1.2394920489647E-01
(PID.TID 0000.0001) %MON thSI_IceH_ave_S              =   0.0000000000000E+00
(PID.TID 0000.0001) %MON thSI_IceH_ave_N              =   1.2394920489647E-01
(PID.TID 0000.0001) %MON thSI_IceH_max_S              =   0.0000000000000E+00
(PID.TID 0000.0001) %MON thSI_IceH_max_N              =   1.3016300632075E-01
(PID.TID 0000.0001) %MON thSI_SnwH_ave_G              =   0.0000000000000E+00
(PID.TID 0000.0001) %MON thSI_SnwH_ave_S              =   0.0000000000000E+00
(PID.TID 0000.0001) %MON thSI_SnwH_ave_N              =   0.0000000000000E+00
(PID.TID 0000.0001) %MON thSI_SnwH_max_S              =   0.0000000000000E+00
(PID.TID 0000.0001) %MON thSI_SnwH_max_N              =   0.0000000000000E+00
(PID.TID 0000.0001) %MON thSI_TotEnerg_G              =  -4.7296619234832E+18
(PID.TID 0000.0001) %MON thSI_Tsrf_ave_G              =  -6.9971815297352E+00
(PID.TID 0000.0001) %MON thSI_Tsrf_ave_S              =   0.0000000000000E+00
(PID.TID 0000.0001) %MON thSI_Tsrf_ave_N              =  -6.9971815297352E+00
(PID.TID 0000.0001) %MON thSI_Tsrf_min_S              =   0.0000000000000E+00
(PID.TID 0000.0001) %MON thSI_Tsrf_min_N              =  -7.0818459473892E+00
(PID.TID 0000.0001) %MON thSI_Tsrf_max_S              =   0.0000000000000E+00
(PID.TID 0000.0001) %MON thSI_Tsrf_max_N              =  -6.8541438048846E+00
(PID.TID 0000.0001) %MON thSI_Tic1_ave_G              =  -4.5528282155567E+00
(PID.TID 0000.0001) %MON thSI_Tic1_ave_S              =   0.0000000000000E+00
(PID.TID 0000.0001) %MON thSI_Tic1_ave_N              =  -4.5528282155567E+00
(PID.TID 0000.0001) %MON thSI_Tic1_min_S              =   0.0000000000000E+00
(PID.TID 0000.0001) %MON thSI_Tic1_min_N              =  -4.6275514185321E+00
(PID.TID 0000.0001) %MON thSI_Tic1_max_S              =   0.0000000000000E+00
(PID.TID 0000.0001) %MON thSI_Tic1_max_N              =  -4.4729568261900E+00
(PID.TID 0000.0001) %MON thSI_Tic2_ave_G              =  -2.3730007950442E+00
(PID.TID 0000.0001) %MON thSI_Tic2_ave_S              =   0.0000000000000E+00
(PID.TID 0000.0001) %MON thSI_Tic2_ave_N              =  -2.3730007950442E+00
(PID.TID 0000.0001) %MON thSI_Tic2_min_S              =   0.0000000000000E+00
(PID.TID 0000.0001) %MON thSI_Tic2_min_N              =  -2.4472209418469E+00
(PID.TID 0000.0001) %MON thSI_Tic2_max_S              =   0.0000000000000E+00
(PID.TID 0000.0001) %MON thSI_Tic2_max_N              =  -2.3074946118602E+00
(PID.TID 0000.0001) // =======================================================
(PID.TID 0000.0001) // End MONITOR Therm.SeaIce statistics
(PID.TID 0000.0001) // =======================================================
 cg2d: Sum(rhs),rhsMax =   7.45785655453801E-11  2.18455115510468E+04
(PID.TID 0000.0001)                    cg2d_init_res =    1.68430769073330E+04
(PID.TID 0000.0001)                       cg2d_iters =    16
(PID.TID 0000.0001)                         cg2d_res =    9.07172322590757E-11
(PID.TID 0000.0001) // =======================================================
(PID.TID 0000.0001) // Begin MONITOR dynamic field statistics
(PID.TID 0000.0001) // =======================================================
(PID.TID 0000.0001) %MON time_tsnumber                =                    12
(PID.TID 0000.0001) %MON time_secondsf                =   5.4000000000000E+03
(PID.TID 0000.0001) %MON dynstat_eta_max              =   4.1634357062497E+03
(PID.TID 0000.0001) %MON dynstat_eta_min              =  -1.8281170721966E+03
(PID.TID 0000.0001) %MON dynstat_eta_mean             =   4.5686998689763E-15
(PID.TID 0000.0001) %MON dynstat_eta_sd               =   5.0078012323466E+02
(PID.TID 0000.0001) %MON dynstat_eta_del2             =   3.7766435345760E+01
(PID.TID 0000.0001) %MON dynstat_uvel_max             =   6.4427395292260E+00
(PID.TID 0000.0001) %MON dynstat_uvel_min             =  -6.1497576114420E+00
(PID.TID 0000.0001) %MON dynstat_uvel_mean            =  -8.5971022970186E-03
(PID.TID 0000.0001) %MON dynstat_uvel_sd              =   7.8606576582261E-01
(PID.TID 0000.0001) %MON dynstat_uvel_del2            =   1.9862263021072E-02
(PID.TID 0000.0001) %MON dynstat_vvel_max             =   8.1719880534150E+00
(PID.TID 0000.0001) %MON dynstat_vvel_min             =  -8.0080163457707E+00
(PID.TID 0000.0001) %MON dynstat_vvel_mean            =   1.7127420951039E-02
(PID.TID 0000.0001) %MON dynstat_vvel_sd              =   8.5425676447483E-01
(PID.TID 0000.0001) %MON dynstat_vvel_del2            =   2.0380486836560E-02
(PID.TID 0000.0001) %MON dynstat_wvel_max             =   1.6311529632624E-01
(PID.TID 0000.0001) %MON dynstat_wvel_min             =  -3.0035332922304E-01
(PID.TID 0000.0001) %MON dynstat_wvel_mean            =  -1.3011877355159E-03
(PID.TID 0000.0001) %MON dynstat_wvel_sd              =   1.1672774688281E-02
(PID.TID 0000.0001) %MON dynstat_wvel_del2            =   1.3169895197801E-03
(PID.TID 0000.0001) %MON dynstat_theta_max            =   4.3770049422505E+02
(PID.TID 0000.0001) %MON dynstat_theta_min            =   2.8665296953762E+02
(PID.TID 0000.0001) %MON dynstat_theta_mean           =   3.3170845883621E+02
(PID.TID 0000.0001) %MON dynstat_theta_sd             =   4.7427986386125E+01
(PID.TID 0000.0001) %MON dynstat_theta_del2           =   1.4077126769437E-02
(PID.TID 0000.0001) %MON dynstat_salt_max             =   3.3549971999774E+00
(PID.TID 0000.0001) %MON dynstat_salt_min             =  -1.9522713359324E-03
(PID.TID 0000.0001) %MON dynstat_salt_mean            =   4.5400312180368E-02
(PID.TID 0000.0001) %MON dynstat_salt_sd              =   1.9077928677042E-01
(PID.TID 0000.0001) %MON dynstat_salt_del2            =   6.4770663254525E-03
(PID.TID 0000.0001) %MON advcfl_uvel_max              =   9.0434836961134E-03
(PID.TID 0000.0001) %MON advcfl_vvel_max              =   1.1489854501122E-02
(PID.TID 0000.0001) %MON advcfl_wvel_max              =   4.9148726600134E-03
(PID.TID 0000.0001) %MON advcfl_W_hf_max              =   1.4774417659089E-02
(PID.TID 0000.0001) %MON pe_b_mean                    =  -1.0773214048395E+00
(PID.TID 0000.0001) %MON ke_max                       =   3.6800968040024E+01
(PID.TID 0000.0001) %MON ke_mean                      =   6.7004159693994E-01
(PID.TID 0000.0001) %MON ke_vol                       =   4.9523908919847E+19
(PID.TID 0000.0001) %MON vort_r_min                   =  -3.1915050508142E-05
(PID.TID 0000.0001) %MON vort_r_max                   =   1.8910069184402E-05
(PID.TID 0000.0001) %MON vort_a_mean                  =   6.7242814765286E-08
(PID.TID 0000.0001) %MON vort_a_sd                    =   8.3957136173348E-05
(PID.TID 0000.0001) %MON vort_p_mean                  =   6.8939452288864E-08
(PID.TID 0000.0001) %MON vort_p_sd                    =   9.1877452614597E-05
(PID.TID 0000.0001) %MON surfExpan_theta_mean         =   1.2564834609616E-01
(PID.TID 0000.0001) %MON surfExpan_salt_mean          =  -1.5658169959569E-04
(PID.TID 0000.0001) %MON surfExpan_Heat_mean          =  -1.0657801117082E+01
(PID.TID 0000.0001) %MON En_Budget_T2PE_mean          =   1.9885807969168E+01
(PID.TID 0000.0001) // =======================================================
(PID.TID 0000.0001) // End MONITOR dynamic field statistics
(PID.TID 0000.0001) // =======================================================
(PID.TID 0000.0001) // =======================================================
(PID.TID 0000.0001) // Begin MONITOR Land statistics
(PID.TID 0000.0001) // =======================================================
(PID.TID 0000.0001) %MON land_time_sec                =   5.4000000000000E+03
(PID.TID 0000.0001) %MON land_SnwH_ave_G              =   1.5323630239310E-01
(PID.TID 0000.0001) %MON land_SnwH_ave_S              =   5.5905266135565E-01
(PID.TID 0000.0001) %MON land_SnwH_ave_T              =   0.0000000000000E+00
(PID.TID 0000.0001) %MON land_SnwH_ave_N              =   1.2391864435925E-01
(PID.TID 0000.0001) %MON land_SnwH_max_S              =   9.9999369384268E-01
(PID.TID 0000.0001) %MON land_SnwH_max_T              =   0.0000000000000E+00
(PID.TID 0000.0001) %MON land_SnwH_max_N              =   9.9999916831314E-01
(PID.TID 0000.0001) %MON land_TotEnerg_G              =  -6.3213081116456E+21
(PID.TID 0000.0001) %MON land_TotEnerg_S              =  -4.9998010557574E+21
(PID.TID 0000.0001) %MON land_TotEnerg_T              =   7.2964779523241E+21
(PID.TID 0000.0001) %MON land_TotEnerg_N              =  -8.6179850082123E+21
(PID.TID 0000.0001) %MON land_Tsrf_ave_G              =  -7.3803663489434E+00
(PID.TID 0000.0001) %MON land_Tsrf_ave_S              =  -6.6651592909660E+00
(PID.TID 0000.0001) %MON land_Tsrf_ave_T              =   1.2444899560882E+01
(PID.TID 0000.0001) %MON land_Tsrf_ave_N              =  -2.0851104684212E+01
(PID.TID 0000.0001) %MON land_Tsrf_min_S              =  -3.4010623849243E+01
(PID.TID 0000.0001) %MON land_Tsrf_min_T              =  -5.4369175974185E+00
(PID.TID 0000.0001) %MON land_Tsrf_min_N              =  -5.1948273320652E+01
(PID.TID 0000.0001) %MON land_Tsrf_max_S              =   2.3101645726162E+01
(PID.TID 0000.0001) %MON land_Tsrf_max_T              =   2.4584653755993E+01
(PID.TID 0000.0001) %MON land_Tsrf_max_N              =   1.0807273448830E+01
(PID.TID 0000.0001) %MON land_Tgr1_ave_G              =  -6.0959596127912E+00
(PID.TID 0000.0001) %MON land_Tgr1_ave_S              =  -6.3793213076714E+00
(PID.TID 0000.0001) %MON land_Tgr1_ave_T              =   1.2444899560882E+01
(PID.TID 0000.0001) %MON land_Tgr1_ave_N              =  -1.8385079284362E+01
(PID.TID 0000.0001) %MON land_Tgr1_min_S              =  -3.9129675906665E+01
(PID.TID 0000.0001) %MON land_Tgr1_min_T              =  -5.4369175974185E+00
(PID.TID 0000.0001) %MON land_Tgr1_min_N              =  -5.4858915330135E+01
(PID.TID 0000.0001) %MON land_Tgr1_max_S              =   2.3101645726162E+01
(PID.TID 0000.0001) %MON land_Tgr1_max_T              =   2.4584653755993E+01
(PID.TID 0000.0001) %MON land_Tgr1_max_N              =   1.0807273448830E+01
(PID.TID 0000.0001) %MON land_Tgr2_ave_G              =   4.2059285150921E+00
(PID.TID 0000.0001) %MON land_Tgr2_ave_S              =  -1.8729225216202E+01
(PID.TID 0000.0001) %MON land_Tgr2_ave_T              =   2.2011740585097E+01
(PID.TID 0000.0001) %MON land_Tgr2_ave_N              =  -2.4424500094572E-01
(PID.TID 0000.0001) %MON land_Tgr2_min_S              =  -6.4757095326376E+01
(PID.TID 0000.0001) %MON land_Tgr2_min_T              =  -9.7046267167737E+00
(PID.TID 0000.0001) %MON land_Tgr2_min_N              =  -4.0196499812173E+01
(PID.TID 0000.0001) %MON land_Tgr2_max_S              =   2.3360624235376E+01
(PID.TID 0000.0001) %MON land_Tgr2_max_T              =   3.1357089311954E+01
(PID.TID 0000.0001) %MON land_Tgr2_max_N              =   2.9828036777191E+01
(PID.TID 0000.0001) %MON land_grdW_ave_G              =   4.8687490715201E-01
(PID.TID 0000.0001) %MON land_grdW_ave_S              =   3.0863460653564E-01
(PID.TID 0000.0001) %MON land_grdW_ave_T              =   5.6447149050796E-01
(PID.TID 0000.0001) %MON land_grdW_ave_N              =   4.9287825834806E-01
(PID.TID 0000.0001) %MON land_grdW_min_S              =   2.6429350453644E-02
(PID.TID 0000.0001) %MON land_grdW_min_T              =   0.0000000000000E+00
(PID.TID 0000.0001) %MON land_grdW_min_N              =   0.0000000000000E+00
(PID.TID 0000.0001) // =======================================================
(PID.TID 0000.0001) // End MONITOR Land statistics
(PID.TID 0000.0001) // =======================================================
(PID.TID 0000.0001) // =======================================================
(PID.TID 0000.0001) // Begin MONITOR Therm.SeaIce statistics
(PID.TID 0000.0001) // =======================================================
(PID.TID 0000.0001) %MON thSI_time_sec                =   5.4000000000000E+03
(PID.TID 0000.0001) %MON thSI_Ice_Area_G              =   1.3364643212772E+11
(PID.TID 0000.0001) %MON thSI_Ice_Area_S              =   0.0000000000000E+00
(PID.TID 0000.0001) %MON thSI_Ice_Area_N              =   1.3364643212772E+11
(PID.TID 0000.0001) %MON thSI_IceH_ave_G              =   1.2636105871857E-01
(PID.TID 0000.0001) %MON thSI_IceH_ave_S              =   0.0000000000000E+00
(PID.TID 0000.0001) %MON thSI_IceH_ave_N              =   1.2636105871857E-01
(PID.TID 0000.0001) %MON thSI_IceH_max_S              =   0.0000000000000E+00
(PID.TID 0000.0001) %MON thSI_IceH_max_N              =   1.3321024992167E-01
(PID.TID 0000.0001) %MON thSI_SnwH_ave_G              =   0.0000000000000E+00
(PID.TID 0000.0001) %MON thSI_SnwH_ave_S              =   0.0000000000000E+00
(PID.TID 0000.0001) %MON thSI_SnwH_ave_N              =   0.0000000000000E+00
(PID.TID 0000.0001) %MON thSI_SnwH_max_S              =   0.0000000000000E+00
(PID.TID 0000.0001) %MON thSI_SnwH_max_N              =   0.0000000000000E+00
(PID.TID 0000.0001) %MON thSI_TotEnerg_G              =  -5.1634546486214E+18
(PID.TID 0000.0001) %MON thSI_Tsrf_ave_G              =  -7.2315143327836E+00
(PID.TID 0000.0001) %MON thSI_Tsrf_ave_S              =   0.0000000000000E+00
(PID.TID 0000.0001) %MON thSI_Tsrf_ave_N              =  -7.2315143327836E+00
(PID.TID 0000.0001) %MON thSI_Tsrf_min_S              =   0.0000000000000E+00
(PID.TID 0000.0001) %MON thSI_Tsrf_min_N              =  -7.3179094176097E+00
(PID.TID 0000.0001) %MON thSI_Tsrf_max_S              =   0.0000000000000E+00
(PID.TID 0000.0001) %MON thSI_Tsrf_max_N              =  -7.0816748876885E+00
(PID.TID 0000.0001) %MON thSI_Tic1_ave_G              =  -4.7786002436730E+00
(PID.TID 0000.0001) %MON thSI_Tic1_ave_S              =   0.0000000000000E+00
(PID.TID 0000.0001) %MON thSI_Tic1_ave_N              =  -4.7786002436730E+00
(PID.TID 0000.0001) %MON thSI_Tic1_min_S              =   0.0000000000000E+00
(PID.TID 0000.0001) %MON thSI_Tic1_min_N              =  -4.8575582553815E+00
(PID.TID 0000.0001) %MON thSI_Tic1_max_S              =   0.0000000000000E+00
(PID.TID 0000.0001) %MON thSI_Tic1_max_N              =  -4.7029433597682E+00
(PID.TID 0000.0001) %MON thSI_Tic2_ave_G              =  -2.4431718482024E+00
(PID.TID 0000.0001) %MON thSI_Tic2_ave_S              =   0.0000000000000E+00
(PID.TID 0000.0001) %MON thSI_Tic2_ave_N              =  -2.4431718482024E+00
(PID.TID 0000.0001) %MON thSI_Tic2_min_S              =   0.0000000000000E+00
(PID.TID 0000.0001) %MON thSI_Tic2_min_N              =  -2.5226907399030E+00
(PID.TID 0000.0001) %MON thSI_Tic2_max_S              =   0.0000000000000E+00
(PID.TID 0000.0001) %MON thSI_Tic2_max_N              =  -2.3732156314918E+00
(PID.TID 0000.0001) // =======================================================
(PID.TID 0000.0001) // End MONITOR Therm.SeaIce statistics
(PID.TID 0000.0001) // =======================================================
 cg2d: Sum(rhs),rhsMax =   2.18278728425503E-11  2.37762987690238E+04
(PID.TID 0000.0001)                    cg2d_init_res =    1.57252109410764E+04
(PID.TID 0000.0001)                       cg2d_iters =    16
(PID.TID 0000.0001)                         cg2d_res =    9.41855635101598E-11
(PID.TID 0000.0001) // =======================================================
(PID.TID 0000.0001) // Begin MONITOR dynamic field statistics
(PID.TID 0000.0001) // =======================================================
(PID.TID 0000.0001) %MON time_tsnumber                =                    13
(PID.TID 0000.0001) %MON time_secondsf                =   5.8500000000000E+03
(PID.TID 0000.0001) %MON dynstat_eta_max              =   4.5141308023259E+03
(PID.TID 0000.0001) %MON dynstat_eta_min              =  -1.6390901681181E+03
(PID.TID 0000.0001) %MON dynstat_eta_mean             =  -1.1346441432842E-14
(PID.TID 0000.0001) %MON dynstat_eta_sd               =   5.1805243242213E+02
(PID.TID 0000.0001) %MON dynstat_eta_del2             =   3.7770958846978E+01
(PID.TID 0000.0001) %MON dynstat_uvel_max             =   6.0837499948376E+00
(PID.TID 0000.0001) %MON dynstat_uvel_min             =  -5.6363791688322E+00
(PID.TID 0000.0001) %MON dynstat_uvel_mean            =  -9.0579315564332E-03
(PID.TID 0000.0001) %MON dynstat_uvel_sd              =   7.8436481822459E-01
(PID.TID 0000.0001) %MON dynstat_uvel_del2            =   1.9756450424602E-02
(PID.TID 0000.0001) %MON dynstat_vvel_max             =   7.6536521090782E+00
(PID.TID 0000.0001) %MON dynstat_vvel_min             =  -7.7772885346622E+00
(PID.TID 0000.0001) %MON dynstat_vvel_mean            =   1.8800870569203E-02
(PID.TID 0000.0001) %MON dynstat_vvel_sd              =   8.5064985142623E-01
(PID.TID 0000.0001) %MON dynstat_vvel_del2            =   2.0048336217369E-02
(PID.TID 0000.0001) %MON dynstat_wvel_max             =   1.6592424778035E-01
(PID.TID 0000.0001) %MON dynstat_wvel_min             =  -2.7327010078558E-01
(PID.TID 0000.0001) %MON dynstat_wvel_mean            =  -1.1416283365389E-03
(PID.TID 0000.0001) %MON dynstat_wvel_sd              =   1.0742368018307E-02
(PID.TID 0000.0001) %MON dynstat_wvel_del2            =   1.2967581568064E-03
(PID.TID 0000.0001) %MON dynstat_theta_max            =   4.3770987273777E+02
(PID.TID 0000.0001) %MON dynstat_theta_min            =   2.8641238282627E+02
(PID.TID 0000.0001) %MON dynstat_theta_mean           =   3.3170697074306E+02
(PID.TID 0000.0001) %MON dynstat_theta_sd             =   4.7429743163198E+01
(PID.TID 0000.0001) %MON dynstat_theta_del2           =   1.5124590422185E-02
(PID.TID 0000.0001) %MON dynstat_salt_max             =   3.4925793164725E+00
(PID.TID 0000.0001) %MON dynstat_salt_min             =  -2.2440270777139E-03
(PID.TID 0000.0001) %MON dynstat_salt_mean            =   4.8979215815195E-02
(PID.TID 0000.0001) %MON dynstat_salt_sd              =   2.0477819158153E-01
(PID.TID 0000.0001) %MON dynstat_salt_del2            =   6.8568968267696E-03
(PID.TID 0000.0001) %MON advcfl_uvel_max              =   8.5407386419401E-03
(PID.TID 0000.0001) %MON advcfl_vvel_max              =   1.1156543585945E-02
(PID.TID 0000.0001) %MON advcfl_wvel_max              =   4.4716925583095E-03
(PID.TID 0000.0001) %MON advcfl_W_hf_max              =   1.5158151089624E-02
(PID.TID 0000.0001) %MON pe_b_mean                    =  -1.0876479397982E+00
(PID.TID 0000.0001) %MON ke_max                       =   3.5396987612888E+01
(PID.TID 0000.0001) %MON ke_mean                      =   6.6568927232582E-01
(PID.TID 0000.0001) %MON ke_vol                       =   4.9523908919847E+19
(PID.TID 0000.0001) %MON vort_r_min                   =  -3.1256130012041E-05
(PID.TID 0000.0001) %MON vort_r_max                   =   1.7555443084705E-05
(PID.TID 0000.0001) %MON vort_a_mean                  =   6.7242814765301E-08
(PID.TID 0000.0001) %MON vort_a_sd                    =   8.3959686206389E-05
(PID.TID 0000.0001) %MON vort_p_mean                  =   6.8939453654226E-08
(PID.TID 0000.0001) %MON vort_p_sd                    =   9.1889083617987E-05
(PID.TID 0000.0001) %MON surfExpan_theta_mean         =   1.0959354710227E-01
(PID.TID 0000.0001) %MON surfExpan_salt_mean          =  -1.8768408160076E-04
(PID.TID 0000.0001) %MON surfExpan_Heat_mean          =  -9.3775028904308E+00
(PID.TID 0000.0001) %MON En_Budget_T2PE_mean          =   1.7428016071932E+01
(PID.TID 0000.0001) // =======================================================
(PID.TID 0000.0001) // End MONITOR dynamic field statistics
(PID.TID 0000.0001) // =======================================================
(PID.TID 0000.0001) // =======================================================
(PID.TID 0000.0001) // Begin MONITOR Land statistics
(PID.TID 0000.0001) // =======================================================
(PID.TID 0000.0001) %MON land_time_sec                =   5.8500000000000E+03
(PID.TID 0000.0001) %MON land_SnwH_ave_G              =   1.5323530485800E-01
(PID.TID 0000.0001) %MON land_SnwH_ave_S              =   5.5905173547064E-01
(PID.TID 0000.0001) %MON land_SnwH_ave_T              =   0.0000000000000E+00
(PID.TID 0000.0001) %MON land_SnwH_ave_N              =   1.2391695745669E-01
(PID.TID 0000.0001) %MON land_SnwH_max_S              =   9.9999313898507E-01
(PID.TID 0000.0001) %MON land_SnwH_max_T              =   0.0000000000000E+00
(PID.TID 0000.0001) %MON land_SnwH_max_N              =   9.9999910388449E-01
(PID.TID 0000.0001) %MON land_TotEnerg_G              =  -6.3249330701387E+21
(PID.TID 0000.0001) %MON land_TotEnerg_S              =  -5.0001618434351E+21
(PID.TID 0000.0001) %MON land_TotEnerg_T              =   7.2940042363398E+21
(PID.TID 0000.0001) %MON land_TotEnerg_N              =  -8.6187754630433E+21
(PID.TID 0000.0001) %MON land_Tsrf_ave_G              =  -7.5177986242690E+00
(PID.TID 0000.0001) %MON land_Tsrf_ave_S              =  -6.7942155339233E+00
(PID.TID 0000.0001) %MON land_Tsrf_ave_T              =   1.2160052962568E+01
(PID.TID 0000.0001) %MON land_Tsrf_ave_N              =  -2.0892815143892E+01
(PID.TID 0000.0001) %MON land_Tsrf_min_S              =  -3.3997364303015E+01
(PID.TID 0000.0001) %MON land_Tsrf_min_T              =  -5.2660378981469E+00
(PID.TID 0000.0001) %MON land_Tsrf_min_N              =  -5.1963545417528E+01
(PID.TID 0000.0001) %MON land_Tsrf_max_S              =   2.2721624804756E+01
(PID.TID 0000.0001) %MON land_Tsrf_max_T              =   2.4060675167375E+01
(PID.TID 0000.0001) %MON land_Tsrf_max_N              =   1.0568151233625E+01
(PID.TID 0000.0001) %MON land_Tgr1_ave_G              =  -6.2339639330044E+00
(PID.TID 0000.0001) %MON land_Tgr1_ave_S              =  -6.4901444457935E+00
(PID.TID 0000.0001) %MON land_Tgr1_ave_T              =   1.2160052962568E+01
(PID.TID 0000.0001) %MON land_Tgr1_ave_N              =  -1.8433844059669E+01
(PID.TID 0000.0001) %MON land_Tgr1_min_S              =  -3.9140823967678E+01
(PID.TID 0000.0001) %MON land_Tgr1_min_T              =  -5.2660378981469E+00
(PID.TID 0000.0001) %MON land_Tgr1_min_N              =  -5.4846097750693E+01
(PID.TID 0000.0001) %MON land_Tgr1_max_S              =   2.2721624804756E+01
(PID.TID 0000.0001) %MON land_Tgr1_max_T              =   2.4060675167375E+01
(PID.TID 0000.0001) %MON land_Tgr1_max_N              =   1.0568151233625E+01
(PID.TID 0000.0001) %MON land_Tgr2_ave_G              =   4.2057686902920E+00
(PID.TID 0000.0001) %MON land_Tgr2_ave_S              =  -1.8729020706282E+01
(PID.TID 0000.0001) %MON land_Tgr2_ave_T              =   2.2011579366499E+01
(PID.TID 0000.0001) %MON land_Tgr2_ave_N              =  -2.4452208297169E-01
(PID.TID 0000.0001) %MON land_Tgr2_min_S              =  -6.4756663329727E+01
(PID.TID 0000.0001) %MON land_Tgr2_min_T              =  -9.7045706332095E+00
(PID.TID 0000.0001) %MON land_Tgr2_min_N              =  -4.0196738206865E+01
(PID.TID 0000.0001) %MON land_Tgr2_max_S              =   2.3360604331076E+01
(PID.TID 0000.0001) %MON land_Tgr2_max_T              =   3.1356708421599E+01
(PID.TID 0000.0001) %MON land_Tgr2_max_N              =   2.9827584842332E+01
(PID.TID 0000.0001) %MON land_grdW_ave_G              =   4.8686419968527E-01
(PID.TID 0000.0001) %MON land_grdW_ave_S              =   3.0862521200914E-01
(PID.TID 0000.0001) %MON land_grdW_ave_T              =   5.6444461594282E-01
(PID.TID 0000.0001) %MON land_grdW_ave_N              =   4.9287792088435E-01
(PID.TID 0000.0001) %MON land_grdW_min_S              =   2.6503731249941E-02
(PID.TID 0000.0001) %MON land_grdW_min_T              =   0.0000000000000E+00
(PID.TID 0000.0001) %MON land_grdW_min_N              =   0.0000000000000E+00
(PID.TID 0000.0001) // =======================================================
(PID.TID 0000.0001) // End MONITOR Land statistics
(PID.TID 0000.0001) // =======================================================
(PID.TID 0000.0001) // =======================================================
(PID.TID 0000.0001) // Begin MONITOR Therm.SeaIce statistics
(PID.TID 0000.0001) // =======================================================
(PID.TID 0000.0001) %MON thSI_time_sec                =   5.8500000000000E+03
(PID.TID 0000.0001) %MON thSI_Ice_Area_G              =   1.4201998478961E+11
(PID.TID 0000.0001) %MON thSI_Ice_Area_S              =   0.0000000000000E+00
(PID.TID 0000.0001) %MON thSI_Ice_Area_N              =   1.4201998478961E+11
(PID.TID 0000.0001) %MON thSI_IceH_ave_G              =   1.2877496991774E-01
(PID.TID 0000.0001) %MON thSI_IceH_ave_S              =   0.0000000000000E+00
(PID.TID 0000.0001) %MON thSI_IceH_ave_N              =   1.2877496991774E-01
(PID.TID 0000.0001) %MON thSI_IceH_max_S              =   0.0000000000000E+00
(PID.TID 0000.0001) %MON thSI_IceH_max_N              =   1.3626149585441E-01
(PID.TID 0000.0001) %MON thSI_SnwH_ave_G              =   0.0000000000000E+00
(PID.TID 0000.0001) %MON thSI_SnwH_ave_S              =   0.0000000000000E+00
(PID.TID 0000.0001) %MON thSI_SnwH_ave_N              =   0.0000000000000E+00
(PID.TID 0000.0001) %MON thSI_SnwH_max_S              =   0.0000000000000E+00
(PID.TID 0000.0001) %MON thSI_SnwH_max_N              =   0.0000000000000E+00
(PID.TID 0000.0001) %MON thSI_TotEnerg_G              =  -5.5977236917704E+18
(PID.TID 0000.0001) %MON thSI_Tsrf_ave_G              =  -7.4486821847966E+00
(PID.TID 0000.0001) %MON thSI_Tsrf_ave_S              =   0.0000000000000E+00
(PID.TID 0000.0001) %MON thSI_Tsrf_ave_N              =  -7.4486821847966E+00
(PID.TID 0000.0001) %MON thSI_Tsrf_min_S              =   0.0000000000000E+00
(PID.TID 0000.0001) %MON thSI_Tsrf_min_N              =  -7.5371180277381E+00
(PID.TID 0000.0001) %MON thSI_Tsrf_max_S              =   0.0000000000000E+00
(PID.TID 0000.0001) %MON thSI_Tsrf_max_N              =  -7.2916737294658E+00
(PID.TID 0000.0001) %MON thSI_Tic1_ave_G              =  -4.9865795163897E+00
(PID.TID 0000.0001) %MON thSI_Tic1_ave_S              =   0.0000000000000E+00
(PID.TID 0000.0001) %MON thSI_Tic1_ave_N              =  -4.9865795163897E+00
(PID.TID 0000.0001) %MON thSI_Tic1_min_S              =   0.0000000000000E+00
(PID.TID 0000.0001) %MON thSI_Tic1_min_N              =  -5.0689984579864E+00
(PID.TID 0000.0001) %MON thSI_Tic1_max_S              =   0.0000000000000E+00
(PID.TID 0000.0001) %MON thSI_Tic1_max_N              =  -4.9130008471470E+00
(PID.TID 0000.0001) %MON thSI_Tic2_ave_G              =  -2.5087512284226E+00
(PID.TID 0000.0001) %MON thSI_Tic2_ave_S              =   0.0000000000000E+00
(PID.TID 0000.0001) %MON thSI_Tic2_ave_N              =  -2.5087512284226E+00
(PID.TID 0000.0001) %MON thSI_Tic2_min_S              =   0.0000000000000E+00
(PID.TID 0000.0001) %MON thSI_Tic2_min_N              =  -2.5932917390375E+00
(PID.TID 0000.0001) %MON thSI_Tic2_max_S              =   0.0000000000000E+00
(PID.TID 0000.0001) %MON thSI_Tic2_max_N              =  -2.4345428115169E+00
(PID.TID 0000.0001) // =======================================================
(PID.TID 0000.0001) // End MONITOR Therm.SeaIce statistics
(PID.TID 0000.0001) // =======================================================
 cg2d: Sum(rhs),rhsMax =   1.00044417195022E-10  2.50372171304328E+04
(PID.TID 0000.0001)                    cg2d_init_res =    1.46699738065460E+04
(PID.TID 0000.0001)                       cg2d_iters =    16
(PID.TID 0000.0001)                         cg2d_res =    9.10327936440781E-11
(PID.TID 0000.0001) // =======================================================
(PID.TID 0000.0001) // Begin MONITOR dynamic field statistics
(PID.TID 0000.0001) // =======================================================
(PID.TID 0000.0001) %MON time_tsnumber                =                    14
(PID.TID 0000.0001) %MON time_secondsf                =   6.3000000000000E+03
(PID.TID 0000.0001) %MON dynstat_eta_max              =   4.7470885128780E+03
(PID.TID 0000.0001) %MON dynstat_eta_min              =  -1.5195150760118E+03
(PID.TID 0000.0001) %MON dynstat_eta_mean             =  -1.4660003975177E-14
(PID.TID 0000.0001) %MON dynstat_eta_sd               =   5.3264953035207E+02
(PID.TID 0000.0001) %MON dynstat_eta_del2             =   3.7764699181776E+01
(PID.TID 0000.0001) %MON dynstat_uvel_max             =   5.7390008880467E+00
(PID.TID 0000.0001) %MON dynstat_uvel_min             =  -6.0004131179904E+00
(PID.TID 0000.0001) %MON dynstat_uvel_mean            =  -9.4130213761190E-03
(PID.TID 0000.0001) %MON dynstat_uvel_sd              =   7.8445262263267E-01
(PID.TID 0000.0001) %MON dynstat_uvel_del2            =   1.9703243996051E-02
(PID.TID 0000.0001) %MON dynstat_vvel_max             =   7.1742865477907E+00
(PID.TID 0000.0001) %MON dynstat_vvel_min             =  -7.3792497009559E+00
(PID.TID 0000.0001) %MON dynstat_vvel_mean            =   2.0438753810469E-02
(PID.TID 0000.0001) %MON dynstat_vvel_sd              =   8.4294708247945E-01
(PID.TID 0000.0001) %MON dynstat_vvel_del2            =   1.9872882369120E-02
(PID.TID 0000.0001) %MON dynstat_wvel_max             =   1.6947035606946E-01
(PID.TID 0000.0001) %MON dynstat_wvel_min             =  -2.4047844079271E-01
(PID.TID 0000.0001) %MON dynstat_wvel_mean            =  -9.8067474811129E-04
(PID.TID 0000.0001) %MON dynstat_wvel_sd              =   9.8511597240884E-03
(PID.TID 0000.0001) %MON dynstat_wvel_del2            =   1.2819955818868E-03
(PID.TID 0000.0001) %MON dynstat_theta_max            =   4.3779914235275E+02
(PID.TID 0000.0001) %MON dynstat_theta_min            =   2.8617350757998E+02
(PID.TID 0000.0001) %MON dynstat_theta_mean           =   3.3170542397090E+02
(PID.TID 0000.0001) %MON dynstat_theta_sd             =   4.7431546228587E+01
(PID.TID 0000.0001) %MON dynstat_theta_del2           =   1.6106433252439E-02
(PID.TID 0000.0001) %MON dynstat_salt_max             =   3.6186629873520E+00
(PID.TID 0000.0001) %MON dynstat_salt_min             =  -2.5530756625932E-03
(PID.TID 0000.0001) %MON dynstat_salt_mean            =   5.2536500331790E-02
(PID.TID 0000.0001) %MON dynstat_salt_sd              =   2.1852572922285E-01
(PID.TID 0000.0001) %MON dynstat_salt_del2            =   7.2286021167628E-03
(PID.TID 0000.0001) %MON advcfl_uvel_max              =   8.4241088258671E-03
(PID.TID 0000.0001) %MON advcfl_vvel_max              =   1.0585555692497E-02
(PID.TID 0000.0001) %MON advcfl_wvel_max              =   4.3578091560718E-03
(PID.TID 0000.0001) %MON advcfl_W_hf_max              =   1.5466663506119E-02
(PID.TID 0000.0001) %MON pe_b_mean                    =  -1.0946345790611E+00
(PID.TID 0000.0001) %MON ke_max                       =   3.3038257947761E+01
(PID.TID 0000.0001) %MON ke_mean                      =   6.5930626835988E-01
(PID.TID 0000.0001) %MON ke_vol                       =   4.9523908919847E+19
(PID.TID 0000.0001) %MON vort_r_min                   =  -2.9451230507963E-05
(PID.TID 0000.0001) %MON vort_r_max                   =   1.6341852139508E-05
(PID.TID 0000.0001) %MON vort_a_mean                  =   6.7242814765266E-08
(PID.TID 0000.0001) %MON vort_a_sd                    =   8.3962270853589E-05
(PID.TID 0000.0001) %MON vort_p_mean                  =   6.8939455166033E-08
(PID.TID 0000.0001) %MON vort_p_sd                    =   9.1897932905443E-05
(PID.TID 0000.0001) %MON surfExpan_theta_mean         =   9.3406764898281E-02
(PID.TID 0000.0001) %MON surfExpan_salt_mean          =  -2.2210787640364E-04
(PID.TID 0000.0001) %MON surfExpan_Heat_mean          =  -8.0775976984020E+00
(PID.TID 0000.0001) %MON En_Budget_T2PE_mean          =   1.4942367162513E+01
(PID.TID 0000.0001) // =======================================================
(PID.TID 0000.0001) // End MONITOR dynamic field statistics
(PID.TID 0000.0001) // =======================================================
(PID.TID 0000.0001) // =======================================================
(PID.TID 0000.0001) // Begin MONITOR Land statistics
(PID.TID 0000.0001) // =======================================================
(PID.TID 0000.0001) %MON land_time_sec                =   6.3000000000000E+03
(PID.TID 0000.0001) %MON land_SnwH_ave_G              =   1.5323431294225E-01
(PID.TID 0000.0001) %MON land_SnwH_ave_S              =   5.5905082348521E-01
(PID.TID 0000.0001) %MON land_SnwH_ave_T              =   0.0000000000000E+00
(PID.TID 0000.0001) %MON land_SnwH_ave_N              =   1.2391527723986E-01
(PID.TID 0000.0001) %MON land_SnwH_max_S              =   9.9999258513657E-01
(PID.TID 0000.0001) %MON land_SnwH_max_T              =   0.0000000000000E+00
(PID.TID 0000.0001) %MON land_SnwH_max_N              =   9.9999903965887E-01
(PID.TID 0000.0001) %MON land_TotEnerg_G              =  -6.3282521718250E+21
(PID.TID 0000.0001) %MON land_TotEnerg_S              =  -5.0004824774391E+21
(PID.TID 0000.0001) %MON land_TotEnerg_T              =   7.2917762532581E+21
(PID.TID 0000.0001) %MON land_TotEnerg_N              =  -8.6195459476440E+21
(PID.TID 0000.0001) %MON land_Tsrf_ave_G              =  -7.6436978513070E+00
(PID.TID 0000.0001) %MON land_Tsrf_ave_S              =  -6.9173305395813E+00
(PID.TID 0000.0001) %MON land_Tsrf_ave_T              =   1.1903542069157E+01
(PID.TID 0000.0001) %MON land_Tsrf_ave_N              =  -2.0932398925800E+01
(PID.TID 0000.0001) %MON land_Tsrf_min_S              =  -3.3973366573080E+01
(PID.TID 0000.0001) %MON land_Tsrf_min_T              =  -5.1007074393267E+00
(PID.TID 0000.0001) %MON land_Tsrf_min_N              =  -5.1983141964937E+01
(PID.TID 0000.0001) %MON land_Tsrf_max_S              =   2.2381943954979E+01
(PID.TID 0000.0001) %MON land_Tsrf_max_T              =   2.3586494194193E+01
(PID.TID 0000.0001) %MON land_Tsrf_max_N              =   1.0339623244986E+01
(PID.TID 0000.0001) %MON land_Tgr1_ave_G              =  -6.3594510489451E+00
(PID.TID 0000.0001) %MON land_Tgr1_ave_S              =  -6.5893181581153E+00
(PID.TID 0000.0001) %MON land_Tgr1_ave_T              =   1.1903542069157E+01
(PID.TID 0000.0001) %MON land_Tgr1_ave_N              =  -1.8480373258163E+01
(PID.TID 0000.0001) %MON land_Tgr1_min_S              =  -3.9151938798604E+01
(PID.TID 0000.0001) %MON land_Tgr1_min_T              =  -5.1007074393267E+00
(PID.TID 0000.0001) %MON land_Tgr1_min_N              =  -5.4833320421824E+01
(PID.TID 0000.0001) %MON land_Tgr1_max_S              =   2.2381943954979E+01
(PID.TID 0000.0001) %MON land_Tgr1_max_T              =   2.3586494194193E+01
(PID.TID 0000.0001) %MON land_Tgr1_max_N              =   1.0339623244986E+01
(PID.TID 0000.0001) %MON land_Tgr2_ave_G              =   4.2056068669695E+00
(PID.TID 0000.0001) %MON land_Tgr2_ave_S              =  -1.8728817770307E+01
(PID.TID 0000.0001) %MON land_Tgr2_ave_T              =   2.2011414181208E+01
(PID.TID 0000.0001) %MON land_Tgr2_ave_N              =  -2.4479998696387E-01
(PID.TID 0000.0001) %MON land_Tgr2_min_S              =  -6.4756231549003E+01
(PID.TID 0000.0001) %MON land_Tgr2_min_T              =  -9.7045124614528E+00
(PID.TID 0000.0001) %MON land_Tgr2_min_N              =  -4.0196976357416E+01
(PID.TID 0000.0001) %MON land_Tgr2_max_S              =   2.3360578273626E+01
(PID.TID 0000.0001) %MON land_Tgr2_max_T              =   3.1356321628607E+01
(PID.TID 0000.0001) %MON land_Tgr2_max_N              =   2.9827125332105E+01
(PID.TID 0000.0001) %MON land_grdW_ave_G              =   4.8685390024333E-01
(PID.TID 0000.0001) %MON land_grdW_ave_S              =   3.0861602253717E-01
(PID.TID 0000.0001) %MON land_grdW_ave_T              =   5.6441884865676E-01
(PID.TID 0000.0001) %MON land_grdW_ave_N              =   4.9287759034632E-01
(PID.TID 0000.0001) %MON land_grdW_min_S              =   2.6580535820146E-02
(PID.TID 0000.0001) %MON land_grdW_min_T              =   0.0000000000000E+00
(PID.TID 0000.0001) %MON land_grdW_min_N              =   0.0000000000000E+00
(PID.TID 0000.0001) // =======================================================
(PID.TID 0000.0001) // End MONITOR Land statistics
(PID.TID 0000.0001) // =======================================================
(PID.TID 0000.0001) // =======================================================
(PID.TID 0000.0001) // Begin MONITOR Therm.SeaIce statistics
(PID.TID 0000.0001) // =======================================================
(PID.TID 0000.0001) %MON thSI_time_sec                =   6.3000000000000E+03
(PID.TID 0000.0001) %MON thSI_Ice_Area_G              =   1.5008665760644E+11
(PID.TID 0000.0001) %MON thSI_Ice_Area_S              =   0.0000000000000E+00
(PID.TID 0000.0001) %MON thSI_Ice_Area_N              =   1.5008665760644E+11
(PID.TID 0000.0001) %MON thSI_IceH_ave_G              =   1.3119047244646E-01
(PID.TID 0000.0001) %MON thSI_IceH_ave_S              =   0.0000000000000E+00
(PID.TID 0000.0001) %MON thSI_IceH_ave_N              =   1.3119047244646E-01
(PID.TID 0000.0001) %MON thSI_IceH_max_S              =   0.0000000000000E+00
(PID.TID 0000.0001) %MON thSI_IceH_max_N              =   1.3931617949385E-01
(PID.TID 0000.0001) %MON thSI_SnwH_ave_G              =   0.0000000000000E+00
(PID.TID 0000.0001) %MON thSI_SnwH_ave_S              =   0.0000000000000E+00
(PID.TID 0000.0001) %MON thSI_SnwH_ave_N              =   0.0000000000000E+00
(PID.TID 0000.0001) %MON thSI_SnwH_max_S              =   0.0000000000000E+00
(PID.TID 0000.0001) %MON thSI_SnwH_max_N              =   0.0000000000000E+00
(PID.TID 0000.0001) %MON thSI_TotEnerg_G              =  -6.0324346291060E+18
(PID.TID 0000.0001) %MON thSI_Tsrf_ave_G              =  -7.6496687223953E+00
(PID.TID 0000.0001) %MON thSI_Tsrf_ave_S              =   0.0000000000000E+00
(PID.TID 0000.0001) %MON thSI_Tsrf_ave_N              =  -7.6496687223953E+00
(PID.TID 0000.0001) %MON thSI_Tsrf_min_S              =   0.0000000000000E+00
(PID.TID 0000.0001) %MON thSI_Tsrf_min_N              =  -7.7403839964565E+00
(PID.TID 0000.0001) %MON thSI_Tsrf_max_S              =   0.0000000000000E+00
(PID.TID 0000.0001) %MON thSI_Tsrf_max_N              =  -7.4850015815245E+00
(PID.TID 0000.0001) %MON thSI_Tic1_ave_G              =  -5.1779079022828E+00
(PID.TID 0000.0001) %MON thSI_Tic1_ave_S              =   0.0000000000000E+00
(PID.TID 0000.0001) %MON thSI_Tic1_ave_N              =  -5.1779079022828E+00
(PID.TID 0000.0001) %MON thSI_Tic1_min_S              =   0.0000000000000E+00
(PID.TID 0000.0001) %MON thSI_Tic1_min_N              =  -5.2629383308562E+00
(PID.TID 0000.0001) %MON thSI_Tic1_max_S              =   0.0000000000000E+00
(PID.TID 0000.0001) %MON thSI_Tic1_max_N              =  -5.1018422466726E+00
(PID.TID 0000.0001) %MON thSI_Tic2_ave_G              =  -2.5697487140454E+00
(PID.TID 0000.0001) %MON thSI_Tic2_ave_S              =   0.0000000000000E+00
(PID.TID 0000.0001) %MON thSI_Tic2_ave_N              =  -2.5697487140454E+00
(PID.TID 0000.0001) %MON thSI_Tic2_min_S              =   0.0000000000000E+00
(PID.TID 0000.0001) %MON thSI_Tic2_min_N              =  -2.6589712887062E+00
(PID.TID 0000.0001) %MON thSI_Tic2_max_S              =   0.0000000000000E+00
(PID.TID 0000.0001) %MON thSI_Tic2_max_N              =  -2.4915358348441E+00
(PID.TID 0000.0001) // =======================================================
(PID.TID 0000.0001) // End MONITOR Therm.SeaIce statistics
(PID.TID 0000.0001) // =======================================================
 cg2d: Sum(rhs),rhsMax =   3.63797880709171E-12  2.56129116293594E+04
(PID.TID 0000.0001)                    cg2d_init_res =    1.37889274391580E+04
(PID.TID 0000.0001)                       cg2d_iters =    16
(PID.TID 0000.0001)                         cg2d_res =    8.96413028231511E-11
(PID.TID 0000.0001) // =======================================================
(PID.TID 0000.0001) // Begin MONITOR dynamic field statistics
(PID.TID 0000.0001) // =======================================================
(PID.TID 0000.0001) %MON time_tsnumber                =                    15
(PID.TID 0000.0001) %MON time_secondsf                =   6.7500000000000E+03
(PID.TID 0000.0001) %MON dynstat_eta_max              =   4.8610816303875E+03
(PID.TID 0000.0001) %MON dynstat_eta_min              =  -1.3914150851575E+03
(PID.TID 0000.0001) %MON dynstat_eta_mean             =  -4.0164394452539E-15
(PID.TID 0000.0001) %MON dynstat_eta_sd               =   5.4438138614121E+02
(PID.TID 0000.0001) %MON dynstat_eta_del2             =   3.7711675422136E+01
(PID.TID 0000.0001) %MON dynstat_uvel_max             =   5.7890589371503E+00
(PID.TID 0000.0001) %MON dynstat_uvel_min             =  -6.3553434527805E+00
(PID.TID 0000.0001) %MON dynstat_uvel_mean            =  -9.6135499021006E-03
(PID.TID 0000.0001) %MON dynstat_uvel_sd              =   7.8700937941568E-01
(PID.TID 0000.0001) %MON dynstat_uvel_del2            =   1.9774806037527E-02
(PID.TID 0000.0001) %MON dynstat_vvel_max             =   6.5909678311187E+00
(PID.TID 0000.0001) %MON dynstat_vvel_min             =  -6.8315702559121E+00
(PID.TID 0000.0001) %MON dynstat_vvel_mean            =   2.2015817230013E-02
(PID.TID 0000.0001) %MON dynstat_vvel_sd              =   8.3332692207252E-01
(PID.TID 0000.0001) %MON dynstat_vvel_del2            =   1.9835239476169E-02
(PID.TID 0000.0001) %MON dynstat_wvel_max             =   1.6656549087904E-01
(PID.TID 0000.0001) %MON dynstat_wvel_min             =  -2.0306136156546E-01
(PID.TID 0000.0001) %MON dynstat_wvel_mean            =  -8.1798993744307E-04
(PID.TID 0000.0001) %MON dynstat_wvel_sd              =   9.0960431053031E-03
(PID.TID 0000.0001) %MON dynstat_wvel_del2            =   1.2777883681956E-03
(PID.TID 0000.0001) %MON dynstat_theta_max            =   4.3793768155843E+02
(PID.TID 0000.0001) %MON dynstat_theta_min            =   2.8593655702964E+02
(PID.TID 0000.0001) %MON dynstat_theta_mean           =   3.3170382474696E+02
(PID.TID 0000.0001) %MON dynstat_theta_sd             =   4.7433388818837E+01
(PID.TID 0000.0001) %MON dynstat_theta_del2           =   1.7028108292782E-02
(PID.TID 0000.0001) %MON dynstat_salt_max             =   3.7344532755937E+00
(PID.TID 0000.0001) %MON dynstat_salt_min             =  -2.8797443890444E-03
(PID.TID 0000.0001) %MON dynstat_salt_mean            =   5.6073489883918E-02
(PID.TID 0000.0001) %MON dynstat_salt_sd              =   2.3205046511149E-01
(PID.TID 0000.0001) %MON dynstat_salt_del2            =   7.5955434172698E-03
(PID.TID 0000.0001) %MON advcfl_uvel_max              =   8.9590765126822E-03
(PID.TID 0000.0001) %MON advcfl_vvel_max              =   9.8552765642758E-03
(PID.TID 0000.0001) %MON advcfl_wvel_max              =   4.2831126226039E-03
(PID.TID 0000.0001) %MON advcfl_W_hf_max              =   1.5179685713246E-02
(PID.TID 0000.0001) %MON pe_b_mean                    =  -1.1008916211554E+00
(PID.TID 0000.0001) %MON ke_max                       =   3.0093723035927E+01
(PID.TID 0000.0001) %MON ke_mean                      =   6.5332028838641E-01
(PID.TID 0000.0001) %MON ke_vol                       =   4.9523908919847E+19
(PID.TID 0000.0001) %MON vort_r_min                   =  -2.7943527658487E-05
(PID.TID 0000.0001) %MON vort_r_max                   =   1.5914489414819E-05
(PID.TID 0000.0001) %MON vort_a_mean                  =   6.7242814765244E-08
(PID.TID 0000.0001) %MON vort_a_sd                    =   8.3964886898838E-05
(PID.TID 0000.0001) %MON vort_p_mean                  =   6.8939456745562E-08
(PID.TID 0000.0001) %MON vort_p_sd                    =   9.1903848207555E-05
(PID.TID 0000.0001) %MON surfExpan_theta_mean         =   7.7101782696943E-02
(PID.TID 0000.0001) %MON surfExpan_salt_mean          =  -2.6045082398557E-04
(PID.TID 0000.0001) %MON surfExpan_Heat_mean          =  -6.7571041909397E+00
(PID.TID 0000.0001) %MON En_Budget_T2PE_mean          =   1.2427933019921E+01
(PID.TID 0000.0001) // =======================================================
(PID.TID 0000.0001) // End MONITOR dynamic field statistics
(PID.TID 0000.0001) // =======================================================
(PID.TID 0000.0001) // =======================================================
(PID.TID 0000.0001) // Begin MONITOR Land statistics
(PID.TID 0000.0001) // =======================================================
(PID.TID 0000.0001) %MON land_time_sec                =   6.7500000000000E+03
(PID.TID 0000.0001) %MON land_SnwH_ave_G              =   1.5323332639424E-01
(PID.TID 0000.0001) %MON land_SnwH_ave_S              =   5.5904992543180E-01
(PID.TID 0000.0001) %MON land_SnwH_ave_T              =   0.0000000000000E+00
(PID.TID 0000.0001) %MON land_SnwH_ave_N              =   1.2391360319701E-01
(PID.TID 0000.0001) %MON land_SnwH_max_S              =   9.9999202951411E-01
(PID.TID 0000.0001) %MON land_SnwH_max_T              =   0.0000000000000E+00
(PID.TID 0000.0001) %MON land_SnwH_max_N              =   9.9999897564460E-01
(PID.TID 0000.0001) %MON land_TotEnerg_G              =  -6.3312972820180E+21
(PID.TID 0000.0001) %MON land_TotEnerg_S              =  -5.0007668333439E+21
(PID.TID 0000.0001) %MON land_TotEnerg_T              =   7.2897670385604E+21
(PID.TID 0000.0001) %MON land_TotEnerg_N              =  -8.6202974872345E+21
(PID.TID 0000.0001) %MON land_Tsrf_ave_G              =  -7.7576942021027E+00
(PID.TID 0000.0001) %MON land_Tsrf_ave_S              =  -7.0287910622352E+00
(PID.TID 0000.0001) %MON land_Tsrf_ave_T              =   1.1672369452606E+01
(PID.TID 0000.0001) %MON land_Tsrf_ave_N              =  -2.0968971019618E+01
(PID.TID 0000.0001) %MON land_Tsrf_min_S              =  -3.3930571825347E+01
(PID.TID 0000.0001) %MON land_Tsrf_min_T              =  -4.9406609628307E+00
(PID.TID 0000.0001) %MON land_Tsrf_min_N              =  -5.2003701393873E+01
(PID.TID 0000.0001) %MON land_Tsrf_max_S              =   2.2078503030542E+01
(PID.TID 0000.0001) %MON land_Tsrf_max_T              =   2.3157435069034E+01
(PID.TID 0000.0001) %MON land_Tsrf_max_N              =   1.0121943101408E+01
(PID.TID 0000.0001) %MON land_Tgr1_ave_G              =  -6.4733020318359E+00
(PID.TID 0000.0001) %MON land_Tgr1_ave_S              =  -6.6779775452166E+00
(PID.TID 0000.0001) %MON land_Tgr1_ave_T              =   1.1672369452606E+01
(PID.TID 0000.0001) %MON land_Tgr1_ave_N              =  -1.8524052304645E+01
(PID.TID 0000.0001) %MON land_Tgr1_min_S              =  -3.9163054423868E+01
(PID.TID 0000.0001) %MON land_Tgr1_min_T              =  -4.9406609628307E+00
(PID.TID 0000.0001) %MON land_Tgr1_min_N              =  -5.4820584214986E+01
(PID.TID 0000.0001) %MON land_Tgr1_max_S              =   2.2078503030542E+01
(PID.TID 0000.0001) %MON land_Tgr1_max_T              =   2.3157435069034E+01
(PID.TID 0000.0001) %MON land_Tgr1_max_N              =   1.0121943101408E+01
(PID.TID 0000.0001) %MON land_Tgr2_ave_G              =   4.2054432380711E+00
(PID.TID 0000.0001) %MON land_Tgr2_ave_S              =  -1.8728616240963E+01
(PID.TID 0000.0001) %MON land_Tgr2_ave_T              =   2.2011245435889E+01
(PID.TID 0000.0001) %MON land_Tgr2_ave_N              =  -2.4507865437612E-01
(PID.TID 0000.0001) %MON land_Tgr2_min_S              =  -6.4755799983159E+01
(PID.TID 0000.0001) %MON land_Tgr2_min_T              =  -9.7044522683160E+00
(PID.TID 0000.0001) %MON land_Tgr2_min_N              =  -4.0197214264830E+01
(PID.TID 0000.0001) %MON land_Tgr2_max_S              =   2.3360546691086E+01
(PID.TID 0000.0001) %MON land_Tgr2_max_T              =   3.1355929366874E+01
(PID.TID 0000.0001) %MON land_Tgr2_max_N              =   2.9826658521132E+01
(PID.TID 0000.0001) %MON land_grdW_ave_G              =   4.8684396904385E-01
(PID.TID 0000.0001) %MON land_grdW_ave_S              =   3.0860702322970E-01
(PID.TID 0000.0001) %MON land_grdW_ave_T              =   5.6439407839963E-01
(PID.TID 0000.0001) %MON land_grdW_ave_N              =   4.9287726593305E-01
(PID.TID 0000.0001) %MON land_grdW_min_S              =   2.6659419786920E-02
(PID.TID 0000.0001) %MON land_grdW_min_T              =   0.0000000000000E+00
(PID.TID 0000.0001) %MON land_grdW_min_N              =   0.0000000000000E+00
(PID.TID 0000.0001) // =======================================================
(PID.TID 0000.0001) // End MONITOR Land statistics
(PID.TID 0000.0001) // =======================================================
(PID.TID 0000.0001) // =======================================================
(PID.TID 0000.0001) // Begin MONITOR Therm.SeaIce statistics
(PID.TID 0000.0001) // =======================================================
(PID.TID 0000.0001) %MON thSI_time_sec                =   6.7500000000000E+03
(PID.TID 0000.0001) %MON thSI_Ice_Area_G              =   1.5786393793606E+11
(PID.TID 0000.0001) %MON thSI_Ice_Area_S              =   0.0000000000000E+00
(PID.TID 0000.0001) %MON thSI_Ice_Area_N              =   1.5786393793606E+11
(PID.TID 0000.0001) %MON thSI_IceH_ave_G              =   1.3360713423421E-01
(PID.TID 0000.0001) %MON thSI_IceH_ave_S              =   0.0000000000000E+00
(PID.TID 0000.0001) %MON thSI_IceH_ave_N              =   1.3360713423421E-01
(PID.TID 0000.0001) %MON thSI_IceH_max_S              =   0.0000000000000E+00
(PID.TID 0000.0001) %MON thSI_IceH_max_N              =   1.4237378690876E-01
(PID.TID 0000.0001) %MON thSI_SnwH_ave_G              =   0.0000000000000E+00
(PID.TID 0000.0001) %MON thSI_SnwH_ave_S              =   0.0000000000000E+00
(PID.TID 0000.0001) %MON thSI_SnwH_ave_N              =   0.0000000000000E+00
(PID.TID 0000.0001) %MON thSI_SnwH_max_S              =   0.0000000000000E+00
(PID.TID 0000.0001) %MON thSI_SnwH_max_N              =   0.0000000000000E+00
(PID.TID 0000.0001) %MON thSI_TotEnerg_G              =  -6.4675558655325E+18
(PID.TID 0000.0001) %MON thSI_Tsrf_ave_G              =  -7.8356045670188E+00
(PID.TID 0000.0001) %MON thSI_Tsrf_ave_S              =   0.0000000000000E+00
(PID.TID 0000.0001) %MON thSI_Tsrf_ave_N              =  -7.8356045670188E+00
(PID.TID 0000.0001) %MON thSI_Tsrf_min_S              =   0.0000000000000E+00
(PID.TID 0000.0001) %MON thSI_Tsrf_min_N              =  -7.9287613786873E+00
(PID.TID 0000.0001) %MON thSI_Tsrf_max_S              =   0.0000000000000E+00
(PID.TID 0000.0001) %MON thSI_Tsrf_max_N              =  -7.6626777875789E+00
(PID.TID 0000.0001) %MON thSI_Tic1_ave_G              =  -5.3538340470368E+00
(PID.TID 0000.0001) %MON thSI_Tic1_ave_S              =   0.0000000000000E+00
(PID.TID 0000.0001) %MON thSI_Tic1_ave_N              =  -5.3538340470368E+00
(PID.TID 0000.0001) %MON thSI_Tic1_min_S              =   0.0000000000000E+00
(PID.TID 0000.0001) %MON thSI_Tic1_min_N              =  -5.4406153449310E+00
(PID.TID 0000.0001) %MON thSI_Tic1_max_S              =   0.0000000000000E+00
(PID.TID 0000.0001) %MON thSI_Tic1_max_N              =  -5.2759270535199E+00
(PID.TID 0000.0001) %MON thSI_Tic2_ave_G              =  -2.6262919899519E+00
(PID.TID 0000.0001) %MON thSI_Tic2_ave_S              =   0.0000000000000E+00
(PID.TID 0000.0001) %MON thSI_Tic2_ave_N              =  -2.6262919899519E+00
(PID.TID 0000.0001) %MON thSI_Tic2_min_S              =   0.0000000000000E+00
(PID.TID 0000.0001) %MON thSI_Tic2_min_N              =  -2.7198227202902E+00
(PID.TID 0000.0001) %MON thSI_Tic2_max_S              =   0.0000000000000E+00
(PID.TID 0000.0001) %MON thSI_Tic2_max_N              =  -2.5443529994793E+00
(PID.TID 0000.0001) // =======================================================
(PID.TID 0000.0001) // End MONITOR Therm.SeaIce statistics
(PID.TID 0000.0001) // =======================================================
 cg2d: Sum(rhs),rhsMax =  -8.73114913702011E-10  2.57792664525330E+04
(PID.TID 0000.0001)                    cg2d_init_res =    1.31386057388808E+04
(PID.TID 0000.0001)                       cg2d_iters =    16
(PID.TID 0000.0001)                         cg2d_res =    8.68577535798775E-11
(PID.TID 0000.0001) // =======================================================
(PID.TID 0000.0001) // Begin MONITOR dynamic field statistics
(PID.TID 0000.0001) // =======================================================
(PID.TID 0000.0001) %MON time_tsnumber                =                    16
(PID.TID 0000.0001) %MON time_secondsf                =   7.2000000000000E+03
(PID.TID 0000.0001) %MON dynstat_eta_max              =   4.9100420791728E+03
(PID.TID 0000.0001) %MON dynstat_eta_min              =  -1.3020625283508E+03
(PID.TID 0000.0001) %MON dynstat_eta_mean             =   2.0483841170795E-14
(PID.TID 0000.0001) %MON dynstat_eta_sd               =   5.5316352680765E+02
(PID.TID 0000.0001) %MON dynstat_eta_del2             =   3.7582153221558E+01
(PID.TID 0000.0001) %MON dynstat_uvel_max             =   5.8732908049860E+00
(PID.TID 0000.0001) %MON dynstat_uvel_min             =  -6.5208401365050E+00
(PID.TID 0000.0001) %MON dynstat_uvel_mean            =  -9.6015199128431E-03
(PID.TID 0000.0001) %MON dynstat_uvel_sd              =   7.9205710997887E-01
(PID.TID 0000.0001) %MON dynstat_uvel_del2            =   2.0073363371909E-02
(PID.TID 0000.0001) %MON dynstat_vvel_max             =   5.9703612788569E+00
(PID.TID 0000.0001) %MON dynstat_vvel_min             =  -6.3098806126728E+00
(PID.TID 0000.0001) %MON dynstat_vvel_mean            =   2.3501026788045E-02
(PID.TID 0000.0001) %MON dynstat_vvel_sd              =   8.2358341504677E-01
(PID.TID 0000.0001) %MON dynstat_vvel_del2            =   2.0049871245199E-02
(PID.TID 0000.0001) %MON dynstat_wvel_max             =   1.6220338917213E-01
(PID.TID 0000.0001) %MON dynstat_wvel_min             =  -1.6276456473403E-01
(PID.TID 0000.0001) %MON dynstat_wvel_mean            =  -6.5416228987216E-04
(PID.TID 0000.0001) %MON dynstat_wvel_sd              =   8.5723924737621E-03
(PID.TID 0000.0001) %MON dynstat_wvel_del2            =   1.2921398324042E-03
(PID.TID 0000.0001) %MON dynstat_theta_max            =   4.3805825999235E+02
(PID.TID 0000.0001) %MON dynstat_theta_min            =   2.8570160102406E+02
(PID.TID 0000.0001) %MON dynstat_theta_mean           =   3.3170217750231E+02
(PID.TID 0000.0001) %MON dynstat_theta_sd             =   4.7435265313097E+01
(PID.TID 0000.0001) %MON dynstat_theta_del2           =   1.7909413816229E-02
(PID.TID 0000.0001) %MON dynstat_salt_max             =   3.8410127535433E+00
(PID.TID 0000.0001) %MON dynstat_salt_min             =  -3.2244365466147E-03
(PID.TID 0000.0001) %MON dynstat_salt_mean            =   5.9591360039575E-02
(PID.TID 0000.0001) %MON dynstat_salt_sd              =   2.4537039696111E-01
(PID.TID 0000.0001) %MON dynstat_salt_del2            =   7.9602267870583E-03
(PID.TID 0000.0001) %MON advcfl_uvel_max              =   9.1923758556838E-03
(PID.TID 0000.0001) %MON advcfl_vvel_max              =   9.1215404862779E-03
(PID.TID 0000.0001) %MON advcfl_wvel_max              =   4.0670589981982E-03
(PID.TID 0000.0001) %MON advcfl_W_hf_max              =   1.4389663385603E-02
(PID.TID 0000.0001) %MON pe_b_mean                    =  -1.1081540527091E+00
(PID.TID 0000.0001) %MON ke_max                       =   2.6951360622568E+01
(PID.TID 0000.0001) %MON ke_mean                      =   6.4928828119617E-01
(PID.TID 0000.0001) %MON ke_vol                       =   4.9523908919847E+19
(PID.TID 0000.0001) %MON vort_r_min                   =  -2.7109971514416E-05
(PID.TID 0000.0001) %MON vort_r_max                   =   1.4948279687217E-05
(PID.TID 0000.0001) %MON vort_a_mean                  =   6.7242814765378E-08
(PID.TID 0000.0001) %MON vort_a_sd                    =   8.3967532516419E-05
(PID.TID 0000.0001) %MON vort_p_mean                  =   6.8939458308638E-08
(PID.TID 0000.0001) %MON vort_p_sd                    =   9.1906659630389E-05
(PID.TID 0000.0001) %MON surfExpan_theta_mean         =   6.0767650479831E-02
(PID.TID 0000.0001) %MON surfExpan_salt_mean          =  -3.0342944434893E-04
(PID.TID 0000.0001) %MON surfExpan_Heat_mean          =  -5.4228787869494E+00
(PID.TID 0000.0001) %MON En_Budget_T2PE_mean          =   9.8973165798360E+00
(PID.TID 0000.0001) // =======================================================
(PID.TID 0000.0001) // End MONITOR dynamic field statistics
(PID.TID 0000.0001) // =======================================================
(PID.TID 0000.0001) // =======================================================
(PID.TID 0000.0001) // Begin MONITOR Land statistics
(PID.TID 0000.0001) // =======================================================
(PID.TID 0000.0001) %MON land_time_sec                =   7.2000000000000E+03
(PID.TID 0000.0001) %MON land_SnwH_ave_G              =   1.5323234475968E-01
(PID.TID 0000.0001) %MON land_SnwH_ave_S              =   5.5904903965969E-01
(PID.TID 0000.0001) %MON land_SnwH_ave_T              =   0.0000000000000E+00
(PID.TID 0000.0001) %MON land_SnwH_ave_N              =   1.2391193495855E-01
(PID.TID 0000.0001) %MON land_SnwH_max_S              =   9.9999147025312E-01
(PID.TID 0000.0001) %MON land_SnwH_max_T              =   0.0000000000000E+00
(PID.TID 0000.0001) %MON land_SnwH_max_N              =   9.9999891178174E-01
(PID.TID 0000.0001) %MON land_TotEnerg_G              =  -6.3340963476072E+21
(PID.TID 0000.0001) %MON land_TotEnerg_S              =  -5.0010186349304E+21
(PID.TID 0000.0001) %MON land_TotEnerg_T              =   7.2879533765423E+21
(PID.TID 0000.0001) %MON land_TotEnerg_N              =  -8.6210310892191E+21
(PID.TID 0000.0001) %MON land_Tsrf_ave_G              =  -7.8599915612951E+00
(PID.TID 0000.0001) %MON land_Tsrf_ave_S              =  -7.1241801699891E+00
(PID.TID 0000.0001) %MON land_Tsrf_ave_T              =   1.1463504186032E+01
(PID.TID 0000.0001) %MON land_Tsrf_ave_N              =  -2.1002346459044E+01
(PID.TID 0000.0001) %MON land_Tsrf_min_S              =  -3.3876564722654E+01
(PID.TID 0000.0001) %MON land_Tsrf_min_T              =  -4.7856511260316E+00
(PID.TID 0000.0001) %MON land_Tsrf_min_N              =  -5.2018003017516E+01
(PID.TID 0000.0001) %MON land_Tsrf_max_S              =   2.1807646814905E+01
(PID.TID 0000.0001) %MON land_Tsrf_max_T              =   2.2769348955621E+01
(PID.TID 0000.0001) %MON land_Tsrf_max_N              =   9.9148229515387E+00
(PID.TID 0000.0001) %MON land_Tgr1_ave_G              =  -6.5766429581176E+00
(PID.TID 0000.0001) %MON land_Tgr1_ave_S              =  -6.7571943433823E+00
(PID.TID 0000.0001) %MON land_Tgr1_ave_T              =   1.1463504186032E+01
(PID.TID 0000.0001) %MON land_Tgr1_ave_N              =  -1.8564752900068E+01
(PID.TID 0000.0001) %MON land_Tgr1_min_S              =  -3.9174191632142E+01
(PID.TID 0000.0001) %MON land_Tgr1_min_T              =  -4.7856511260316E+00
(PID.TID 0000.0001) %MON land_Tgr1_min_N              =  -5.4807882969461E+01
(PID.TID 0000.0001) %MON land_Tgr1_max_S              =   2.1807646814905E+01
(PID.TID 0000.0001) %MON land_Tgr1_max_T              =   2.2769348955621E+01
(PID.TID 0000.0001) %MON land_Tgr1_max_N              =   9.9148229515387E+00
(PID.TID 0000.0001) %MON land_Tgr2_ave_G              =   4.2052779857648E+00
(PID.TID 0000.0001) %MON land_Tgr2_ave_S              =  -1.8728415968070E+01
(PID.TID 0000.0001) %MON land_Tgr2_ave_T              =   2.2011073509290E+01
(PID.TID 0000.0001) %MON land_Tgr2_ave_N              =  -2.4535802393357E-01
(PID.TID 0000.0001) %MON land_Tgr2_min_S              =  -6.4755368630971E+01
(PID.TID 0000.0001) %MON land_Tgr2_min_T              =  -9.7043901174843E+00
(PID.TID 0000.0001) %MON land_Tgr2_min_N              =  -4.0197451930214E+01
(PID.TID 0000.0001) %MON land_Tgr2_max_S              =   2.3360510145253E+01
(PID.TID 0000.0001) %MON land_Tgr2_max_T              =   3.1355532025311E+01
(PID.TID 0000.0001) %MON land_Tgr2_max_N              =   2.9826184673346E+01
(PID.TID 0000.0001) %MON land_grdW_ave_G              =   4.8683437063090E-01
(PID.TID 0000.0001) %MON land_grdW_ave_S              =   3.0859819644156E-01
(PID.TID 0000.0001) %MON land_grdW_ave_T              =   5.6437020924264E-01
(PID.TID 0000.0001) %MON land_grdW_ave_N              =   4.9287694679288E-01
(PID.TID 0000.0001) %MON land_grdW_min_S              =   2.6740075321566E-02
(PID.TID 0000.0001) %MON land_grdW_min_T              =   0.0000000000000E+00
(PID.TID 0000.0001) %MON land_grdW_min_N              =   0.0000000000000E+00
(PID.TID 0000.0001) // =======================================================
(PID.TID 0000.0001) // End MONITOR Land statistics
(PID.TID 0000.0001) // =======================================================
(PID.TID 0000.0001) // =======================================================
(PID.TID 0000.0001) // Begin MONITOR Therm.SeaIce statistics
(PID.TID 0000.0001) // =======================================================
(PID.TID 0000.0001) %MON thSI_time_sec                =   7.2000000000000E+03
(PID.TID 0000.0001) %MON thSI_Ice_Area_G              =   1.6536795897330E+11
(PID.TID 0000.0001) %MON thSI_Ice_Area_S              =   0.0000000000000E+00
(PID.TID 0000.0001) %MON thSI_Ice_Area_N              =   1.6536795897330E+11
(PID.TID 0000.0001) %MON thSI_IceH_ave_G              =   1.3602456209670E-01
(PID.TID 0000.0001) %MON thSI_IceH_ave_S              =   0.0000000000000E+00
(PID.TID 0000.0001) %MON thSI_IceH_ave_N              =   1.3602456209670E-01
(PID.TID 0000.0001) %MON thSI_IceH_max_S              =   0.0000000000000E+00
(PID.TID 0000.0001) %MON thSI_IceH_max_N              =   1.4543385545540E-01
(PID.TID 0000.0001) %MON thSI_SnwH_ave_G              =   0.0000000000000E+00
(PID.TID 0000.0001) %MON thSI_SnwH_ave_S              =   0.0000000000000E+00
(PID.TID 0000.0001) %MON thSI_SnwH_ave_N              =   0.0000000000000E+00
(PID.TID 0000.0001) %MON thSI_SnwH_max_S              =   0.0000000000000E+00
(PID.TID 0000.0001) %MON thSI_SnwH_max_N              =   0.0000000000000E+00
(PID.TID 0000.0001) %MON thSI_TotEnerg_G              =  -6.9030584611507E+18
(PID.TID 0000.0001) %MON thSI_Tsrf_ave_G              =  -8.0076916905349E+00
(PID.TID 0000.0001) %MON thSI_Tsrf_ave_S              =   0.0000000000000E+00
(PID.TID 0000.0001) %MON thSI_Tsrf_ave_N              =  -8.0076916905349E+00
(PID.TID 0000.0001) %MON thSI_Tsrf_min_S              =   0.0000000000000E+00
(PID.TID 0000.0001) %MON thSI_Tsrf_min_N              =  -8.1034246996931E+00
(PID.TID 0000.0001) %MON thSI_Tsrf_max_S              =   0.0000000000000E+00
(PID.TID 0000.0001) %MON thSI_Tsrf_max_N              =  -7.8257883937355E+00
(PID.TID 0000.0001) %MON thSI_Tic1_ave_G              =  -5.5156270850593E+00
(PID.TID 0000.0001) %MON thSI_Tic1_ave_S              =   0.0000000000000E+00
(PID.TID 0000.0001) %MON thSI_Tic1_ave_N              =  -5.5156270850593E+00
(PID.TID 0000.0001) %MON thSI_Tic1_min_S              =   0.0000000000000E+00
(PID.TID 0000.0001) %MON thSI_Tic1_min_N              =  -5.6033343048491E+00
(PID.TID 0000.0001) %MON thSI_Tic1_max_S              =   0.0000000000000E+00
(PID.TID 0000.0001) %MON thSI_Tic1_max_N              =  -5.4365263401627E+00
(PID.TID 0000.0001) %MON thSI_Tic2_ave_G              =  -2.6785832545718E+00
(PID.TID 0000.0001) %MON thSI_Tic2_ave_S              =   0.0000000000000E+00
(PID.TID 0000.0001) %MON thSI_Tic2_ave_N              =  -2.6785832545718E+00
(PID.TID 0000.0001) %MON thSI_Tic2_min_S              =   0.0000000000000E+00
(PID.TID 0000.0001) %MON thSI_Tic2_min_N              =  -2.7760364551190E+00
(PID.TID 0000.0001) %MON thSI_Tic2_max_S              =   0.0000000000000E+00
(PID.TID 0000.0001) %MON thSI_Tic2_max_N              =  -2.5932108293703E+00
(PID.TID 0000.0001) // =======================================================
(PID.TID 0000.0001) // End MONITOR Therm.SeaIce statistics
(PID.TID 0000.0001) // =======================================================
 cg2d: Sum(rhs),rhsMax =  -2.18278728425503E-11  2.57281275037134E+04
(PID.TID 0000.0001)                    cg2d_init_res =    1.27104607416393E+04
(PID.TID 0000.0001)                       cg2d_iters =    16
(PID.TID 0000.0001)                         cg2d_res =    8.51547338705573E-11
(PID.TID 0000.0001) // =======================================================
(PID.TID 0000.0001) // Begin MONITOR dynamic field statistics
(PID.TID 0000.0001) // =======================================================
(PID.TID 0000.0001) %MON time_tsnumber                =                    17
(PID.TID 0000.0001) %MON time_secondsf                =   7.6500000000000E+03
(PID.TID 0000.0001) %MON dynstat_eta_max              =   4.9064340389141E+03
(PID.TID 0000.0001) %MON dynstat_eta_min              =  -1.2206557498627E+03
(PID.TID 0000.0001) %MON dynstat_eta_mean             =   7.2295910014570E-15
(PID.TID 0000.0001) %MON dynstat_eta_sd               =   5.5902270098513E+02
(PID.TID 0000.0001) %MON dynstat_eta_del2             =   3.7442947471558E+01
(PID.TID 0000.0001) %MON dynstat_uvel_max             =   5.9259100692890E+00
(PID.TID 0000.0001) %MON dynstat_uvel_min             =  -6.5013282021439E+00
(PID.TID 0000.0001) %MON dynstat_uvel_mean            =  -9.3123170723659E-03
(PID.TID 0000.0001) %MON dynstat_uvel_sd              =   7.9906782634503E-01
(PID.TID 0000.0001) %MON dynstat_uvel_del2            =   2.0514625951213E-02
(PID.TID 0000.0001) %MON dynstat_vvel_max             =   5.3233196682810E+00
(PID.TID 0000.0001) %MON dynstat_vvel_min             =  -5.8746279001760E+00
(PID.TID 0000.0001) %MON dynstat_vvel_mean            =   2.4858398913746E-02
(PID.TID 0000.0001) %MON dynstat_vvel_sd              =   8.1501528819448E-01
(PID.TID 0000.0001) %MON dynstat_vvel_del2            =   2.0371094648050E-02
(PID.TID 0000.0001) %MON dynstat_wvel_max             =   1.7224750171093E-01
(PID.TID 0000.0001) %MON dynstat_wvel_min             =  -1.2178341491929E-01
(PID.TID 0000.0001) %MON dynstat_wvel_mean            =  -4.9058375086281E-04
(PID.TID 0000.0001) %MON dynstat_wvel_sd              =   8.3415365309615E-03
(PID.TID 0000.0001) %MON dynstat_wvel_del2            =   1.3280060182475E-03
(PID.TID 0000.0001) %MON dynstat_theta_max            =   4.3815780169703E+02
(PID.TID 0000.0001) %MON dynstat_theta_min            =   2.8546859705394E+02
(PID.TID 0000.0001) %MON dynstat_theta_mean           =   3.3170048350930E+02
(PID.TID 0000.0001) %MON dynstat_theta_sd             =   4.7437172447820E+01
(PID.TID 0000.0001) %MON dynstat_theta_del2           =   1.8755796942241E-02
(PID.TID 0000.0001) %MON dynstat_salt_max             =   3.9392888512840E+00
(PID.TID 0000.0001) %MON dynstat_salt_min             =  -3.5875388225683E-03
(PID.TID 0000.0001) %MON dynstat_salt_mean            =   6.3089540304533E-02
(PID.TID 0000.0001) %MON dynstat_salt_sd              =   2.5849686593210E-01
(PID.TID 0000.0001) %MON dynstat_salt_del2            =   8.3167320035521E-03
(PID.TID 0000.0001) %MON advcfl_uvel_max              =   9.1648700388621E-03
(PID.TID 0000.0001) %MON advcfl_vvel_max              =   8.3739742958431E-03
(PID.TID 0000.0001) %MON advcfl_wvel_max              =   3.7439767905662E-03
(PID.TID 0000.0001) %MON advcfl_W_hf_max              =   1.3223210188444E-02
(PID.TID 0000.0001) %MON pe_b_mean                    =  -1.1172606156008E+00
(PID.TID 0000.0001) %MON ke_max                       =   2.5059597665312E+01
(PID.TID 0000.0001) %MON ke_mean                      =   6.4788146400857E-01
(PID.TID 0000.0001) %MON ke_vol                       =   4.9523908919847E+19
(PID.TID 0000.0001) %MON vort_r_min                   =  -2.5800620693952E-05
(PID.TID 0000.0001) %MON vort_r_max                   =   1.3498145830460E-05
(PID.TID 0000.0001) %MON vort_a_mean                  =   6.7242814765417E-08
(PID.TID 0000.0001) %MON vort_a_sd                    =   8.3970204968570E-05
(PID.TID 0000.0001) %MON vort_p_mean                  =   6.8939459778491E-08
(PID.TID 0000.0001) %MON vort_p_sd                    =   9.1906237101093E-05
(PID.TID 0000.0001) %MON surfExpan_theta_mean         =   4.4556165285347E-02
(PID.TID 0000.0001) %MON surfExpan_salt_mean          =  -3.5177754424607E-04
(PID.TID 0000.0001) %MON surfExpan_Heat_mean          =  -4.0883143815380E+00
(PID.TID 0000.0001) %MON En_Budget_T2PE_mean          =   7.3744871762912E+00
(PID.TID 0000.0001) // =======================================================
(PID.TID 0000.0001) // End MONITOR dynamic field statistics
(PID.TID 0000.0001) // =======================================================
(PID.TID 0000.0001) // =======================================================
(PID.TID 0000.0001) // Begin MONITOR Land statistics
(PID.TID 0000.0001) // =======================================================
(PID.TID 0000.0001) %MON land_time_sec                =   7.6500000000000E+03
(PID.TID 0000.0001) %MON land_SnwH_ave_G              =   1.5323136823209E-01
(PID.TID 0000.0001) %MON land_SnwH_ave_S              =   5.5904816338949E-01
(PID.TID 0000.0001) %MON land_SnwH_ave_T              =   0.0000000000000E+00
(PID.TID 0000.0001) %MON land_SnwH_ave_N              =   1.2391027381167E-01
(PID.TID 0000.0001) %MON land_SnwH_max_S              =   9.9999090739094E-01
(PID.TID 0000.0001) %MON land_SnwH_max_T              =   0.0000000000000E+00
(PID.TID 0000.0001) %MON land_SnwH_max_N              =   9.9999884803344E-01
(PID.TID 0000.0001) %MON land_TotEnerg_G              =  -6.3366734400250E+21
(PID.TID 0000.0001) %MON land_TotEnerg_S              =  -5.0012406091568E+21
(PID.TID 0000.0001) %MON land_TotEnerg_T              =   7.2863148312155E+21
(PID.TID 0000.0001) %MON land_TotEnerg_N              =  -8.6217476620837E+21
(PID.TID 0000.0001) %MON land_Tsrf_ave_G              =  -7.9511126865033E+00
(PID.TID 0000.0001) %MON land_Tsrf_ave_S              =  -7.2007283089807E+00
(PID.TID 0000.0001) %MON land_Tsrf_ave_T              =   1.1274733951250E+01
(PID.TID 0000.0001) %MON land_Tsrf_ave_N              =  -2.1032987768623E+01
(PID.TID 0000.0001) %MON land_Tsrf_min_S              =  -3.3826180928012E+01
(PID.TID 0000.0001) %MON land_Tsrf_min_T              =  -4.6354480140712E+00
(PID.TID 0000.0001) %MON land_Tsrf_min_N              =  -5.2028784861246E+01
(PID.TID 0000.0001) %MON land_Tsrf_max_S              =   2.1566099947955E+01
(PID.TID 0000.0001) %MON land_Tsrf_max_T              =   2.2418525578920E+01
(PID.TID 0000.0001) %MON land_Tsrf_max_N              =   9.7179608945481E+00
(PID.TID 0000.0001) %MON land_Tgr1_ave_G              =  -6.6705095596792E+00
(PID.TID 0000.0001) %MON land_Tgr1_ave_S              =  -6.8277888221683E+00
(PID.TID 0000.0001) %MON land_Tgr1_ave_T              =   1.1274733951250E+01
(PID.TID 0000.0001) %MON land_Tgr1_ave_N              =  -1.8602794981262E+01
(PID.TID 0000.0001) %MON land_Tgr1_min_S              =  -3.9185357397837E+01
(PID.TID 0000.0001) %MON land_Tgr1_min_T              =  -4.6354480140712E+00
(PID.TID 0000.0001) %MON land_Tgr1_min_N              =  -5.4795213200627E+01
(PID.TID 0000.0001) %MON land_Tgr1_max_S              =   2.1566099947955E+01
(PID.TID 0000.0001) %MON land_Tgr1_max_T              =   2.2418525578920E+01
(PID.TID 0000.0001) %MON land_Tgr1_max_N              =   9.7179608945481E+00
(PID.TID 0000.0001) %MON land_Tgr2_ave_G              =   4.2051112568412E+00
(PID.TID 0000.0001) %MON land_Tgr2_ave_S              =  -1.8728216815064E+01
(PID.TID 0000.0001) %MON land_Tgr2_ave_T              =   2.2010898691864E+01
(PID.TID 0000.0001) %MON land_Tgr2_ave_N              =  -2.4563804146130E-01
(PID.TID 0000.0001) %MON land_Tgr2_min_S              =  -6.4754937491274E+01
(PID.TID 0000.0001) %MON land_Tgr2_min_T              =  -9.7043260697366E+00
(PID.TID 0000.0001) %MON land_Tgr2_min_N              =  -4.0197689354660E+01
(PID.TID 0000.0001) %MON land_Tgr2_max_S              =   2.3360469139273E+01
(PID.TID 0000.0001) %MON land_Tgr2_max_T              =   3.1355129954867E+01
(PID.TID 0000.0001) %MON land_Tgr2_max_N              =   2.9825704043330E+01
(PID.TID 0000.0001) %MON land_grdW_ave_G              =   4.8682507426649E-01
(PID.TID 0000.0001) %MON land_grdW_ave_S              =   3.0858953492379E-01
(PID.TID 0000.0001) %MON land_grdW_ave_T              =   5.6434715490373E-01
(PID.TID 0000.0001) %MON land_grdW_ave_N              =   4.9287663165884E-01
(PID.TID 0000.0001) %MON land_grdW_min_S              =   2.6822226311865E-02
(PID.TID 0000.0001) %MON land_grdW_min_T              =   0.0000000000000E+00
(PID.TID 0000.0001) %MON land_grdW_min_N              =   0.0000000000000E+00
(PID.TID 0000.0001) // =======================================================
(PID.TID 0000.0001) // End MONITOR Land statistics
(PID.TID 0000.0001) // =======================================================
(PID.TID 0000.0001) // =======================================================
(PID.TID 0000.0001) // Begin MONITOR Therm.SeaIce statistics
(PID.TID 0000.0001) // =======================================================
(PID.TID 0000.0001) %MON thSI_time_sec                =   7.6500000000000E+03
(PID.TID 0000.0001) %MON thSI_Ice_Area_G              =   1.6631299639034E+11
(PID.TID 0000.0001) %MON thSI_Ice_Area_S              =   0.0000000000000E+00
(PID.TID 0000.0001) %MON thSI_Ice_Area_N              =   1.6631299639034E+11
(PID.TID 0000.0001) %MON thSI_IceH_ave_G              =   1.3637650357855E-01
(PID.TID 0000.0001) %MON thSI_IceH_ave_S              =   0.0000000000000E+00
(PID.TID 0000.0001) %MON thSI_IceH_ave_N              =   1.3637650357855E-01
(PID.TID 0000.0001) %MON thSI_IceH_max_S              =   0.0000000000000E+00
(PID.TID 0000.0001) %MON thSI_IceH_max_N              =   1.4577711685558E-01
(PID.TID 0000.0001) %MON thSI_SnwH_ave_G              =   0.0000000000000E+00
(PID.TID 0000.0001) %MON thSI_SnwH_ave_S              =   0.0000000000000E+00
(PID.TID 0000.0001) %MON thSI_SnwH_ave_N              =   0.0000000000000E+00
(PID.TID 0000.0001) %MON thSI_SnwH_max_S              =   0.0000000000000E+00
(PID.TID 0000.0001) %MON thSI_SnwH_max_N              =   0.0000000000000E+00
(PID.TID 0000.0001) %MON thSI_TotEnerg_G              =  -6.9666742208348E+18
(PID.TID 0000.0001) %MON thSI_Tsrf_ave_G              =  -8.1672349450867E+00
(PID.TID 0000.0001) %MON thSI_Tsrf_ave_S              =   0.0000000000000E+00
(PID.TID 0000.0001) %MON thSI_Tsrf_ave_N              =  -8.1672349450867E+00
(PID.TID 0000.0001) %MON thSI_Tsrf_min_S              =   0.0000000000000E+00
(PID.TID 0000.0001) %MON thSI_Tsrf_min_N              =  -8.2656229055819E+00
(PID.TID 0000.0001) %MON thSI_Tsrf_max_S              =   0.0000000000000E+00
(PID.TID 0000.0001) %MON thSI_Tsrf_max_N              =  -7.9754556493493E+00
(PID.TID 0000.0001) %MON thSI_Tic1_ave_G              =  -5.6646249362728E+00
(PID.TID 0000.0001) %MON thSI_Tic1_ave_S              =   0.0000000000000E+00
(PID.TID 0000.0001) %MON thSI_Tic1_ave_N              =  -5.6646249362728E+00
(PID.TID 0000.0001) %MON thSI_Tic1_min_S              =   0.0000000000000E+00
(PID.TID 0000.0001) %MON thSI_Tic1_min_N              =  -5.7524058426214E+00
(PID.TID 0000.0001) %MON thSI_Tic1_max_S              =   0.0000000000000E+00
(PID.TID 0000.0001) %MON thSI_Tic1_max_N              =  -5.5848512479421E+00
(PID.TID 0000.0001) %MON thSI_Tic2_ave_G              =  -2.7270732541919E+00
(PID.TID 0000.0001) %MON thSI_Tic2_ave_S              =   0.0000000000000E+00
(PID.TID 0000.0001) %MON thSI_Tic2_ave_N              =  -2.7270732541919E+00
(PID.TID 0000.0001) %MON thSI_Tic2_min_S              =   0.0000000000000E+00
(PID.TID 0000.0001) %MON thSI_Tic2_min_N              =  -2.8279278524624E+00
(PID.TID 0000.0001) %MON thSI_Tic2_max_S              =   0.0000000000000E+00
(PID.TID 0000.0001) %MON thSI_Tic2_max_N              =  -2.6384492140752E+00
(PID.TID 0000.0001) // =======================================================
(PID.TID 0000.0001) // End MONITOR Therm.SeaIce statistics
(PID.TID 0000.0001) // =======================================================
 cg2d: Sum(rhs),rhsMax =  -5.96628524363041E-10  2.63690916755707E+04
(PID.TID 0000.0001)                    cg2d_init_res =    1.24497568043269E+04
(PID.TID 0000.0001)                       cg2d_iters =    16
(PID.TID 0000.0001)                         cg2d_res =    8.28249349634394E-11
(PID.TID 0000.0001) // =======================================================
(PID.TID 0000.0001) // Begin MONITOR dynamic field statistics
(PID.TID 0000.0001) // =======================================================
(PID.TID 0000.0001) %MON time_tsnumber                =                    18
(PID.TID 0000.0001) %MON time_secondsf                =   8.1000000000000E+03
(PID.TID 0000.0001) %MON dynstat_eta_max              =   4.8384622760705E+03
(PID.TID 0000.0001) %MON dynstat_eta_min              =  -1.1355183605994E+03
(PID.TID 0000.0001) %MON dynstat_eta_mean             =  -7.6312349459824E-15
(PID.TID 0000.0001) %MON dynstat_eta_sd               =   5.6207740454676E+02
(PID.TID 0000.0001) %MON dynstat_eta_del2             =   3.7287401167640E+01
(PID.TID 0000.0001) %MON dynstat_uvel_max             =   5.9550512860053E+00
(PID.TID 0000.0001) %MON dynstat_uvel_min             =  -6.3439093396994E+00
(PID.TID 0000.0001) %MON dynstat_uvel_mean            =  -8.6781681267302E-03
(PID.TID 0000.0001) %MON dynstat_uvel_sd              =   8.0716426217640E-01
(PID.TID 0000.0001) %MON dynstat_uvel_del2            =   2.1072142372889E-02
(PID.TID 0000.0001) %MON dynstat_vvel_max             =   4.8020309913316E+00
(PID.TID 0000.0001) %MON dynstat_vvel_min             =  -5.7263816527088E+00
(PID.TID 0000.0001) %MON dynstat_vvel_mean            =   2.6049437938781E-02
(PID.TID 0000.0001) %MON dynstat_vvel_sd              =   8.0841776592586E-01
(PID.TID 0000.0001) %MON dynstat_vvel_del2            =   2.0752247173424E-02
(PID.TID 0000.0001) %MON dynstat_wvel_max             =   1.8096335406975E-01
(PID.TID 0000.0001) %MON dynstat_wvel_min             =  -1.0749444552923E-01
(PID.TID 0000.0001) %MON dynstat_wvel_mean            =  -3.2936232028153E-04
(PID.TID 0000.0001) %MON dynstat_wvel_sd              =   8.4010004129060E-03
(PID.TID 0000.0001) %MON dynstat_wvel_del2            =   1.3746383630007E-03
(PID.TID 0000.0001) %MON dynstat_theta_max            =   4.3823375772581E+02
(PID.TID 0000.0001) %MON dynstat_theta_min            =   2.8523741882390E+02
(PID.TID 0000.0001) %MON dynstat_theta_mean           =   3.3169874657464E+02
(PID.TID 0000.0001) %MON dynstat_theta_sd             =   4.7439104709256E+01
(PID.TID 0000.0001) %MON dynstat_theta_del2           =   1.9588178777110E-02
(PID.TID 0000.0001) %MON dynstat_salt_max             =   4.0301237460955E+00
(PID.TID 0000.0001) %MON dynstat_salt_min             =  -3.9696906901614E-03
(PID.TID 0000.0001) %MON dynstat_salt_mean            =   6.6570694537850E-02
(PID.TID 0000.0001) %MON dynstat_salt_sd              =   2.7145686650753E-01
(PID.TID 0000.0001) %MON dynstat_salt_del2            =   8.6616185460392E-03
(PID.TID 0000.0001) %MON advcfl_uvel_max              =   9.0101630919217E-03
(PID.TID 0000.0001) %MON advcfl_vvel_max              =   8.1626570368031E-03
(PID.TID 0000.0001) %MON advcfl_wvel_max              =   3.3514578675820E-03
(PID.TID 0000.0001) %MON advcfl_W_hf_max              =   1.2595470611243E-02
(PID.TID 0000.0001) %MON pe_b_mean                    =  -1.1283064114215E+00
(PID.TID 0000.0001) %MON ke_max                       =   2.3842925815315E+01
(PID.TID 0000.0001) %MON ke_mean                      =   6.4904356918620E-01
(PID.TID 0000.0001) %MON ke_vol                       =   4.9523908919847E+19
(PID.TID 0000.0001) %MON vort_r_min                   =  -2.4159347145974E-05
(PID.TID 0000.0001) %MON vort_r_max                   =   1.1627676847716E-05
(PID.TID 0000.0001) %MON vort_a_mean                  =   6.7242814765313E-08
(PID.TID 0000.0001) %MON vort_a_sd                    =   8.3972899036987E-05
(PID.TID 0000.0001) %MON vort_p_mean                  =   6.8939461099733E-08
(PID.TID 0000.0001) %MON vort_p_sd                    =   9.1902535667099E-05
(PID.TID 0000.0001) %MON surfExpan_theta_mean         =   2.8675640998949E-02
(PID.TID 0000.0001) %MON surfExpan_salt_mean          =  -4.0616987204830E-04
(PID.TID 0000.0001) %MON surfExpan_Heat_mean          =  -2.7723466600415E+00
(PID.TID 0000.0001) %MON En_Budget_T2PE_mean          =   4.8933558900500E+00
(PID.TID 0000.0001) // =======================================================
(PID.TID 0000.0001) // End MONITOR dynamic field statistics
(PID.TID 0000.0001) // =======================================================
(PID.TID 0000.0001) // =======================================================
(PID.TID 0000.0001) // Begin MONITOR Land statistics
(PID.TID 0000.0001) // =======================================================
(PID.TID 0000.0001) %MON land_time_sec                =   8.1000000000000E+03
(PID.TID 0000.0001) %MON land_SnwH_ave_G              =   1.5323039647335E-01
(PID.TID 0000.0001) %MON land_SnwH_ave_S              =   5.5904729332990E-01
(PID.TID 0000.0001) %MON land_SnwH_ave_T              =   0.0000000000000E+00
(PID.TID 0000.0001) %MON land_SnwH_ave_N              =   1.2390862015044E-01
(PID.TID 0000.0001) %MON land_SnwH_max_S              =   9.9999034247034E-01
(PID.TID 0000.0001) %MON land_SnwH_max_T              =   0.0000000000000E+00
(PID.TID 0000.0001) %MON land_SnwH_max_N              =   9.9999878437714E-01
(PID.TID 0000.0001) %MON land_TotEnerg_G              =  -6.3390520103257E+21
(PID.TID 0000.0001) %MON land_TotEnerg_S              =  -5.0014354476895E+21
(PID.TID 0000.0001) %MON land_TotEnerg_T              =   7.2848314347542E+21
(PID.TID 0000.0001) %MON land_TotEnerg_N              =  -8.6224479973904E+21
(PID.TID 0000.0001) %MON land_Tsrf_ave_G              =  -8.0319062690559E+00
(PID.TID 0000.0001) %MON land_Tsrf_ave_S              =  -7.2578861390948E+00
(PID.TID 0000.0001) %MON land_Tsrf_ave_T              =   1.1104224962509E+01
(PID.TID 0000.0001) %MON land_Tsrf_ave_N              =  -2.1061539335485E+01
(PID.TID 0000.0001) %MON land_Tsrf_min_S              =  -3.3790627127252E+01
(PID.TID 0000.0001) %MON land_Tsrf_min_T              =  -4.4898430365253E+00
(PID.TID 0000.0001) %MON land_Tsrf_min_N              =  -5.2037399939748E+01
(PID.TID 0000.0001) %MON land_Tsrf_max_S              =   2.1350926586501E+01
(PID.TID 0000.0001) %MON land_Tsrf_max_T              =   2.2101096800713E+01
(PID.TID 0000.0001) %MON land_Tsrf_max_N              =   9.5310946992667E+00
(PID.TID 0000.0001) %MON land_Tgr1_ave_G              =  -6.7558701204858E+00
(PID.TID 0000.0001) %MON land_Tgr1_ave_S              =  -6.8905522104077E+00
(PID.TID 0000.0001) %MON land_Tgr1_ave_T              =   1.1104224962509E+01
(PID.TID 0000.0001) %MON land_Tgr1_ave_N              =  -1.8638626311160E+01
(PID.TID 0000.0001) %MON land_Tgr1_min_S              =  -3.9196546584180E+01
(PID.TID 0000.0001) %MON land_Tgr1_min_T              =  -4.4898430365253E+00
(PID.TID 0000.0001) %MON land_Tgr1_min_N              =  -5.4782572746996E+01
(PID.TID 0000.0001) %MON land_Tgr1_max_S              =   2.1350926586501E+01
(PID.TID 0000.0001) %MON land_Tgr1_max_T              =   2.2101096800713E+01
(PID.TID 0000.0001) %MON land_Tgr1_max_N              =   9.5310946992667E+00
(PID.TID 0000.0001) %MON land_Tgr2_ave_G              =   4.2049431933256E+00
(PID.TID 0000.0001) %MON land_Tgr2_ave_S              =  -1.8728018658259E+01
(PID.TID 0000.0001) %MON land_Tgr2_ave_T              =   2.2010721279443E+01
(PID.TID 0000.0001) %MON land_Tgr2_ave_N              =  -2.4591866169336E-01
(PID.TID 0000.0001) %MON land_Tgr2_min_S              =  -6.4754506563148E+01
(PID.TID 0000.0001) %MON land_Tgr2_min_T              =  -9.7042601832138E+00
(PID.TID 0000.0001) %MON land_Tgr2_min_N              =  -4.0197926539125E+01
(PID.TID 0000.0001) %MON land_Tgr2_max_S              =   2.3360424124103E+01
(PID.TID 0000.0001) %MON land_Tgr2_max_T              =   3.1354723474234E+01
(PID.TID 0000.0001) %MON land_Tgr2_max_N              =   2.9825216876792E+01
(PID.TID 0000.0001) %MON land_grdW_ave_G              =   4.8681604748387E-01
(PID.TID 0000.0001) %MON land_grdW_ave_S              =   3.0858102825403E-01
(PID.TID 0000.0001) %MON land_grdW_ave_T              =   5.6432482462095E-01
(PID.TID 0000.0001) %MON land_grdW_ave_N              =   4.9287631984094E-01
(PID.TID 0000.0001) %MON land_grdW_min_S              =   2.6905626188777E-02
(PID.TID 0000.0001) %MON land_grdW_min_T              =   0.0000000000000E+00
(PID.TID 0000.0001) %MON land_grdW_min_N              =   0.0000000000000E+00
(PID.TID 0000.0001) // =======================================================
(PID.TID 0000.0001) // End MONITOR Land statistics
(PID.TID 0000.0001) // =======================================================
(PID.TID 0000.0001) // =======================================================
(PID.TID 0000.0001) // Begin MONITOR Therm.SeaIce statistics
(PID.TID 0000.0001) // =======================================================
(PID.TID 0000.0001) %MON thSI_time_sec                =   8.1000000000000E+03
(PID.TID 0000.0001) %MON thSI_Ice_Area_G              =   1.6725259036829E+11
(PID.TID 0000.0001) %MON thSI_Ice_Area_S              =   0.0000000000000E+00
(PID.TID 0000.0001) %MON thSI_Ice_Area_N              =   1.6725259036829E+11
(PID.TID 0000.0001) %MON thSI_IceH_ave_G              =   1.3673489732537E-01
(PID.TID 0000.0001) %MON thSI_IceH_ave_S              =   0.0000000000000E+00
(PID.TID 0000.0001) %MON thSI_IceH_ave_N              =   1.3673489732537E-01
(PID.TID 0000.0001) %MON thSI_IceH_max_S              =   0.0000000000000E+00
(PID.TID 0000.0001) %MON thSI_IceH_max_N              =   1.4612631466738E-01
(PID.TID 0000.0001) %MON thSI_SnwH_ave_G              =   0.0000000000000E+00
(PID.TID 0000.0001) %MON thSI_SnwH_ave_S              =   0.0000000000000E+00
(PID.TID 0000.0001) %MON thSI_SnwH_ave_N              =   0.0000000000000E+00
(PID.TID 0000.0001) %MON thSI_SnwH_max_S              =   0.0000000000000E+00
(PID.TID 0000.0001) %MON thSI_SnwH_max_N              =   0.0000000000000E+00
(PID.TID 0000.0001) %MON thSI_TotEnerg_G              =  -7.0302145753119E+18
(PID.TID 0000.0001) %MON thSI_Tsrf_ave_G              =  -8.2974008914496E+00
(PID.TID 0000.0001) %MON thSI_Tsrf_ave_S              =   0.0000000000000E+00
(PID.TID 0000.0001) %MON thSI_Tsrf_ave_N              =  -8.2974008914496E+00
(PID.TID 0000.0001) %MON thSI_Tsrf_min_S              =   0.0000000000000E+00
(PID.TID 0000.0001) %MON thSI_Tsrf_min_N              =  -8.3957332532459E+00
(PID.TID 0000.0001) %MON thSI_Tsrf_max_S              =   0.0000000000000E+00
(PID.TID 0000.0001) %MON thSI_Tsrf_max_N              =  -8.1035643225380E+00
(PID.TID 0000.0001) %MON thSI_Tic1_ave_G              =  -5.8197704760532E+00
(PID.TID 0000.0001) %MON thSI_Tic1_ave_S              =   0.0000000000000E+00
(PID.TID 0000.0001) %MON thSI_Tic1_ave_N              =  -5.8197704760532E+00
(PID.TID 0000.0001) %MON thSI_Tic1_min_S              =   0.0000000000000E+00
(PID.TID 0000.0001) %MON thSI_Tic1_min_N              =  -5.9017495411015E+00
(PID.TID 0000.0001) %MON thSI_Tic1_max_S              =   0.0000000000000E+00
(PID.TID 0000.0001) %MON thSI_Tic1_max_N              =  -5.7440255435620E+00
(PID.TID 0000.0001) %MON thSI_Tic2_ave_G              =  -2.7986939108492E+00
(PID.TID 0000.0001) %MON thSI_Tic2_ave_S              =   0.0000000000000E+00
(PID.TID 0000.0001) %MON thSI_Tic2_ave_N              =  -2.7986939108492E+00
(PID.TID 0000.0001) %MON thSI_Tic2_min_S              =   0.0000000000000E+00
(PID.TID 0000.0001) %MON thSI_Tic2_min_N              =  -2.8956675824285E+00
(PID.TID 0000.0001) %MON thSI_Tic2_max_S              =   0.0000000000000E+00
(PID.TID 0000.0001) %MON thSI_Tic2_max_N              =  -2.7125138689299E+00
(PID.TID 0000.0001) // =======================================================
(PID.TID 0000.0001) // End MONITOR Therm.SeaIce statistics
(PID.TID 0000.0001) // =======================================================
 cg2d: Sum(rhs),rhsMax =   6.11180439591408E-10  2.67475501315094E+04
(PID.TID 0000.0001)                    cg2d_init_res =    1.22877590353686E+04
(PID.TID 0000.0001)                       cg2d_iters =    16
(PID.TID 0000.0001)                         cg2d_res =    8.09110228985070E-11
(PID.TID 0000.0001) // =======================================================
(PID.TID 0000.0001) // Begin MONITOR dynamic field statistics
(PID.TID 0000.0001) // =======================================================
(PID.TID 0000.0001) %MON time_tsnumber                =                    19
(PID.TID 0000.0001) %MON time_secondsf                =   8.5500000000000E+03
(PID.TID 0000.0001) %MON dynstat_eta_max              =   4.7626083040373E+03
(PID.TID 0000.0001) %MON dynstat_eta_min              =  -1.0794203900510E+03
(PID.TID 0000.0001) %MON dynstat_eta_mean             =   4.5385765731369E-14
(PID.TID 0000.0001) %MON dynstat_eta_sd               =   5.6251066782207E+02
(PID.TID 0000.0001) %MON dynstat_eta_del2             =   3.7147158037074E+01
(PID.TID 0000.0001) %MON dynstat_uvel_max             =   5.9660946044180E+00
(PID.TID 0000.0001) %MON dynstat_uvel_min             =  -6.3970405558518E+00
(PID.TID 0000.0001) %MON dynstat_uvel_mean            =  -7.6321946204001E-03
(PID.TID 0000.0001) %MON dynstat_uvel_sd              =   8.1535302772204E-01
(PID.TID 0000.0001) %MON dynstat_uvel_del2            =   2.1594957476406E-02
(PID.TID 0000.0001) %MON dynstat_vvel_max             =   4.4159251212246E+00
(PID.TID 0000.0001) %MON dynstat_vvel_min             =  -5.5547341395874E+00
(PID.TID 0000.0001) %MON dynstat_vvel_mean            =   2.7036694056259E-02
(PID.TID 0000.0001) %MON dynstat_vvel_sd              =   8.0413459287209E-01
(PID.TID 0000.0001) %MON dynstat_vvel_del2            =   2.1140768059285E-02
(PID.TID 0000.0001) %MON dynstat_wvel_max             =   2.2462377418606E-01
(PID.TID 0000.0001) %MON dynstat_wvel_min             =  -9.8226144186441E-02
(PID.TID 0000.0001) %MON dynstat_wvel_mean            =  -1.7320090636034E-04
(PID.TID 0000.0001) %MON dynstat_wvel_sd              =   8.6834579952246E-03
(PID.TID 0000.0001) %MON dynstat_wvel_del2            =   1.4342689879342E-03
(PID.TID 0000.0001) %MON dynstat_theta_max            =   4.3828411073978E+02
(PID.TID 0000.0001) %MON dynstat_theta_min            =   2.8500793107988E+02
(PID.TID 0000.0001) %MON dynstat_theta_mean           =   3.3169696784323E+02
(PID.TID 0000.0001) %MON dynstat_theta_sd             =   4.7441058566606E+01
(PID.TID 0000.0001) %MON dynstat_theta_del2           =   2.0415583420745E-02
(PID.TID 0000.0001) %MON dynstat_salt_max             =   4.1142677828374E+00
(PID.TID 0000.0001) %MON dynstat_salt_min             =  -4.3694351337961E-03
(PID.TID 0000.0001) %MON dynstat_salt_mean            =   7.0035757592766E-02
(PID.TID 0000.0001) %MON dynstat_salt_sd              =   2.8426851230661E-01
(PID.TID 0000.0001) %MON dynstat_salt_del2            =   9.0015923747863E-03
(PID.TID 0000.0001) %MON advcfl_uvel_max              =   9.1240927279906E-03
(PID.TID 0000.0001) %MON advcfl_vvel_max              =   7.9128608358492E-03
(PID.TID 0000.0001) %MON advcfl_wvel_max              =   3.6756617594082E-03
(PID.TID 0000.0001) %MON advcfl_W_hf_max              =   1.4300810675077E-02
(PID.TID 0000.0001) %MON pe_b_mean                    =  -1.1408770816352E+00
(PID.TID 0000.0001) %MON ke_max                       =   2.2422632556933E+01
(PID.TID 0000.0001) %MON ke_mean                      =   6.5222970181598E-01
(PID.TID 0000.0001) %MON ke_vol                       =   4.9523908919847E+19
(PID.TID 0000.0001) %MON vort_r_min                   =  -2.3127660357328E-05
(PID.TID 0000.0001) %MON vort_r_max                   =   9.4018868952393E-06
(PID.TID 0000.0001) %MON vort_a_mean                  =   6.7242814765350E-08
(PID.TID 0000.0001) %MON vort_a_sd                    =   8.3975606588402E-05
(PID.TID 0000.0001) %MON vort_p_mean                  =   6.8939462247873E-08
(PID.TID 0000.0001) %MON vort_p_sd                    =   9.1895624345305E-05
(PID.TID 0000.0001) %MON surfExpan_theta_mean         =   1.3382972764583E-02
(PID.TID 0000.0001) %MON surfExpan_salt_mean          =  -4.6712058014835E-04
(PID.TID 0000.0001) %MON surfExpan_Heat_mean          =  -1.4983303583882E+00
(PID.TID 0000.0001) %MON En_Budget_T2PE_mean          =   2.4960532981581E+00
(PID.TID 0000.0001) // =======================================================
(PID.TID 0000.0001) // End MONITOR dynamic field statistics
(PID.TID 0000.0001) // =======================================================
(PID.TID 0000.0001) // =======================================================
(PID.TID 0000.0001) // Begin MONITOR Land statistics
(PID.TID 0000.0001) // =======================================================
(PID.TID 0000.0001) %MON land_time_sec                =   8.5500000000000E+03
(PID.TID 0000.0001) %MON land_SnwH_ave_G              =   1.5322942780158E-01
(PID.TID 0000.0001) %MON land_SnwH_ave_S              =   5.5904642622543E-01
(PID.TID 0000.0001) %MON land_SnwH_ave_T              =   0.0000000000000E+00
(PID.TID 0000.0001) %MON land_SnwH_ave_N              =   1.2390697168035E-01
(PID.TID 0000.0001) %MON land_SnwH_max_S              =   9.9998977742049E-01
(PID.TID 0000.0001) %MON land_SnwH_max_T              =   0.0000000000000E+00
(PID.TID 0000.0001) %MON land_SnwH_max_N              =   9.9999872079946E-01
(PID.TID 0000.0001) %MON land_TotEnerg_G              =  -6.3412526361900E+21
(PID.TID 0000.0001) %MON land_TotEnerg_S              =  -5.0016059659255E+21
(PID.TID 0000.0001) %MON land_TotEnerg_T              =   7.2834861016413E+21
(PID.TID 0000.0001) %MON land_TotEnerg_N              =  -8.6231327719058E+21
(PID.TID 0000.0001) %MON land_Tsrf_ave_G              =  -8.1036598478635E+00
(PID.TID 0000.0001) %MON land_Tsrf_ave_S              =  -7.2971302249574E+00
(PID.TID 0000.0001) %MON land_Tsrf_ave_T              =   1.0949902621945E+01
(PID.TID 0000.0001) %MON land_Tsrf_ave_N              =  -2.1088701804925E+01
(PID.TID 0000.0001) %MON land_Tsrf_min_S              =  -3.3772288694971E+01
(PID.TID 0000.0001) %MON land_Tsrf_min_T              =  -4.3486489513779E+00
(PID.TID 0000.0001) %MON land_Tsrf_min_N              =  -5.2044761023245E+01
(PID.TID 0000.0001) %MON land_Tsrf_max_S              =   2.1159488826410E+01
(PID.TID 0000.0001) %MON land_Tsrf_max_T              =   2.1814491331843E+01
(PID.TID 0000.0001) %MON land_Tsrf_max_N              =   9.3539475337946E+00
(PID.TID 0000.0001) %MON land_Tgr1_ave_G              =  -6.8338160844876E+00
(PID.TID 0000.0001) %MON land_Tgr1_ave_S              =  -6.9462987580487E+00
(PID.TID 0000.0001) %MON land_Tgr1_ave_T              =   1.0949902621945E+01
(PID.TID 0000.0001) %MON land_Tgr1_ave_N              =  -1.8672771732488E+01
(PID.TID 0000.0001) %MON land_Tgr1_min_S              =  -3.9207745282082E+01
(PID.TID 0000.0001) %MON land_Tgr1_min_T              =  -4.3486489513779E+00
(PID.TID 0000.0001) %MON land_Tgr1_min_N              =  -5.4769960339382E+01
(PID.TID 0000.0001) %MON land_Tgr1_max_S              =   2.1159488826410E+01
(PID.TID 0000.0001) %MON land_Tgr1_max_T              =   2.1814491331843E+01
(PID.TID 0000.0001) %MON land_Tgr1_max_N              =   9.3539475337946E+00
(PID.TID 0000.0001) %MON land_Tgr2_ave_G              =   4.2047739162914E+00
(PID.TID 0000.0001) %MON land_Tgr2_ave_S              =  -1.8727821386666E+01
(PID.TID 0000.0001) %MON land_Tgr2_ave_T              =   2.2010541529287E+01
(PID.TID 0000.0001) %MON land_Tgr2_ave_N              =  -2.4619985122643E-01
(PID.TID 0000.0001) %MON land_Tgr2_min_S              =  -6.4754075845951E+01
(PID.TID 0000.0001) %MON land_Tgr2_min_T              =  -9.7041925136899E+00
(PID.TID 0000.0001) %MON land_Tgr2_min_N              =  -4.0198163484468E+01
(PID.TID 0000.0001) %MON land_Tgr2_max_S              =   2.3360375504212E+01
(PID.TID 0000.0001) %MON land_Tgr2_max_T              =   3.1354312874469E+01
(PID.TID 0000.0001) %MON land_Tgr2_max_N              =   2.9824723411133E+01
(PID.TID 0000.0001) %MON land_grdW_ave_G              =   4.8680726200990E-01
(PID.TID 0000.0001) %MON land_grdW_ave_S              =   3.0857266213332E-01
(PID.TID 0000.0001) %MON land_grdW_ave_T              =   5.6430314052180E-01
(PID.TID 0000.0001) %MON land_grdW_ave_N              =   4.9287601165389E-01
(PID.TID 0000.0001) %MON land_grdW_min_S              =   2.6990051757175E-02
(PID.TID 0000.0001) %MON land_grdW_min_T              =   0.0000000000000E+00
(PID.TID 0000.0001) %MON land_grdW_min_N              =   0.0000000000000E+00
(PID.TID 0000.0001) // =======================================================
(PID.TID 0000.0001) // End MONITOR Land statistics
(PID.TID 0000.0001) // =======================================================
(PID.TID 0000.0001) // =======================================================
(PID.TID 0000.0001) // Begin MONITOR Therm.SeaIce statistics
(PID.TID 0000.0001) // =======================================================
(PID.TID 0000.0001) %MON thSI_time_sec                =   8.5500000000000E+03
(PID.TID 0000.0001) %MON thSI_Ice_Area_G              =   1.6818681073753E+11
(PID.TID 0000.0001) %MON thSI_Ice_Area_S              =   0.0000000000000E+00
(PID.TID 0000.0001) %MON thSI_Ice_Area_N              =   1.6818681073753E+11
(PID.TID 0000.0001) %MON thSI_IceH_ave_G              =   1.3709915086817E-01
(PID.TID 0000.0001) %MON thSI_IceH_ave_S              =   0.0000000000000E+00
(PID.TID 0000.0001) %MON thSI_IceH_ave_N              =   1.3709915086817E-01
(PID.TID 0000.0001) %MON thSI_IceH_max_S              =   0.0000000000000E+00
(PID.TID 0000.0001) %MON thSI_IceH_max_N              =   1.4648094323222E-01
(PID.TID 0000.0001) %MON thSI_SnwH_ave_G              =   0.0000000000000E+00
(PID.TID 0000.0001) %MON thSI_SnwH_ave_S              =   0.0000000000000E+00
(PID.TID 0000.0001) %MON thSI_SnwH_ave_N              =   0.0000000000000E+00
(PID.TID 0000.0001) %MON thSI_SnwH_max_S              =   0.0000000000000E+00
(PID.TID 0000.0001) %MON thSI_SnwH_max_N              =   0.0000000000000E+00
(PID.TID 0000.0001) %MON thSI_TotEnerg_G              =  -7.0936830545149E+18
(PID.TID 0000.0001) %MON thSI_Tsrf_ave_G              =  -8.4186610022711E+00
(PID.TID 0000.0001) %MON thSI_Tsrf_ave_S              =   0.0000000000000E+00
(PID.TID 0000.0001) %MON thSI_Tsrf_ave_N              =  -8.4186610022711E+00
(PID.TID 0000.0001) %MON thSI_Tsrf_min_S              =   0.0000000000000E+00
(PID.TID 0000.0001) %MON thSI_Tsrf_min_N              =  -8.5175651315065E+00
(PID.TID 0000.0001) %MON thSI_Tsrf_max_S              =   0.0000000000000E+00
(PID.TID 0000.0001) %MON thSI_Tsrf_max_N              =  -8.2207631609301E+00
(PID.TID 0000.0001) %MON thSI_Tic1_ave_G              =  -5.9648862219354E+00
(PID.TID 0000.0001) %MON thSI_Tic1_ave_S              =   0.0000000000000E+00
(PID.TID 0000.0001) %MON thSI_Tic1_ave_N              =  -5.9648862219354E+00
(PID.TID 0000.0001) %MON thSI_Tic1_min_S              =   0.0000000000000E+00
(PID.TID 0000.0001) %MON thSI_Tic1_min_N              =  -6.0398221987116E+00
(PID.TID 0000.0001) %MON thSI_Tic1_max_S              =   0.0000000000000E+00
(PID.TID 0000.0001) %MON thSI_Tic1_max_N              =  -5.8943092543311E+00
(PID.TID 0000.0001) %MON thSI_Tic2_ave_G              =  -2.8641754606812E+00
(PID.TID 0000.0001) %MON thSI_Tic2_ave_S              =   0.0000000000000E+00
(PID.TID 0000.0001) %MON thSI_Tic2_ave_N              =  -2.8641754606812E+00
(PID.TID 0000.0001) %MON thSI_Tic2_min_S              =   0.0000000000000E+00
(PID.TID 0000.0001) %MON thSI_Tic2_min_N              =  -2.9569345317188E+00
(PID.TID 0000.0001) %MON thSI_Tic2_max_S              =   0.0000000000000E+00
(PID.TID 0000.0001) %MON thSI_Tic2_max_N              =  -2.7808398049269E+00
(PID.TID 0000.0001) // =======================================================
(PID.TID 0000.0001) // End MONITOR Therm.SeaIce statistics
(PID.TID 0000.0001) // =======================================================
 cg2d: Sum(rhs),rhsMax =  -1.09139364212751E-09  2.67622678961190E+04
(PID.TID 0000.0001)                    cg2d_init_res =    1.21678115691866E+04
(PID.TID 0000.0001)                       cg2d_iters =    16
(PID.TID 0000.0001)                         cg2d_res =    7.89859716708362E-11
(PID.TID 0000.0001) // =======================================================
(PID.TID 0000.0001) // Begin MONITOR dynamic field statistics
(PID.TID 0000.0001) // =======================================================
(PID.TID 0000.0001) %MON time_tsnumber                =                    20
(PID.TID 0000.0001) %MON time_secondsf                =   9.0000000000000E+03
(PID.TID 0000.0001) %MON dynstat_eta_max              =   4.6391601724480E+03
(PID.TID 0000.0001) %MON dynstat_eta_min              =  -1.0188012819812E+03
(PID.TID 0000.0001) %MON dynstat_eta_mean             =   3.8557818674437E-14
(PID.TID 0000.0001) %MON dynstat_eta_sd               =   5.6054636773124E+02
(PID.TID 0000.0001) %MON dynstat_eta_del2             =   3.7002730375641E+01
(PID.TID 0000.0001) %MON dynstat_uvel_max             =   5.9618330737749E+00
(PID.TID 0000.0001) %MON dynstat_uvel_min             =  -6.3793712296955E+00
(PID.TID 0000.0001) %MON dynstat_uvel_mean            =  -6.1127819060795E-03
(PID.TID 0000.0001) %MON dynstat_uvel_sd              =   8.2272495245202E-01
(PID.TID 0000.0001) %MON dynstat_uvel_del2            =   2.2111557105532E-02
(PID.TID 0000.0001) %MON dynstat_vvel_max             =   4.4202734520919E+00
(PID.TID 0000.0001) %MON dynstat_vvel_min             =  -5.6172004236930E+00
(PID.TID 0000.0001) %MON dynstat_vvel_mean            =   2.7787901310899E-02
(PID.TID 0000.0001) %MON dynstat_vvel_sd              =   8.0214520288940E-01
(PID.TID 0000.0001) %MON dynstat_vvel_del2            =   2.1521425103669E-02
(PID.TID 0000.0001) %MON dynstat_wvel_max             =   2.5869678252723E-01
(PID.TID 0000.0001) %MON dynstat_wvel_min             =  -9.9574505477009E-02
(PID.TID 0000.0001) %MON dynstat_wvel_mean            =  -2.5189837956013E-05
(PID.TID 0000.0001) %MON dynstat_wvel_sd              =   9.0887784940426E-03
(PID.TID 0000.0001) %MON dynstat_wvel_del2            =   1.4982587936151E-03
(PID.TID 0000.0001) %MON dynstat_theta_max            =   4.3830747752727E+02
(PID.TID 0000.0001) %MON dynstat_theta_min            =   2.8477999174018E+02
(PID.TID 0000.0001) %MON dynstat_theta_mean           =   3.3169514772132E+02
(PID.TID 0000.0001) %MON dynstat_theta_sd             =   4.7443031046321E+01
(PID.TID 0000.0001) %MON dynstat_theta_del2           =   2.1255650466610E-02
(PID.TID 0000.0001) %MON dynstat_salt_max             =   4.1923185194326E+00
(PID.TID 0000.0001) %MON dynstat_salt_min             =  -3.1104760040644E-03
(PID.TID 0000.0001) %MON dynstat_salt_mean            =   7.3485514869349E-02
(PID.TID 0000.0001) %MON dynstat_salt_sd              =   2.9693941573926E-01
(PID.TID 0000.0001) %MON dynstat_salt_del2            =   9.3355133362974E-03
(PID.TID 0000.0001) %MON advcfl_uvel_max              =   9.0988909852655E-03
(PID.TID 0000.0001) %MON advcfl_vvel_max              =   7.9991124260472E-03
(PID.TID 0000.0001) %MON advcfl_wvel_max              =   4.2332200777183E-03
(PID.TID 0000.0001) %MON advcfl_W_hf_max              =   1.5532566293525E-02
(PID.TID 0000.0001) %MON pe_b_mean                    =  -1.1542908848580E+00
(PID.TID 0000.0001) %MON ke_max                       =   2.0965622418219E+01
(PID.TID 0000.0001) %MON ke_mean                      =   6.5665157981597E-01
(PID.TID 0000.0001) %MON ke_vol                       =   4.9523908919847E+19
(PID.TID 0000.0001) %MON vort_r_min                   =  -2.1846205348843E-05
(PID.TID 0000.0001) %MON vort_r_max                   =   7.0985811269055E-06
(PID.TID 0000.0001) %MON vort_a_mean                  =   6.7242814765298E-08
(PID.TID 0000.0001) %MON vort_a_sd                    =   8.3978317171671E-05
(PID.TID 0000.0001) %MON vort_p_mean                  =   6.8939463231456E-08
(PID.TID 0000.0001) %MON vort_p_sd                    =   9.1885696894457E-05
(PID.TID 0000.0001) %MON surfExpan_theta_mean         =  -1.0321256059860E-03
(PID.TID 0000.0001) %MON surfExpan_salt_mean          =  -5.3492467778803E-04
(PID.TID 0000.0001) %MON surfExpan_Heat_mean          =  -2.9234542721190E-01
(PID.TID 0000.0001) %MON En_Budget_T2PE_mean          =   2.3001971293178E-01
(PID.TID 0000.0001) // =======================================================
(PID.TID 0000.0001) // End MONITOR dynamic field statistics
(PID.TID 0000.0001) // =======================================================
(PID.TID 0000.0001) // =======================================================
(PID.TID 0000.0001) // Begin MONITOR Land statistics
(PID.TID 0000.0001) // =======================================================
(PID.TID 0000.0001) %MON land_time_sec                =   9.0000000000000E+03
(PID.TID 0000.0001) %MON land_SnwH_ave_G              =   1.5322846168443E-01
(PID.TID 0000.0001) %MON land_SnwH_ave_S              =   5.5904555935395E-01
(PID.TID 0000.0001) %MON land_SnwH_ave_T              =   0.0000000000000E+00
(PID.TID 0000.0001) %MON land_SnwH_ave_N              =   1.2390532822388E-01
(PID.TID 0000.0001) %MON land_SnwH_max_S              =   9.9998921361616E-01
(PID.TID 0000.0001) %MON land_SnwH_max_T              =   0.0000000000000E+00
(PID.TID 0000.0001) %MON land_SnwH_max_N              =   9.9999865726822E-01
(PID.TID 0000.0001) %MON land_TotEnerg_G              =  -6.3432928968288E+21
(PID.TID 0000.0001) %MON land_TotEnerg_S              =  -5.0017541580035E+21
(PID.TID 0000.0001) %MON land_TotEnerg_T              =   7.2822638863734E+21
(PID.TID 0000.0001) %MON land_TotEnerg_N              =  -8.6238026251987E+21
(PID.TID 0000.0001) %MON land_Tsrf_ave_G              =  -8.1674672556865E+00
(PID.TID 0000.0001) %MON land_Tsrf_ave_S              =  -7.3214554902457E+00
(PID.TID 0000.0001) %MON land_Tsrf_ave_T              =   1.0810266558966E+01
(PID.TID 0000.0001) %MON land_Tsrf_ave_N              =  -2.1114680833387E+01
(PID.TID 0000.0001) %MON land_Tsrf_min_S              =  -3.3766414439204E+01
(PID.TID 0000.0001) %MON land_Tsrf_min_T              =  -4.2117004835610E+00
(PID.TID 0000.0001) %MON land_Tsrf_min_N              =  -5.2048652410940E+01
(PID.TID 0000.0001) %MON land_Tsrf_max_S              =   2.0989424069900E+01
(PID.TID 0000.0001) %MON land_Tsrf_max_T              =   2.1555923163291E+01
(PID.TID 0000.0001) %MON land_Tsrf_max_N              =   9.1862384201965E+00
(PID.TID 0000.0001) %MON land_Tgr1_ave_G              =  -6.9050168393469E+00
(PID.TID 0000.0001) %MON land_Tgr1_ave_S              =  -6.9955536604465E+00
(PID.TID 0000.0001) %MON land_Tgr1_ave_T              =   1.0810266558966E+01
(PID.TID 0000.0001) %MON land_Tgr1_ave_N              =  -1.8705392502054E+01
(PID.TID 0000.0001) %MON land_Tgr1_min_S              =  -3.9218935539858E+01
(PID.TID 0000.0001) %MON land_Tgr1_min_T              =  -4.2117004835610E+00
(PID.TID 0000.0001) %MON land_Tgr1_min_N              =  -5.4757372553262E+01
(PID.TID 0000.0001) %MON land_Tgr1_max_S              =   2.0989424069900E+01
(PID.TID 0000.0001) %MON land_Tgr1_max_T              =   2.1555923163291E+01
(PID.TID 0000.0001) %MON land_Tgr1_max_N              =   9.1862384201965E+00
(PID.TID 0000.0001) %MON land_Tgr2_ave_G              =   4.2046035369150E+00
(PID.TID 0000.0001) %MON land_Tgr2_ave_S              =  -1.8727624897630E+01
(PID.TID 0000.0001) %MON land_Tgr2_ave_T              =   2.2010359677220E+01
(PID.TID 0000.0001) %MON land_Tgr2_ave_N              =  -2.4648157935510E-01
(PID.TID 0000.0001) %MON land_Tgr2_min_S              =  -6.4753645339246E+01
(PID.TID 0000.0001) %MON land_Tgr2_min_T              =  -9.7041231148482E+00
(PID.TID 0000.0001) %MON land_Tgr2_min_N              =  -4.0198400191414E+01
(PID.TID 0000.0001) %MON land_Tgr2_max_S              =   2.3360323642636E+01
(PID.TID 0000.0001) %MON land_Tgr2_max_T              =   3.1353898428121E+01
(PID.TID 0000.0001) %MON land_Tgr2_max_N              =   2.9824223876070E+01
(PID.TID 0000.0001) %MON land_grdW_ave_G              =   4.8679869376460E-01
(PID.TID 0000.0001) %MON land_grdW_ave_S              =   3.0856443024935E-01
(PID.TID 0000.0001) %MON land_grdW_ave_T              =   5.6428203440809E-01
(PID.TID 0000.0001) %MON land_grdW_ave_N              =   4.9287570671481E-01
(PID.TID 0000.0001) %MON land_grdW_min_S              =   2.7075302486638E-02
(PID.TID 0000.0001) %MON land_grdW_min_T              =   0.0000000000000E+00
(PID.TID 0000.0001) %MON land_grdW_min_N              =   0.0000000000000E+00
(PID.TID 0000.0001) // =======================================================
(PID.TID 0000.0001) // End MONITOR Land statistics
(PID.TID 0000.0001) // =======================================================
(PID.TID 0000.0001) // =======================================================
(PID.TID 0000.0001) // Begin MONITOR Therm.SeaIce statistics
(PID.TID 0000.0001) // =======================================================
(PID.TID 0000.0001) %MON thSI_time_sec                =   9.0000000000000E+03
(PID.TID 0000.0001) %MON thSI_Ice_Area_G              =   1.6911572529870E+11
(PID.TID 0000.0001) %MON thSI_Ice_Area_S              =   0.0000000000000E+00
(PID.TID 0000.0001) %MON thSI_Ice_Area_N              =   1.6911572529870E+11
(PID.TID 0000.0001) %MON thSI_IceH_ave_G              =   1.3746874306437E-01
(PID.TID 0000.0001) %MON thSI_IceH_ave_S              =   0.0000000000000E+00
(PID.TID 0000.0001) %MON thSI_IceH_ave_N              =   1.3746874306437E-01
(PID.TID 0000.0001) %MON thSI_IceH_max_S              =   0.0000000000000E+00
(PID.TID 0000.0001) %MON thSI_IceH_max_N              =   1.4684055387926E-01
(PID.TID 0000.0001) %MON thSI_SnwH_ave_G              =   0.0000000000000E+00
(PID.TID 0000.0001) %MON thSI_SnwH_ave_S              =   0.0000000000000E+00
(PID.TID 0000.0001) %MON thSI_SnwH_ave_N              =   0.0000000000000E+00
(PID.TID 0000.0001) %MON thSI_SnwH_max_S              =   0.0000000000000E+00
(PID.TID 0000.0001) %MON thSI_SnwH_max_N              =   0.0000000000000E+00
(PID.TID 0000.0001) %MON thSI_TotEnerg_G              =  -7.1570835783695E+18
(PID.TID 0000.0001) %MON thSI_Tsrf_ave_G              =  -8.5313753634594E+00
(PID.TID 0000.0001) %MON thSI_Tsrf_ave_S              =   0.0000000000000E+00
(PID.TID 0000.0001) %MON thSI_Tsrf_ave_N              =  -8.5313753634594E+00
(PID.TID 0000.0001) %MON thSI_Tsrf_min_S              =   0.0000000000000E+00
(PID.TID 0000.0001) %MON thSI_Tsrf_min_N              =  -8.6314948570073E+00
(PID.TID 0000.0001) %MON thSI_Tsrf_max_S              =   0.0000000000000E+00
(PID.TID 0000.0001) %MON thSI_Tsrf_max_N              =  -8.3276477649838E+00
(PID.TID 0000.0001) %MON thSI_Tic1_ave_G              =  -6.1002675822743E+00
(PID.TID 0000.0001) %MON thSI_Tic1_ave_S              =   0.0000000000000E+00
(PID.TID 0000.0001) %MON thSI_Tic1_ave_N              =  -6.1002675822743E+00
(PID.TID 0000.0001) %MON thSI_Tic1_min_S              =   0.0000000000000E+00
(PID.TID 0000.0001) %MON thSI_Tic1_min_N              =  -6.1671702020918E+00
(PID.TID 0000.0001) %MON thSI_Tic1_max_S              =   0.0000000000000E+00
(PID.TID 0000.0001) %MON thSI_Tic1_max_N              =  -6.0358089319058E+00
(PID.TID 0000.0001) %MON thSI_Tic2_ave_G              =  -2.9242642747632E+00
(PID.TID 0000.0001) %MON thSI_Tic2_ave_S              =   0.0000000000000E+00
(PID.TID 0000.0001) %MON thSI_Tic2_ave_N              =  -2.9242642747632E+00
(PID.TID 0000.0001) %MON thSI_Tic2_min_S              =   0.0000000000000E+00
(PID.TID 0000.0001) %MON thSI_Tic2_min_N              =  -3.0125753810911E+00
(PID.TID 0000.0001) %MON thSI_Tic2_max_S              =   0.0000000000000E+00
(PID.TID 0000.0001) %MON thSI_Tic2_max_N              =  -2.8440794892573E+00
(PID.TID 0000.0001) // =======================================================
(PID.TID 0000.0001) // End MONITOR Therm.SeaIce statistics
(PID.TID 0000.0001) // =======================================================
 cg2d: Sum(rhs),rhsMax =   7.85803422331810E-10  2.64528536215065E+04
(PID.TID 0000.0001)                    cg2d_init_res =    1.20562670837646E+04
(PID.TID 0000.0001)                       cg2d_iters =    16
(PID.TID 0000.0001)                         cg2d_res =    7.45508022795155E-11
(PID.TID 0000.0001) // =======================================================
(PID.TID 0000.0001) // Begin MONITOR dynamic field statistics
(PID.TID 0000.0001) // =======================================================
(PID.TID 0000.0001) %MON time_tsnumber                =                    21
(PID.TID 0000.0001) %MON time_secondsf                =   9.4500000000000E+03
(PID.TID 0000.0001) %MON dynstat_eta_max              =   4.5418584231698E+03
(PID.TID 0000.0001) %MON dynstat_eta_min              =  -9.7615865512175E+02
(PID.TID 0000.0001) %MON dynstat_eta_mean             =  -1.6065757781016E-14
(PID.TID 0000.0001) %MON dynstat_eta_sd               =   5.5643386736991E+02
(PID.TID 0000.0001) %MON dynstat_eta_del2             =   3.6889005119900E+01
(PID.TID 0000.0001) %MON dynstat_uvel_max             =   5.9428563127671E+00
(PID.TID 0000.0001) %MON dynstat_uvel_min             =  -6.2786463604561E+00
(PID.TID 0000.0001) %MON dynstat_uvel_mean            =  -4.0676298028730E-03
(PID.TID 0000.0001) %MON dynstat_uvel_sd              =   8.2858148016412E-01
(PID.TID 0000.0001) %MON dynstat_uvel_del2            =   2.2620475614283E-02
(PID.TID 0000.0001) %MON dynstat_vvel_max             =   4.5875423077383E+00
(PID.TID 0000.0001) %MON dynstat_vvel_min             =  -5.6548920997102E+00
(PID.TID 0000.0001) %MON dynstat_vvel_mean            =   2.8279852247890E-02
(PID.TID 0000.0001) %MON dynstat_vvel_sd              =   8.0217051557987E-01
(PID.TID 0000.0001) %MON dynstat_vvel_del2            =   2.1838979496641E-02
(PID.TID 0000.0001) %MON dynstat_wvel_max             =   2.8150808143368E-01
(PID.TID 0000.0001) %MON dynstat_wvel_min             =  -1.1345657100105E-01
(PID.TID 0000.0001) %MON dynstat_wvel_mean            =   1.1147493961000E-04
(PID.TID 0000.0001) %MON dynstat_wvel_sd              =   9.5217942893431E-03
(PID.TID 0000.0001) %MON dynstat_wvel_del2            =   1.5645682701703E-03
(PID.TID 0000.0001) %MON dynstat_theta_max            =   4.3830327970212E+02
(PID.TID 0000.0001) %MON dynstat_theta_min            =   2.8455348840486E+02
(PID.TID 0000.0001) %MON dynstat_theta_mean           =   3.3169328627717E+02
(PID.TID 0000.0001) %MON dynstat_theta_sd             =   4.7445019556375E+01
(PID.TID 0000.0001) %MON dynstat_theta_del2           =   2.2106394642460E-02
(PID.TID 0000.0001) %MON dynstat_salt_max             =   4.2647357083685E+00
(PID.TID 0000.0001) %MON dynstat_salt_min             =  -4.7217050966002E-03
(PID.TID 0000.0001) %MON dynstat_salt_mean            =   7.6920801962602E-02
(PID.TID 0000.0001) %MON dynstat_salt_sd              =   3.0947682534636E-01
(PID.TID 0000.0001) %MON dynstat_salt_del2            =   9.6641617240861E-03
(PID.TID 0000.0001) %MON advcfl_uvel_max              =   8.9552272021566E-03
(PID.TID 0000.0001) %MON advcfl_vvel_max              =   8.0527868423481E-03
(PID.TID 0000.0001) %MON advcfl_wvel_max              =   4.6064958780057E-03
(PID.TID 0000.0001) %MON advcfl_W_hf_max              =   1.6238433560166E-02
(PID.TID 0000.0001) %MON pe_b_mean                    =  -1.1678000798634E+00
(PID.TID 0000.0001) %MON ke_max                       =   1.9599350957326E+01
(PID.TID 0000.0001) %MON ke_mean                      =   6.6148010858213E-01
(PID.TID 0000.0001) %MON ke_vol                       =   4.9523908919847E+19
(PID.TID 0000.0001) %MON vort_r_min                   =  -2.0732098674615E-05
(PID.TID 0000.0001) %MON vort_r_max                   =   7.2525984496509E-06
(PID.TID 0000.0001) %MON vort_a_mean                  =   6.7242814765378E-08
(PID.TID 0000.0001) %MON vort_a_sd                    =   8.3981019228010E-05
(PID.TID 0000.0001) %MON vort_p_mean                  =   6.8939464089285E-08
(PID.TID 0000.0001) %MON vort_p_sd                    =   9.1873066509569E-05
(PID.TID 0000.0001) %MON surfExpan_theta_mean         =  -1.4270567877455E-02
(PID.TID 0000.0001) %MON surfExpan_salt_mean          =  -6.0960805886930E-04
(PID.TID 0000.0001) %MON surfExpan_Heat_mean          =   8.1904745854658E-01
(PID.TID 0000.0001) %MON En_Budget_T2PE_mean          =  -1.8560403384277E+00
(PID.TID 0000.0001) // =======================================================
(PID.TID 0000.0001) // End MONITOR dynamic field statistics
(PID.TID 0000.0001) // =======================================================
(PID.TID 0000.0001) // =======================================================
(PID.TID 0000.0001) // Begin MONITOR Land statistics
(PID.TID 0000.0001) // =======================================================
(PID.TID 0000.0001) %MON land_time_sec                =   9.4500000000000E+03
(PID.TID 0000.0001) %MON land_SnwH_ave_G              =   1.5322749771802E-01
(PID.TID 0000.0001) %MON land_SnwH_ave_S              =   5.5904469078081E-01
(PID.TID 0000.0001) %MON land_SnwH_ave_T              =   0.0000000000000E+00
(PID.TID 0000.0001) %MON land_SnwH_ave_N              =   1.2390368960405E-01
(PID.TID 0000.0001) %MON land_SnwH_max_S              =   9.9998865156778E-01
(PID.TID 0000.0001) %MON land_SnwH_max_T              =   0.0000000000000E+00
(PID.TID 0000.0001) %MON land_SnwH_max_N              =   9.9999859378447E-01
(PID.TID 0000.0001) %MON land_TotEnerg_G              =  -6.3451904435230E+21
(PID.TID 0000.0001) %MON land_TotEnerg_S              =  -5.0018826368311E+21
(PID.TID 0000.0001) %MON land_TotEnerg_T              =   7.2811503621346E+21
(PID.TID 0000.0001) %MON land_TotEnerg_N              =  -8.6244581688265E+21
(PID.TID 0000.0001) %MON land_Tsrf_ave_G              =  -8.2244609108506E+00
(PID.TID 0000.0001) %MON land_Tsrf_ave_S              =  -7.3347693470360E+00
(PID.TID 0000.0001) %MON land_Tsrf_ave_T              =   1.0683427692003E+01
(PID.TID 0000.0001) %MON land_Tsrf_ave_N              =  -2.1139203370671E+01
(PID.TID 0000.0001) %MON land_Tsrf_min_S              =  -3.3765912271339E+01
(PID.TID 0000.0001) %MON land_Tsrf_min_T              =  -4.0788535311090E+00
(PID.TID 0000.0001) %MON land_Tsrf_min_N              =  -5.2053366936029E+01
(PID.TID 0000.0001) %MON land_Tsrf_max_S              =   2.0838606068260E+01
(PID.TID 0000.0001) %MON land_Tsrf_max_T              =   2.1322867788776E+01
(PID.TID 0000.0001) %MON land_Tsrf_max_N              =   9.0276812838461E+00
(PID.TID 0000.0001) %MON land_Tgr1_ave_G              =  -6.9701309897299E+00
(PID.TID 0000.0001) %MON land_Tgr1_ave_S              =  -7.0391178243435E+00
(PID.TID 0000.0001) %MON land_Tgr1_ave_T              =   1.0683427692003E+01
(PID.TID 0000.0001) %MON land_Tgr1_ave_N              =  -1.8736279386308E+01
(PID.TID 0000.0001) %MON land_Tgr1_min_S              =  -3.9230100474407E+01
(PID.TID 0000.0001) %MON land_Tgr1_min_T              =  -4.0788535311090E+00
(PID.TID 0000.0001) %MON land_Tgr1_min_N              =  -5.4744810149635E+01
(PID.TID 0000.0001) %MON land_Tgr1_max_S              =   2.0838606068260E+01
(PID.TID 0000.0001) %MON land_Tgr1_max_T              =   2.1322867788776E+01
(PID.TID 0000.0001) %MON land_Tgr1_max_N              =   9.0276812838461E+00
(PID.TID 0000.0001) %MON land_Tgr2_ave_G              =   4.2044321529672E+00
(PID.TID 0000.0001) %MON land_Tgr2_ave_S              =  -1.8727429101250E+01
(PID.TID 0000.0001) %MON land_Tgr2_ave_T              =   2.2010175928316E+01
(PID.TID 0000.0001) %MON land_Tgr2_ave_N              =  -2.4676381741008E-01
(PID.TID 0000.0001) %MON land_Tgr2_min_S              =  -6.4753215042683E+01
(PID.TID 0000.0001) %MON land_Tgr2_min_T              =  -9.7040520385498E+00
(PID.TID 0000.0001) %MON land_Tgr2_min_N              =  -4.0198636660571E+01
(PID.TID 0000.0001) %MON land_Tgr2_max_S              =   2.3360268865585E+01
(PID.TID 0000.0001) %MON land_Tgr2_max_T              =   3.1353480381439E+01
(PID.TID 0000.0001) %MON land_Tgr2_max_N              =   2.9823718494215E+01
(PID.TID 0000.0001) %MON land_grdW_ave_G              =   4.8679031626656E-01
(PID.TID 0000.0001) %MON land_grdW_ave_S              =   3.0855631577499E-01
(PID.TID 0000.0001) %MON land_grdW_ave_T              =   5.6426143597646E-01
(PID.TID 0000.0001) %MON land_grdW_ave_N              =   4.9287540467352E-01
(PID.TID 0000.0001) %MON land_grdW_min_S              =   2.7161198472829E-02
(PID.TID 0000.0001) %MON land_grdW_min_T              =   0.0000000000000E+00
(PID.TID 0000.0001) %MON land_grdW_min_N              =   0.0000000000000E+00
(PID.TID 0000.0001) // =======================================================
(PID.TID 0000.0001) // End MONITOR Land statistics
(PID.TID 0000.0001) // =======================================================
(PID.TID 0000.0001) // =======================================================
(PID.TID 0000.0001) // Begin MONITOR Therm.SeaIce statistics
(PID.TID 0000.0001) // =======================================================
(PID.TID 0000.0001) %MON thSI_time_sec                =   9.4500000000000E+03
(PID.TID 0000.0001) %MON thSI_Ice_Area_G              =   1.7003939987380E+11
(PID.TID 0000.0001) %MON thSI_Ice_Area_S              =   0.0000000000000E+00
(PID.TID 0000.0001) %MON thSI_Ice_Area_N              =   1.7003939987380E+11
(PID.TID 0000.0001) %MON thSI_IceH_ave_G              =   1.3784320971664E-01
(PID.TID 0000.0001) %MON thSI_IceH_ave_S              =   0.0000000000000E+00
(PID.TID 0000.0001) %MON thSI_IceH_ave_N              =   1.3784320971664E-01
(PID.TID 0000.0001) %MON thSI_IceH_max_S              =   0.0000000000000E+00
(PID.TID 0000.0001) %MON thSI_IceH_max_N              =   1.4720474388120E-01
(PID.TID 0000.0001) %MON thSI_SnwH_ave_G              =   0.0000000000000E+00
(PID.TID 0000.0001) %MON thSI_SnwH_ave_S              =   0.0000000000000E+00
(PID.TID 0000.0001) %MON thSI_SnwH_ave_N              =   0.0000000000000E+00
(PID.TID 0000.0001) %MON thSI_SnwH_max_S              =   0.0000000000000E+00
(PID.TID 0000.0001) %MON thSI_SnwH_max_N              =   0.0000000000000E+00
(PID.TID 0000.0001) %MON thSI_TotEnerg_G              =  -7.2204202846859E+18
(PID.TID 0000.0001) %MON thSI_Tsrf_ave_G              =  -8.6359584937745E+00
(PID.TID 0000.0001) %MON thSI_Tsrf_ave_S              =   0.0000000000000E+00
(PID.TID 0000.0001) %MON thSI_Tsrf_ave_N              =  -8.6359584937745E+00
(PID.TID 0000.0001) %MON thSI_Tsrf_min_S              =   0.0000000000000E+00
(PID.TID 0000.0001) %MON thSI_Tsrf_min_N              =  -8.7407520266971E+00
(PID.TID 0000.0001) %MON thSI_Tsrf_max_S              =   0.0000000000000E+00
(PID.TID 0000.0001) %MON thSI_Tsrf_max_N              =  -8.4248904672255E+00
(PID.TID 0000.0001) %MON thSI_Tic1_ave_G              =  -6.2263006401492E+00
(PID.TID 0000.0001) %MON thSI_Tic1_ave_S              =   0.0000000000000E+00
(PID.TID 0000.0001) %MON thSI_Tic1_ave_N              =  -6.2263006401492E+00
(PID.TID 0000.0001) %MON thSI_Tic1_min_S              =   0.0000000000000E+00
(PID.TID 0000.0001) %MON thSI_Tic1_min_N              =  -6.2844148188462E+00
(PID.TID 0000.0001) %MON thSI_Tic1_max_S              =   0.0000000000000E+00
(PID.TID 0000.0001) %MON thSI_Tic1_max_N              =  -6.1687299856470E+00
(PID.TID 0000.0001) %MON thSI_Tic2_ave_G              =  -2.9795526622456E+00
(PID.TID 0000.0001) %MON thSI_Tic2_ave_S              =   0.0000000000000E+00
(PID.TID 0000.0001) %MON thSI_Tic2_ave_N              =  -2.9795526622456E+00
(PID.TID 0000.0001) %MON thSI_Tic2_min_S              =   0.0000000000000E+00
(PID.TID 0000.0001) %MON thSI_Tic2_min_N              =  -3.0632564220678E+00
(PID.TID 0000.0001) %MON thSI_Tic2_max_S              =   0.0000000000000E+00
(PID.TID 0000.0001) %MON thSI_Tic2_max_N              =  -2.9027546850246E+00
(PID.TID 0000.0001) // =======================================================
(PID.TID 0000.0001) // End MONITOR Therm.SeaIce statistics
(PID.TID 0000.0001) // =======================================================
 cg2d: Sum(rhs),rhsMax =   7.27595761418343E-10  2.58778172895662E+04
(PID.TID 0000.0001)                    cg2d_init_res =    1.19405727900938E+04
(PID.TID 0000.0001)                       cg2d_iters =    16
(PID.TID 0000.0001)                         cg2d_res =    7.08949300884752E-11
(PID.TID 0000.0001) // =======================================================
(PID.TID 0000.0001) // Begin MONITOR dynamic field statistics
(PID.TID 0000.0001) // =======================================================
(PID.TID 0000.0001) %MON time_tsnumber                =                    22
(PID.TID 0000.0001) %MON time_secondsf                =   9.9000000000000E+03
(PID.TID 0000.0001) %MON dynstat_eta_max              =   4.3945829965779E+03
(PID.TID 0000.0001) %MON dynstat_eta_min              =  -9.3391139200296E+02
(PID.TID 0000.0001) %MON dynstat_eta_mean             =  -1.6065757781016E-15
(PID.TID 0000.0001) %MON dynstat_eta_sd               =   5.5044080722133E+02
(PID.TID 0000.0001) %MON dynstat_eta_del2             =   3.6787430335116E+01
(PID.TID 0000.0001) %MON dynstat_uvel_max             =   5.9081759151806E+00
(PID.TID 0000.0001) %MON dynstat_uvel_min             =  -6.1127695743960E+00
(PID.TID 0000.0001) %MON dynstat_uvel_mean            =  -1.4571266771087E-03
(PID.TID 0000.0001) %MON dynstat_uvel_sd              =   8.3248137145181E-01
(PID.TID 0000.0001) %MON dynstat_uvel_del2            =   2.3110519241177E-02
(PID.TID 0000.0001) %MON dynstat_vvel_max             =   4.7488680355155E+00
(PID.TID 0000.0001) %MON dynstat_vvel_min             =  -5.8825404676204E+00
(PID.TID 0000.0001) %MON dynstat_vvel_mean            =   2.8501476329744E-02
(PID.TID 0000.0001) %MON dynstat_vvel_sd              =   8.0377800457503E-01
(PID.TID 0000.0001) %MON dynstat_vvel_del2            =   2.2189876568560E-02
(PID.TID 0000.0001) %MON dynstat_wvel_max             =   2.9226125341409E-01
(PID.TID 0000.0001) %MON dynstat_wvel_min             =  -1.2486544051659E-01
(PID.TID 0000.0001) %MON dynstat_wvel_mean            =   2.3380783989247E-04
(PID.TID 0000.0001) %MON dynstat_wvel_sd              =   9.9135045579290E-03
(PID.TID 0000.0001) %MON dynstat_wvel_del2            =   1.6288069683268E-03
(PID.TID 0000.0001) %MON dynstat_theta_max            =   4.3827192117433E+02
(PID.TID 0000.0001) %MON dynstat_theta_min            =   2.8432833849302E+02
(PID.TID 0000.0001) %MON dynstat_theta_mean           =   3.3169138346854E+02
(PID.TID 0000.0001) %MON dynstat_theta_sd             =   4.7447021763139E+01
(PID.TID 0000.0001) %MON dynstat_theta_del2           =   2.2953997456632E-02
(PID.TID 0000.0001) %MON dynstat_salt_max             =   4.3321501208048E+00
(PID.TID 0000.0001) %MON dynstat_salt_min             =  -6.4004870640470E-03
(PID.TID 0000.0001) %MON dynstat_salt_mean            =   8.0342329106524E-02
(PID.TID 0000.0001) %MON dynstat_salt_sd              =   3.2188565051121E-01
(PID.TID 0000.0001) %MON dynstat_salt_del2            =   9.9901798320129E-03
(PID.TID 0000.0001) %MON advcfl_uvel_max              =   8.7186373034027E-03
(PID.TID 0000.0001) %MON advcfl_vvel_max              =   8.3852532461901E-03
(PID.TID 0000.0001) %MON advcfl_wvel_max              =   4.7824568740487E-03
(PID.TID 0000.0001) %MON advcfl_W_hf_max              =   1.6401798044715E-02
(PID.TID 0000.0001) %MON pe_b_mean                    =  -1.1807269529893E+00
(PID.TID 0000.0001) %MON ke_max                       =   1.8439434931597E+01
(PID.TID 0000.0001) %MON ke_mean                      =   6.6598038080099E-01
(PID.TID 0000.0001) %MON ke_vol                       =   4.9523908919847E+19
(PID.TID 0000.0001) %MON vort_r_min                   =  -2.1804619713269E-05
(PID.TID 0000.0001) %MON vort_r_max                   =   7.7292047528435E-06
(PID.TID 0000.0001) %MON vort_a_mean                  =   6.7242814765298E-08
(PID.TID 0000.0001) %MON vort_a_sd                    =   8.3983701445694E-05
(PID.TID 0000.0001) %MON vort_p_mean                  =   6.8939464880553E-08
(PID.TID 0000.0001) %MON vort_p_sd                    =   9.1858146277667E-05
(PID.TID 0000.0001) %MON surfExpan_theta_mean         =  -2.6051911861122E-02
(PID.TID 0000.0001) %MON surfExpan_salt_mean          =  -6.9089348535652E-04
(PID.TID 0000.0001) %MON surfExpan_Heat_mean          =   1.8113242171514E+00
(PID.TID 0000.0001) %MON En_Budget_T2PE_mean          =  -3.7168079582675E+00
(PID.TID 0000.0001) // =======================================================
(PID.TID 0000.0001) // End MONITOR dynamic field statistics
(PID.TID 0000.0001) // =======================================================
(PID.TID 0000.0001) // =======================================================
(PID.TID 0000.0001) // Begin MONITOR Land statistics
(PID.TID 0000.0001) // =======================================================
(PID.TID 0000.0001) %MON land_time_sec                =   9.9000000000000E+03
(PID.TID 0000.0001) %MON land_SnwH_ave_G              =   1.5322653563113E-01
(PID.TID 0000.0001) %MON land_SnwH_ave_S              =   5.5904381946987E-01
(PID.TID 0000.0001) %MON land_SnwH_ave_T              =   0.0000000000000E+00
(PID.TID 0000.0001) %MON land_SnwH_ave_N              =   1.2390205561667E-01
(PID.TID 0000.0001) %MON land_SnwH_max_S              =   9.9998809112998E-01
(PID.TID 0000.0001) %MON land_SnwH_max_T              =   0.0000000000000E+00
(PID.TID 0000.0001) %MON land_SnwH_max_N              =   9.9999853032457E-01
(PID.TID 0000.0001) %MON land_TotEnerg_G              =  -6.3469602617276E+21
(PID.TID 0000.0001) %MON land_TotEnerg_S              =  -5.0019935960883E+21
(PID.TID 0000.0001) %MON land_TotEnerg_T              =   7.2801333687344E+21
(PID.TID 0000.0001) %MON land_TotEnerg_N              =  -8.6251000343737E+21
(PID.TID 0000.0001) %MON land_Tsrf_ave_G              =  -8.2758038884996E+00
(PID.TID 0000.0001) %MON land_Tsrf_ave_S              =  -7.3409995799686E+00
(PID.TID 0000.0001) %MON land_Tsrf_ave_T              =   1.0567940308516E+01
(PID.TID 0000.0001) %MON land_Tsrf_ave_N              =  -2.1162346900066E+01
(PID.TID 0000.0001) %MON land_Tsrf_min_S              =  -3.3765234896704E+01
(PID.TID 0000.0001) %MON land_Tsrf_min_T              =  -3.9499835253752E+00
(PID.TID 0000.0001) %MON land_Tsrf_min_N              =  -5.2056115369133E+01
(PID.TID 0000.0001) %MON land_Tsrf_max_S              =   2.0705127938761E+01
(PID.TID 0000.0001) %MON land_Tsrf_max_T              =   2.1113044041303E+01
(PID.TID 0000.0001) %MON land_Tsrf_max_N              =   8.8779811588045E+00
(PID.TID 0000.0001) %MON land_Tgr1_ave_G              =  -7.0298366300314E+00
(PID.TID 0000.0001) %MON land_Tgr1_ave_S              =  -7.0776191632153E+00
(PID.TID 0000.0001) %MON land_Tgr1_ave_T              =   1.0567940308516E+01
(PID.TID 0000.0001) %MON land_Tgr1_ave_N              =  -1.8765614165207E+01
(PID.TID 0000.0001) %MON land_Tgr1_min_S              =  -3.9241228055368E+01
(PID.TID 0000.0001) %MON land_Tgr1_min_T              =  -3.9499835253752E+00
(PID.TID 0000.0001) %MON land_Tgr1_min_N              =  -5.4732271172393E+01
(PID.TID 0000.0001) %MON land_Tgr1_max_S              =   2.0705127938761E+01
(PID.TID 0000.0001) %MON land_Tgr1_max_T              =   2.1113044041303E+01
(PID.TID 0000.0001) %MON land_Tgr1_max_N              =   8.8779811588045E+00
(PID.TID 0000.0001) %MON land_Tgr2_ave_G              =   4.2042598553782E+00
(PID.TID 0000.0001) %MON land_Tgr2_ave_S              =  -1.8727233917452E+01
(PID.TID 0000.0001) %MON land_Tgr2_ave_T              =   2.2009990463471E+01
(PID.TID 0000.0001) %MON land_Tgr2_ave_N              =  -2.4704653101581E-01
(PID.TID 0000.0001) %MON land_Tgr2_min_S              =  -6.4752784955910E+01
(PID.TID 0000.0001) %MON land_Tgr2_min_T              =  -9.7039793350800E+00
(PID.TID 0000.0001) %MON land_Tgr2_min_N              =  -4.0198872892460E+01
(PID.TID 0000.0001) %MON land_Tgr2_max_S              =   2.3360211466311E+01
(PID.TID 0000.0001) %MON land_Tgr2_max_T              =   3.1353058962330E+01
(PID.TID 0000.0001) %MON land_Tgr2_max_N              =   2.9823207481566E+01
(PID.TID 0000.0001) %MON land_grdW_ave_G              =   4.8678210769980E-01
(PID.TID 0000.0001) %MON land_grdW_ave_S              =   3.0854830579032E-01
(PID.TID 0000.0001) %MON land_grdW_ave_T              =   5.6424128685748E-01
(PID.TID 0000.0001) %MON land_grdW_ave_N              =   4.9287510523755E-01
(PID.TID 0000.0001) %MON land_grdW_min_S              =   2.7247578676937E-02
(PID.TID 0000.0001) %MON land_grdW_min_T              =   0.0000000000000E+00
(PID.TID 0000.0001) %MON land_grdW_min_N              =   0.0000000000000E+00
(PID.TID 0000.0001) // =======================================================
(PID.TID 0000.0001) // End MONITOR Land statistics
(PID.TID 0000.0001) // =======================================================
(PID.TID 0000.0001) // =======================================================
(PID.TID 0000.0001) // Begin MONITOR Therm.SeaIce statistics
(PID.TID 0000.0001) // =======================================================
(PID.TID 0000.0001) %MON thSI_time_sec                =   9.9000000000000E+03
(PID.TID 0000.0001) %MON thSI_Ice_Area_G              =   1.7095789837670E+11
(PID.TID 0000.0001) %MON thSI_Ice_Area_S              =   0.0000000000000E+00
(PID.TID 0000.0001) %MON thSI_Ice_Area_N              =   1.7095789837670E+11
(PID.TID 0000.0001) %MON thSI_IceH_ave_G              =   1.3822213313135E-01
(PID.TID 0000.0001) %MON thSI_IceH_ave_S              =   0.0000000000000E+00
(PID.TID 0000.0001) %MON thSI_IceH_ave_N              =   1.3822213313135E-01
(PID.TID 0000.0001) %MON thSI_IceH_max_S              =   0.0000000000000E+00
(PID.TID 0000.0001) %MON thSI_IceH_max_N              =   1.4757314823153E-01
(PID.TID 0000.0001) %MON thSI_SnwH_ave_G              =   0.0000000000000E+00
(PID.TID 0000.0001) %MON thSI_SnwH_ave_S              =   0.0000000000000E+00
(PID.TID 0000.0001) %MON thSI_SnwH_ave_N              =   0.0000000000000E+00
(PID.TID 0000.0001) %MON thSI_SnwH_max_S              =   0.0000000000000E+00
(PID.TID 0000.0001) %MON thSI_SnwH_max_N              =   0.0000000000000E+00
(PID.TID 0000.0001) %MON thSI_TotEnerg_G              =  -7.2836973687693E+18
(PID.TID 0000.0001) %MON thSI_Tsrf_ave_G              =  -8.7328488784986E+00
(PID.TID 0000.0001) %MON thSI_Tsrf_ave_S              =   0.0000000000000E+00
(PID.TID 0000.0001) %MON thSI_Tsrf_ave_N              =  -8.7328488784986E+00
(PID.TID 0000.0001) %MON thSI_Tsrf_min_S              =   0.0000000000000E+00
(PID.TID 0000.0001) %MON thSI_Tsrf_min_N              =  -8.8428245047139E+00
(PID.TID 0000.0001) %MON thSI_Tsrf_max_S              =   0.0000000000000E+00
(PID.TID 0000.0001) %MON thSI_Tsrf_max_N              =  -8.5131913181120E+00
(PID.TID 0000.0001) %MON thSI_Tic1_ave_G              =  -6.3434284301487E+00
(PID.TID 0000.0001) %MON thSI_Tic1_ave_S              =   0.0000000000000E+00
(PID.TID 0000.0001) %MON thSI_Tic1_ave_N              =  -6.3434284301487E+00
(PID.TID 0000.0001) %MON thSI_Tic1_min_S              =   0.0000000000000E+00
(PID.TID 0000.0001) %MON thSI_Tic1_min_N              =  -6.3922089846035E+00
(PID.TID 0000.0001) %MON thSI_Tic1_max_S              =   0.0000000000000E+00
(PID.TID 0000.0001) %MON thSI_Tic1_max_N              =  -6.2925548623765E+00
(PID.TID 0000.0001) %MON thSI_Tic2_ave_G              =  -3.0305219229475E+00
(PID.TID 0000.0001) %MON thSI_Tic2_ave_S              =   0.0000000000000E+00
(PID.TID 0000.0001) %MON thSI_Tic2_ave_N              =  -3.0305219229475E+00
(PID.TID 0000.0001) %MON thSI_Tic2_min_S              =   0.0000000000000E+00
(PID.TID 0000.0001) %MON thSI_Tic2_min_N              =  -3.1095167789040E+00
(PID.TID 0000.0001) %MON thSI_Tic2_max_S              =   0.0000000000000E+00
(PID.TID 0000.0001) %MON thSI_Tic2_max_N              =  -2.9572909946215E+00
(PID.TID 0000.0001) // =======================================================
(PID.TID 0000.0001) // End MONITOR Therm.SeaIce statistics
(PID.TID 0000.0001) // =======================================================
 cg2d: Sum(rhs),rhsMax =   9.31322574615479E-10  2.51067361449826E+04
(PID.TID 0000.0001)                    cg2d_init_res =    1.18211647164062E+04
(PID.TID 0000.0001)                       cg2d_iters =    16
(PID.TID 0000.0001)                         cg2d_res =    7.03158121237629E-11
(PID.TID 0000.0001) // =======================================================
(PID.TID 0000.0001) // Begin MONITOR dynamic field statistics
(PID.TID 0000.0001) // =======================================================
(PID.TID 0000.0001) %MON time_tsnumber                =                    23
(PID.TID 0000.0001) %MON time_secondsf                =   1.0350000000000E+04
(PID.TID 0000.0001) %MON dynstat_eta_max              =   4.2147037429557E+03
(PID.TID 0000.0001) %MON dynstat_eta_min              =  -8.9515007245244E+02
(PID.TID 0000.0001) %MON dynstat_eta_mean             =   3.2131515562031E-15
(PID.TID 0000.0001) %MON dynstat_eta_sd               =   5.4285110130705E+02
(PID.TID 0000.0001) %MON dynstat_eta_del2             =   3.6700902319350E+01
(PID.TID 0000.0001) %MON dynstat_uvel_max             =   5.8560255605077E+00
(PID.TID 0000.0001) %MON dynstat_uvel_min             =  -6.1221550170402E+00
(PID.TID 0000.0001) %MON dynstat_uvel_mean            =   1.7432681138355E-03
(PID.TID 0000.0001) %MON dynstat_uvel_sd              =   8.3422790336952E-01
(PID.TID 0000.0001) %MON dynstat_uvel_del2            =   2.3596026859262E-02
(PID.TID 0000.0001) %MON dynstat_vvel_max             =   4.8719247440609E+00
(PID.TID 0000.0001) %MON dynstat_vvel_min             =  -6.0596424663134E+00
(PID.TID 0000.0001) %MON dynstat_vvel_mean            =   2.8455702076393E-02
(PID.TID 0000.0001) %MON dynstat_vvel_sd              =   8.0646645974755E-01
(PID.TID 0000.0001) %MON dynstat_vvel_del2            =   2.2612091816454E-02
(PID.TID 0000.0001) %MON dynstat_wvel_max             =   2.9112542842510E-01
(PID.TID 0000.0001) %MON dynstat_wvel_min             =  -1.3331665709529E-01
(PID.TID 0000.0001) %MON dynstat_wvel_mean            =   3.3932453630294E-04
(PID.TID 0000.0001) %MON dynstat_wvel_sd              =   1.0225143673504E-02
(PID.TID 0000.0001) %MON dynstat_wvel_del2            =   1.6885910609119E-03
(PID.TID 0000.0001) %MON dynstat_theta_max            =   4.3821491992613E+02
(PID.TID 0000.0001) %MON dynstat_theta_min            =   2.8410452433167E+02
(PID.TID 0000.0001) %MON dynstat_theta_mean           =   3.3168943927542E+02
(PID.TID 0000.0001) %MON dynstat_theta_sd             =   4.7449035747514E+01
(PID.TID 0000.0001) %MON dynstat_theta_del2           =   2.3809951532320E-02
(PID.TID 0000.0001) %MON dynstat_salt_max             =   4.3951101382251E+00
(PID.TID 0000.0001) %MON dynstat_salt_min             =  -8.1450895979129E-03
(PID.TID 0000.0001) %MON dynstat_salt_mean            =   8.3750674890098E-02
(PID.TID 0000.0001) %MON dynstat_salt_sd              =   3.3417022960052E-01
(PID.TID 0000.0001) %MON dynstat_salt_del2            =   1.0314467639010E-02
(PID.TID 0000.0001) %MON advcfl_uvel_max              =   8.5420438540711E-03
(PID.TID 0000.0001) %MON advcfl_vvel_max              =   8.6377028668297E-03
(PID.TID 0000.0001) %MON advcfl_wvel_max              =   4.7638706469561E-03
(PID.TID 0000.0001) %MON advcfl_W_hf_max              =   1.6043789765368E-02
(PID.TID 0000.0001) %MON pe_b_mean                    =  -1.1925315262402E+00
(PID.TID 0000.0001) %MON ke_max                       =   1.8153721595466E+01
(PID.TID 0000.0001) %MON ke_mean                      =   6.6957633747105E-01
(PID.TID 0000.0001) %MON ke_vol                       =   4.9523908919847E+19
(PID.TID 0000.0001) %MON vort_r_min                   =  -2.2478271950823E-05
(PID.TID 0000.0001) %MON vort_r_max                   =   8.2054695935672E-06
(PID.TID 0000.0001) %MON vort_a_mean                  =   6.7242814765328E-08
(PID.TID 0000.0001) %MON vort_a_sd                    =   8.3986353878809E-05
(PID.TID 0000.0001) %MON vort_p_mean                  =   6.8939465673924E-08
(PID.TID 0000.0001) %MON vort_p_sd                    =   9.1841419289263E-05
(PID.TID 0000.0001) %MON surfExpan_theta_mean         =  -3.6141754753088E-02
(PID.TID 0000.0001) %MON surfExpan_salt_mean          =  -7.7818555326135E-04
(PID.TID 0000.0001) %MON surfExpan_Heat_mean          =   2.6643145371109E+00
(PID.TID 0000.0001) %MON En_Budget_T2PE_mean          =  -5.3147276328824E+00
(PID.TID 0000.0001) // =======================================================
(PID.TID 0000.0001) // End MONITOR dynamic field statistics
(PID.TID 0000.0001) // =======================================================
(PID.TID 0000.0001) // =======================================================
(PID.TID 0000.0001) // Begin MONITOR Land statistics
(PID.TID 0000.0001) // =======================================================
(PID.TID 0000.0001) %MON land_time_sec                =   1.0350000000000E+04
(PID.TID 0000.0001) %MON land_SnwH_ave_G              =   1.5322557530565E-01
(PID.TID 0000.0001) %MON land_SnwH_ave_S              =   5.5904294525842E-01
(PID.TID 0000.0001) %MON land_SnwH_ave_T              =   0.0000000000000E+00
(PID.TID 0000.0001) %MON land_SnwH_ave_N              =   1.2390042607921E-01
(PID.TID 0000.0001) %MON land_SnwH_max_S              =   9.9998753186959E-01
(PID.TID 0000.0001) %MON land_SnwH_max_T              =   0.0000000000000E+00
(PID.TID 0000.0001) %MON land_SnwH_max_N              =   9.9999846686265E-01
(PID.TID 0000.0001) %MON land_TotEnerg_G              =  -6.3486147835587E+21
(PID.TID 0000.0001) %MON land_TotEnerg_S              =  -5.0020888785106E+21
(PID.TID 0000.0001) %MON land_TotEnerg_T              =   7.2792028813880E+21
(PID.TID 0000.0001) %MON land_TotEnerg_N              =  -8.6257287864362E+21
(PID.TID 0000.0001) %MON land_Tsrf_ave_G              =  -8.3222829108468E+00
(PID.TID 0000.0001) %MON land_Tsrf_ave_S              =  -7.3435780948592E+00
(PID.TID 0000.0001) %MON land_Tsrf_ave_T              =   1.0462660747791E+01
(PID.TID 0000.0001) %MON land_Tsrf_ave_N              =  -2.1183801709308E+01
(PID.TID 0000.0001) %MON land_Tsrf_min_S              =  -3.3761643896292E+01
(PID.TID 0000.0001) %MON land_Tsrf_min_T              =  -3.8249832827673E+00
(PID.TID 0000.0001) %MON land_Tsrf_min_N              =  -5.2056694641539E+01
(PID.TID 0000.0001) %MON land_Tsrf_max_S              =   2.0587280974984E+01
(PID.TID 0000.0001) %MON land_Tsrf_max_T              =   2.0924374129859E+01
(PID.TID 0000.0001) %MON land_Tsrf_max_N              =   8.7368338310999E+00
(PID.TID 0000.0001) %MON land_Tgr1_ave_G              =  -7.0845139251683E+00
(PID.TID 0000.0001) %MON land_Tgr1_ave_S              =  -7.1115835125147E+00
(PID.TID 0000.0001) %MON land_Tgr1_ave_T              =   1.0462660747791E+01
(PID.TID 0000.0001) %MON land_Tgr1_ave_N              =  -1.8793219908995E+01
(PID.TID 0000.0001) %MON land_Tgr1_min_S              =  -3.9252312370781E+01
(PID.TID 0000.0001) %MON land_Tgr1_min_T              =  -3.8249832827673E+00
(PID.TID 0000.0001) %MON land_Tgr1_min_N              =  -5.4719753470907E+01
(PID.TID 0000.0001) %MON land_Tgr1_max_S              =   2.0587280974984E+01
(PID.TID 0000.0001) %MON land_Tgr1_max_T              =   2.0924374129859E+01
(PID.TID 0000.0001) %MON land_Tgr1_max_N              =   8.7368338310999E+00
(PID.TID 0000.0001) %MON land_Tgr2_ave_G              =   4.2040867308971E+00
(PID.TID 0000.0001) %MON land_Tgr2_ave_S              =  -1.8727039274437E+01
(PID.TID 0000.0001) %MON land_Tgr2_ave_T              =   2.2009803445987E+01
(PID.TID 0000.0001) %MON land_Tgr2_ave_N              =  -2.4732967969293E-01
(PID.TID 0000.0001) %MON land_Tgr2_min_S              =  -6.4752355078529E+01
(PID.TID 0000.0001) %MON land_Tgr2_min_T              =  -9.7039050533676E+00
(PID.TID 0000.0001) %MON land_Tgr2_min_N              =  -4.0199108887558E+01
(PID.TID 0000.0001) %MON land_Tgr2_max_S              =   2.3360151708689E+01
(PID.TID 0000.0001) %MON land_Tgr2_max_T              =   3.1352634382398E+01
(PID.TID 0000.0001) %MON land_Tgr2_max_N              =   2.9822691047834E+01
(PID.TID 0000.0001) %MON land_grdW_ave_G              =   4.8677405052450E-01
(PID.TID 0000.0001) %MON land_grdW_ave_S              =   3.0854039012746E-01
(PID.TID 0000.0001) %MON land_grdW_ave_T              =   5.6422154012602E-01
(PID.TID 0000.0001) %MON land_grdW_ave_N              =   4.9287480809829E-01
(PID.TID 0000.0001) %MON land_grdW_min_S              =   2.7334299467217E-02
(PID.TID 0000.0001) %MON land_grdW_min_T              =   0.0000000000000E+00
(PID.TID 0000.0001) %MON land_grdW_min_N              =   0.0000000000000E+00
(PID.TID 0000.0001) // =======================================================
(PID.TID 0000.0001) // End MONITOR Land statistics
(PID.TID 0000.0001) // =======================================================
(PID.TID 0000.0001) // =======================================================
(PID.TID 0000.0001) // Begin MONITOR Therm.SeaIce statistics
(PID.TID 0000.0001) // =======================================================
(PID.TID 0000.0001) %MON thSI_time_sec                =   1.0350000000000E+04
(PID.TID 0000.0001) %MON thSI_Ice_Area_G              =   1.7187128290358E+11
(PID.TID 0000.0001) %MON thSI_Ice_Area_S              =   0.0000000000000E+00
(PID.TID 0000.0001) %MON thSI_Ice_Area_N              =   1.7187128290358E+11
(PID.TID 0000.0001) %MON thSI_IceH_ave_G              =   1.3860513444541E-01
(PID.TID 0000.0001) %MON thSI_IceH_ave_S              =   0.0000000000000E+00
(PID.TID 0000.0001) %MON thSI_IceH_ave_N              =   1.3860513444541E-01
(PID.TID 0000.0001) %MON thSI_IceH_max_S              =   0.0000000000000E+00
(PID.TID 0000.0001) %MON thSI_IceH_max_N              =   1.4794543351831E-01
(PID.TID 0000.0001) %MON thSI_SnwH_ave_G              =   0.0000000000000E+00
(PID.TID 0000.0001) %MON thSI_SnwH_ave_S              =   0.0000000000000E+00
(PID.TID 0000.0001) %MON thSI_SnwH_ave_N              =   0.0000000000000E+00
(PID.TID 0000.0001) %MON thSI_SnwH_max_S              =   0.0000000000000E+00
(PID.TID 0000.0001) %MON thSI_SnwH_max_N              =   0.0000000000000E+00
(PID.TID 0000.0001) %MON thSI_TotEnerg_G              =  -7.3469189034133E+18
(PID.TID 0000.0001) %MON thSI_Tsrf_ave_G              =  -8.8224770418951E+00
(PID.TID 0000.0001) %MON thSI_Tsrf_ave_S              =   0.0000000000000E+00
(PID.TID 0000.0001) %MON thSI_Tsrf_ave_N              =  -8.8224770418951E+00
(PID.TID 0000.0001) %MON thSI_Tsrf_min_S              =   0.0000000000000E+00
(PID.TID 0000.0001) %MON thSI_Tsrf_min_N              =  -8.9380329494534E+00
(PID.TID 0000.0001) %MON thSI_Tsrf_max_S              =   0.0000000000000E+00
(PID.TID 0000.0001) %MON thSI_Tsrf_max_N              =  -8.5932404993204E+00
(PID.TID 0000.0001) %MON thSI_Tic1_ave_G              =  -6.4521235436189E+00
(PID.TID 0000.0001) %MON thSI_Tic1_ave_S              =   0.0000000000000E+00
(PID.TID 0000.0001) %MON thSI_Tic1_ave_N              =  -6.4521235436189E+00
(PID.TID 0000.0001) %MON thSI_Tic1_min_S              =   0.0000000000000E+00
(PID.TID 0000.0001) %MON thSI_Tic1_min_N              =  -6.4927644865951E+00
(PID.TID 0000.0001) %MON thSI_Tic1_max_S              =   0.0000000000000E+00
(PID.TID 0000.0001) %MON thSI_Tic1_max_N              =  -6.4013661435175E+00
(PID.TID 0000.0001) %MON thSI_Tic2_ave_G              =  -3.0775722676123E+00
(PID.TID 0000.0001) %MON thSI_Tic2_ave_S              =   0.0000000000000E+00
(PID.TID 0000.0001) %MON thSI_Tic2_ave_N              =  -3.0775722676123E+00
(PID.TID 0000.0001) %MON thSI_Tic2_min_S              =   0.0000000000000E+00
(PID.TID 0000.0001) %MON thSI_Tic2_min_N              =  -3.1518035892049E+00
(PID.TID 0000.0001) %MON thSI_Tic2_max_S              =   0.0000000000000E+00
(PID.TID 0000.0001) %MON thSI_Tic2_max_N              =  -3.0080429653350E+00
(PID.TID 0000.0001) // =======================================================
(PID.TID 0000.0001) // End MONITOR Therm.SeaIce statistics
(PID.TID 0000.0001) // =======================================================
 cg2d: Sum(rhs),rhsMax =  -2.32830643653870E-10  2.42119194659696E+04
(PID.TID 0000.0001)                    cg2d_init_res =    1.17029641453392E+04
(PID.TID 0000.0001)                       cg2d_iters =    16
(PID.TID 0000.0001)                         cg2d_res =    6.98887988688102E-11
(PID.TID 0000.0001) // =======================================================
(PID.TID 0000.0001) // Begin MONITOR dynamic field statistics
(PID.TID 0000.0001) // =======================================================
(PID.TID 0000.0001) %MON time_tsnumber                =                    24
(PID.TID 0000.0001) %MON time_secondsf                =   1.0800000000000E+04
(PID.TID 0000.0001) %MON dynstat_eta_max              =   4.0595770972346E+03
(PID.TID 0000.0001) %MON dynstat_eta_min              =  -8.5746179786418E+02
(PID.TID 0000.0001) %MON dynstat_eta_mean             =   3.5344667118234E-14
(PID.TID 0000.0001) %MON dynstat_eta_sd               =   5.3396450872021E+02
(PID.TID 0000.0001) %MON dynstat_eta_del2             =   3.6613088845611E+01
(PID.TID 0000.0001) %MON dynstat_uvel_max             =   5.7847035395317E+00
(PID.TID 0000.0001) %MON dynstat_uvel_min             =  -6.1072810114589E+00
(PID.TID 0000.0001) %MON dynstat_uvel_mean            =   5.5416101963256E-03
(PID.TID 0000.0001) %MON dynstat_uvel_sd              =   8.3382454116631E-01
(PID.TID 0000.0001) %MON dynstat_uvel_del2            =   2.4088714351980E-02
(PID.TID 0000.0001) %MON dynstat_vvel_max             =   4.9729260269818E+00
(PID.TID 0000.0001) %MON dynstat_vvel_min             =  -6.1627614341595E+00
(PID.TID 0000.0001) %MON dynstat_vvel_mean            =   2.8160037728185E-02
(PID.TID 0000.0001) %MON dynstat_vvel_sd              =   8.0972090522058E-01
(PID.TID 0000.0001) %MON dynstat_vvel_del2            =   2.3066746235487E-02
(PID.TID 0000.0001) %MON dynstat_wvel_max             =   2.7916949694114E-01
(PID.TID 0000.0001) %MON dynstat_wvel_min             =  -1.3848285879391E-01
(PID.TID 0000.0001) %MON dynstat_wvel_mean            =   4.2626277528581E-04
(PID.TID 0000.0001) %MON dynstat_wvel_sd              =   1.0442994073570E-02
(PID.TID 0000.0001) %MON dynstat_wvel_del2            =   1.7467621980996E-03
(PID.TID 0000.0001) %MON dynstat_theta_max            =   4.3813491207076E+02
(PID.TID 0000.0001) %MON dynstat_theta_min            =   2.8388204590475E+02
(PID.TID 0000.0001) %MON dynstat_theta_mean           =   3.3168745412363E+02
(PID.TID 0000.0001) %MON dynstat_theta_sd             =   4.7451059821110E+01
(PID.TID 0000.0001) %MON dynstat_theta_del2           =   2.4685080783298E-02
(PID.TID 0000.0001) %MON dynstat_salt_max             =   4.4540960653851E+00
(PID.TID 0000.0001) %MON dynstat_salt_min             =  -9.9543845969263E-03
(PID.TID 0000.0001) %MON dynstat_salt_mean            =   8.7146397267872E-02
(PID.TID 0000.0001) %MON dynstat_salt_sd              =   3.4633378965578E-01
(PID.TID 0000.0001) %MON dynstat_salt_del2            =   1.0640419005679E-02
(PID.TID 0000.0001) %MON advcfl_uvel_max              =   8.5212906376617E-03
(PID.TID 0000.0001) %MON advcfl_vvel_max              =   8.7846935530196E-03
(PID.TID 0000.0001) %MON advcfl_wvel_max              =   4.5682281317641E-03
(PID.TID 0000.0001) %MON advcfl_W_hf_max              =   1.6525528840567E-02
(PID.TID 0000.0001) %MON pe_b_mean                    =  -1.2028248054632E+00
(PID.TID 0000.0001) %MON ke_max                       =   1.8699706162680E+01
(PID.TID 0000.0001) %MON ke_mean                      =   6.7185971348032E-01
(PID.TID 0000.0001) %MON ke_vol                       =   4.9523908919847E+19
(PID.TID 0000.0001) %MON vort_r_min                   =  -2.2709373924324E-05
(PID.TID 0000.0001) %MON vort_r_max                   =   8.6821631199788E-06
(PID.TID 0000.0001) %MON vort_a_mean                  =   6.7242814765207E-08
(PID.TID 0000.0001) %MON vort_a_sd                    =   8.3988968600449E-05
(PID.TID 0000.0001) %MON vort_p_mean                  =   6.8939466534004E-08
(PID.TID 0000.0001) %MON vort_p_sd                    =   9.1823403057981E-05
(PID.TID 0000.0001) %MON surfExpan_theta_mean         =  -4.4374033962505E-02
(PID.TID 0000.0001) %MON surfExpan_salt_mean          =  -8.7057585922114E-04
(PID.TID 0000.0001) %MON surfExpan_Heat_mean          =   3.3639395785187E+00
(PID.TID 0000.0001) %MON En_Budget_T2PE_mean          =  -6.6233972108448E+00
(PID.TID 0000.0001) // =======================================================
(PID.TID 0000.0001) // End MONITOR dynamic field statistics
(PID.TID 0000.0001) // =======================================================
(PID.TID 0000.0001) // =======================================================
(PID.TID 0000.0001) // Begin MONITOR Land statistics
(PID.TID 0000.0001) // =======================================================
(PID.TID 0000.0001) %MON land_time_sec                =   1.0800000000000E+04
(PID.TID 0000.0001) %MON land_SnwH_ave_G              =   1.5322461674064E-01
(PID.TID 0000.0001) %MON land_SnwH_ave_S              =   5.5904206868781E-01
(PID.TID 0000.0001) %MON land_SnwH_ave_T              =   0.0000000000000E+00
(PID.TID 0000.0001) %MON land_SnwH_ave_N              =   1.2389880081420E-01
(PID.TID 0000.0001) %MON land_SnwH_max_S              =   9.9998697332511E-01
(PID.TID 0000.0001) %MON land_SnwH_max_T              =   0.0000000000000E+00
(PID.TID 0000.0001) %MON land_SnwH_max_N              =   9.9999840337507E-01
(PID.TID 0000.0001) %MON land_TotEnerg_G              =  -6.3501659100329E+21
(PID.TID 0000.0001) %MON land_TotEnerg_S              =  -5.0021701764164E+21
(PID.TID 0000.0001) %MON land_TotEnerg_T              =   7.2783494276561E+21
(PID.TID 0000.0001) %MON land_TotEnerg_N              =  -8.6263451612727E+21
(PID.TID 0000.0001) %MON land_Tsrf_ave_G              =  -8.3645491401301E+00
(PID.TID 0000.0001) %MON land_Tsrf_ave_S              =  -7.3450898458293E+00
(PID.TID 0000.0001) %MON land_Tsrf_ave_T              =   1.0366220920310E+01
(PID.TID 0000.0001) %MON land_Tsrf_ave_N              =  -2.1203112907377E+01
(PID.TID 0000.0001) %MON land_Tsrf_min_S              =  -3.3754459502376E+01
(PID.TID 0000.0001) %MON land_Tsrf_min_T              =  -3.7037606508827E+00
(PID.TID 0000.0001) %MON land_Tsrf_min_N              =  -5.2055264079508E+01
(PID.TID 0000.0001) %MON land_Tsrf_max_S              =   2.0483535770805E+01
(PID.TID 0000.0001) %MON land_Tsrf_max_T              =   2.0754971523859E+01
(PID.TID 0000.0001) %MON land_Tsrf_max_N              =   8.6039266884166E+00
(PID.TID 0000.0001) %MON land_Tgr1_ave_G              =  -7.1345175046742E+00
(PID.TID 0000.0001) %MON land_Tgr1_ave_S              =  -7.1414992889207E+00
(PID.TID 0000.0001) %MON land_Tgr1_ave_T              =   1.0366220920310E+01
(PID.TID 0000.0001) %MON land_Tgr1_ave_N              =  -1.8818731088699E+01
(PID.TID 0000.0001) %MON land_Tgr1_min_S              =  -3.9263352508856E+01
(PID.TID 0000.0001) %MON land_Tgr1_min_T              =  -3.7037606508827E+00
(PID.TID 0000.0001) %MON land_Tgr1_min_N              =  -5.4707255053207E+01
(PID.TID 0000.0001) %MON land_Tgr1_max_S              =   2.0483535770805E+01
(PID.TID 0000.0001) %MON land_Tgr1_max_T              =   2.0754971523859E+01
(PID.TID 0000.0001) %MON land_Tgr1_max_N              =   8.6039266884166E+00
(PID.TID 0000.0001) %MON land_Tgr2_ave_G              =   4.2039128686300E+00
(PID.TID 0000.0001) %MON land_Tgr2_ave_S              =  -1.8726845108114E+01
(PID.TID 0000.0001) %MON land_Tgr2_ave_T              =   2.2009615052667E+01
(PID.TID 0000.0001) %MON land_Tgr2_ave_N              =  -2.4761322478191E-01
(PID.TID 0000.0001) %MON land_Tgr2_min_S              =  -6.4751925410083E+01
(PID.TID 0000.0001) %MON land_Tgr2_min_T              =  -9.7038292411759E+00
(PID.TID 0000.0001) %MON land_Tgr2_min_N              =  -4.0199344646331E+01
(PID.TID 0000.0001) %MON land_Tgr2_max_S              =   2.3360089830422E+01
(PID.TID 0000.0001) %MON land_Tgr2_max_T              =   3.1352206838658E+01
(PID.TID 0000.0001) %MON land_Tgr2_max_N              =   2.9822169396632E+01
(PID.TID 0000.0001) %MON land_grdW_ave_G              =   4.8676612775694E-01
(PID.TID 0000.0001) %MON land_grdW_ave_S              =   3.0853255950482E-01
(PID.TID 0000.0001) %MON land_grdW_ave_T              =   5.6420215010208E-01
(PID.TID 0000.0001) %MON land_grdW_ave_N              =   4.9287451293605E-01
(PID.TID 0000.0001) %MON land_grdW_min_S              =   2.7421233430732E-02
(PID.TID 0000.0001) %MON land_grdW_min_T              =   0.0000000000000E+00
(PID.TID 0000.0001) %MON land_grdW_min_N              =   0.0000000000000E+00
(PID.TID 0000.0001) // =======================================================
(PID.TID 0000.0001) // End MONITOR Land statistics
(PID.TID 0000.0001) // =======================================================
(PID.TID 0000.0001) // =======================================================
(PID.TID 0000.0001) // Begin MONITOR Therm.SeaIce statistics
(PID.TID 0000.0001) // =======================================================
(PID.TID 0000.0001) %MON thSI_time_sec                =   1.0800000000000E+04
(PID.TID 0000.0001) %MON thSI_Ice_Area_G              =   1.7277961383670E+11
(PID.TID 0000.0001) %MON thSI_Ice_Area_S              =   0.0000000000000E+00
(PID.TID 0000.0001) %MON thSI_Ice_Area_N              =   1.7277961383670E+11
(PID.TID 0000.0001) %MON thSI_IceH_ave_G              =   1.3899186788898E-01
(PID.TID 0000.0001) %MON thSI_IceH_ave_S              =   0.0000000000000E+00
(PID.TID 0000.0001) %MON thSI_IceH_ave_N              =   1.3899186788898E-01
(PID.TID 0000.0001) %MON thSI_IceH_max_S              =   0.0000000000000E+00
(PID.TID 0000.0001) %MON thSI_IceH_max_N              =   1.4832129332917E-01
(PID.TID 0000.0001) %MON thSI_SnwH_ave_G              =   0.0000000000000E+00
(PID.TID 0000.0001) %MON thSI_SnwH_ave_S              =   0.0000000000000E+00
(PID.TID 0000.0001) %MON thSI_SnwH_ave_N              =   0.0000000000000E+00
(PID.TID 0000.0001) %MON thSI_SnwH_max_S              =   0.0000000000000E+00
(PID.TID 0000.0001) %MON thSI_SnwH_max_N              =   0.0000000000000E+00
(PID.TID 0000.0001) %MON thSI_TotEnerg_G              =  -7.4100886921335E+18
(PID.TID 0000.0001) %MON thSI_Tsrf_ave_G              =  -8.9052519042441E+00
(PID.TID 0000.0001) %MON thSI_Tsrf_ave_S              =   0.0000000000000E+00
(PID.TID 0000.0001) %MON thSI_Tsrf_ave_N              =  -8.9052519042441E+00
(PID.TID 0000.0001) %MON thSI_Tsrf_min_S              =   0.0000000000000E+00
(PID.TID 0000.0001) %MON thSI_Tsrf_min_N              =  -9.0267295803308E+00
(PID.TID 0000.0001) %MON thSI_Tsrf_max_S              =   0.0000000000000E+00
(PID.TID 0000.0001) %MON thSI_Tsrf_max_N              =  -8.6656995263724E+00
(PID.TID 0000.0001) %MON thSI_Tic1_ave_G              =  -6.5528675429523E+00
(PID.TID 0000.0001) %MON thSI_Tic1_ave_S              =   0.0000000000000E+00
(PID.TID 0000.0001) %MON thSI_Tic1_ave_N              =  -6.5528675429523E+00
(PID.TID 0000.0001) %MON thSI_Tic1_min_S              =   0.0000000000000E+00
(PID.TID 0000.0001) %MON thSI_Tic1_min_N              =  -6.5948971375873E+00
(PID.TID 0000.0001) %MON thSI_Tic1_max_S              =   0.0000000000000E+00
(PID.TID 0000.0001) %MON thSI_Tic1_max_N              =  -6.5019150730571E+00
(PID.TID 0000.0001) %MON thSI_Tic2_ave_G              =  -3.1210435498110E+00
(PID.TID 0000.0001) %MON thSI_Tic2_ave_S              =   0.0000000000000E+00
(PID.TID 0000.0001) %MON thSI_Tic2_ave_N              =  -3.1210435498110E+00
(PID.TID 0000.0001) %MON thSI_Tic2_min_S              =   0.0000000000000E+00
(PID.TID 0000.0001) %MON thSI_Tic2_min_N              =  -3.1904952923067E+00
(PID.TID 0000.0001) %MON thSI_Tic2_max_S              =   0.0000000000000E+00
(PID.TID 0000.0001) %MON thSI_Tic2_max_N              =  -3.0553121541514E+00
(PID.TID 0000.0001) // =======================================================
(PID.TID 0000.0001) // End MONITOR Therm.SeaIce statistics
(PID.TID 0000.0001) // =======================================================
 cg2d: Sum(rhs),rhsMax =  -1.74622982740402E-10  2.32610553888741E+04
(PID.TID 0000.0001)                    cg2d_init_res =    1.15896275504221E+04
(PID.TID 0000.0001)                       cg2d_iters =    16
(PID.TID 0000.0001)                         cg2d_res =    6.91225287072816E-11
(PID.TID 0000.0001) // =======================================================
(PID.TID 0000.0001) // Begin MONITOR dynamic field statistics
(PID.TID 0000.0001) // =======================================================
(PID.TID 0000.0001) %MON time_tsnumber                =                    25
(PID.TID 0000.0001) %MON time_secondsf                =   1.1250000000000E+04
(PID.TID 0000.0001) %MON dynstat_eta_max              =   3.9016764383560E+03
(PID.TID 0000.0001) %MON dynstat_eta_min              =  -8.2091011896083E+02
(PID.TID 0000.0001) %MON dynstat_eta_mean             =   5.4623576455453E-14
(PID.TID 0000.0001) %MON dynstat_eta_sd               =   5.2409488704440E+02
(PID.TID 0000.0001) %MON dynstat_eta_del2             =   3.6526074704830E+01
(PID.TID 0000.0001) %MON dynstat_uvel_max             =   5.6933073438876E+00
(PID.TID 0000.0001) %MON dynstat_uvel_min             =  -5.9789315227363E+00
(PID.TID 0000.0001) %MON dynstat_uvel_mean            =   9.9289928260482E-03
(PID.TID 0000.0001) %MON dynstat_uvel_sd              =   8.3142130940934E-01
(PID.TID 0000.0001) %MON dynstat_uvel_del2            =   2.4570310349958E-02
(PID.TID 0000.0001) %MON dynstat_vvel_max             =   5.0747789093049E+00
(PID.TID 0000.0001) %MON dynstat_vvel_min             =  -6.1921037563005E+00
(PID.TID 0000.0001) %MON dynstat_vvel_mean            =   2.7645922345011E-02
(PID.TID 0000.0001) %MON dynstat_vvel_sd              =   8.1304205691588E-01
(PID.TID 0000.0001) %MON dynstat_vvel_del2            =   2.3617360024412E-02
(PID.TID 0000.0001) %MON dynstat_wvel_max             =   2.5817238584593E-01
(PID.TID 0000.0001) %MON dynstat_wvel_min             =  -1.4020834399822E-01
(PID.TID 0000.0001) %MON dynstat_wvel_mean            =   4.9370721263375E-04
(PID.TID 0000.0001) %MON dynstat_wvel_sd              =   1.0570071889434E-02
(PID.TID 0000.0001) %MON dynstat_wvel_del2            =   1.8046655891091E-03
(PID.TID 0000.0001) %MON dynstat_theta_max            =   4.3803558786162E+02
(PID.TID 0000.0001) %MON dynstat_theta_min            =   2.8366091526739E+02
(PID.TID 0000.0001) %MON dynstat_theta_mean           =   3.3168542729678E+02
(PID.TID 0000.0001) %MON dynstat_theta_sd             =   4.7453093899704E+01
(PID.TID 0000.0001) %MON dynstat_theta_del2           =   2.5569923278710E-02
(PID.TID 0000.0001) %MON dynstat_salt_max             =   4.5095327843303E+00
(PID.TID 0000.0001) %MON dynstat_salt_min             =  -1.1827664579257E-02
(PID.TID 0000.0001) %MON dynstat_salt_mean            =   9.0528605333895E-02
(PID.TID 0000.0001) %MON dynstat_salt_sd              =   3.5837424538114E-01
(PID.TID 0000.0001) %MON dynstat_salt_del2            =   1.0966531937602E-02
(PID.TID 0000.0001) %MON advcfl_uvel_max              =   8.3422087688974E-03
(PID.TID 0000.0001) %MON advcfl_vvel_max              =   8.8265194959668E-03
(PID.TID 0000.0001) %MON advcfl_wvel_max              =   4.2246390411152E-03
(PID.TID 0000.0001) %MON advcfl_W_hf_max              =   1.6897224154393E-02
(PID.TID 0000.0001) %MON pe_b_mean                    =  -1.2113498864335E+00
(PID.TID 0000.0001) %MON ke_max                       =   1.8849012760587E+01
(PID.TID 0000.0001) %MON ke_mean                      =   6.7256655710664E-01
(PID.TID 0000.0001) %MON ke_vol                       =   4.9523908919847E+19
(PID.TID 0000.0001) %MON vort_r_min                   =  -2.2535261845863E-05
(PID.TID 0000.0001) %MON vort_r_max                   =   9.1608519450939E-06
(PID.TID 0000.0001) %MON vort_a_mean                  =   6.7242814765397E-08
(PID.TID 0000.0001) %MON vort_a_sd                    =   8.3991539816769E-05
(PID.TID 0000.0001) %MON vort_p_mean                  =   6.8939467512560E-08
(PID.TID 0000.0001) %MON vort_p_sd                    =   9.1804613610995E-05
(PID.TID 0000.0001) %MON surfExpan_theta_mean         =  -5.0665024547101E-02
(PID.TID 0000.0001) %MON surfExpan_salt_mean          =  -9.6685486489878E-04
(PID.TID 0000.0001) %MON surfExpan_Heat_mean          =   3.9031530476189E+00
(PID.TID 0000.0001) %MON En_Budget_T2PE_mean          =  -7.6295236441174E+00
(PID.TID 0000.0001) // =======================================================
(PID.TID 0000.0001) // End MONITOR dynamic field statistics
(PID.TID 0000.0001) // =======================================================
(PID.TID 0000.0001) // =======================================================
(PID.TID 0000.0001) // Begin MONITOR Land statistics
(PID.TID 0000.0001) // =======================================================
(PID.TID 0000.0001) %MON land_time_sec                =   1.1250000000000E+04
(PID.TID 0000.0001) %MON land_SnwH_ave_G              =   1.5322365996124E-01
(PID.TID 0000.0001) %MON land_SnwH_ave_S              =   5.5904119074270E-01
(PID.TID 0000.0001) %MON land_SnwH_ave_T              =   0.0000000000000E+00
(PID.TID 0000.0001) %MON land_SnwH_ave_N              =   1.2389717955228E-01
(PID.TID 0000.0001) %MON land_SnwH_max_S              =   9.9998641509579E-01
(PID.TID 0000.0001) %MON land_SnwH_max_T              =   0.0000000000000E+00
(PID.TID 0000.0001) %MON land_SnwH_max_N              =   9.9999833984420E-01
(PID.TID 0000.0001) %MON land_TotEnerg_G              =  -6.3516232035370E+21
(PID.TID 0000.0001) %MON land_TotEnerg_S              =  -5.0022389465641E+21
(PID.TID 0000.0001) %MON land_TotEnerg_T              =   7.2775653775573E+21
(PID.TID 0000.0001) %MON land_TotEnerg_N              =  -8.6269496345302E+21
(PID.TID 0000.0001) %MON land_Tsrf_ave_G              =  -8.4033328855472E+00
(PID.TID 0000.0001) %MON land_Tsrf_ave_S              =  -7.3470439581639E+00
(PID.TID 0000.0001) %MON land_Tsrf_ave_T              =   1.0278019800739E+01
(PID.TID 0000.0001) %MON land_Tsrf_ave_N              =  -2.1220844492240E+01
(PID.TID 0000.0001) %MON land_Tsrf_min_S              =  -3.3743802254739E+01
(PID.TID 0000.0001) %MON land_Tsrf_min_T              =  -3.5862361573439E+00
(PID.TID 0000.0001) %MON land_Tsrf_min_N              =  -5.2052290651291E+01
(PID.TID 0000.0001) %MON land_Tsrf_max_S              =   2.0392522043314E+01
(PID.TID 0000.0001) %MON land_Tsrf_max_T              =   2.0603114528019E+01
(PID.TID 0000.0001) %MON land_Tsrf_max_N              =   8.4789410083923E+00
(PID.TID 0000.0001) %MON land_Tgr1_ave_G              =  -7.1803946194863E+00
(PID.TID 0000.0001) %MON land_Tgr1_ave_S              =  -7.1677908143056E+00
(PID.TID 0000.0001) %MON land_Tgr1_ave_T              =   1.0278019800739E+01
(PID.TID 0000.0001) %MON land_Tgr1_ave_N              =  -1.8842698923734E+01
(PID.TID 0000.0001) %MON land_Tgr1_min_S              =  -3.9274350245596E+01
(PID.TID 0000.0001) %MON land_Tgr1_min_T              =  -3.5862361573439E+00
(PID.TID 0000.0001) %MON land_Tgr1_min_N              =  -5.4694774385273E+01
(PID.TID 0000.0001) %MON land_Tgr1_max_S              =   2.0392522043314E+01
(PID.TID 0000.0001) %MON land_Tgr1_max_T              =   2.0603114528019E+01
(PID.TID 0000.0001) %MON land_Tgr1_max_N              =   8.4789410083923E+00
(PID.TID 0000.0001) %MON land_Tgr2_ave_G              =   4.2037383193943E+00
(PID.TID 0000.0001) %MON land_Tgr2_ave_S              =  -1.8726651361133E+01
(PID.TID 0000.0001) %MON land_Tgr2_ave_T              =   2.2009425371251E+01
(PID.TID 0000.0001) %MON land_Tgr2_ave_N              =  -2.4789714224135E-01
(PID.TID 0000.0001) %MON land_Tgr2_min_S              =  -6.4751495950060E+01
(PID.TID 0000.0001) %MON land_Tgr2_min_T              =  -9.7037519452618E+00
(PID.TID 0000.0001) %MON land_Tgr2_min_N              =  -4.0199580169277E+01
(PID.TID 0000.0001) %MON land_Tgr2_max_S              =   2.3360026045871E+01
(PID.TID 0000.0001) %MON land_Tgr2_max_T              =   3.1351776514688E+01
(PID.TID 0000.0001) %MON land_Tgr2_max_N              =   2.9821642725518E+01
(PID.TID 0000.0001) %MON land_grdW_ave_G              =   4.8675832586583E-01
(PID.TID 0000.0001) %MON land_grdW_ave_S              =   3.0852480662336E-01
(PID.TID 0000.0001) %MON land_grdW_ave_T              =   5.6418308038641E-01
(PID.TID 0000.0001) %MON land_grdW_ave_N              =   4.9287421946837E-01
(PID.TID 0000.0001) %MON land_grdW_min_S              =   2.7508268430558E-02
(PID.TID 0000.0001) %MON land_grdW_min_T              =   0.0000000000000E+00
(PID.TID 0000.0001) %MON land_grdW_min_N              =   0.0000000000000E+00
(PID.TID 0000.0001) // =======================================================
(PID.TID 0000.0001) // End MONITOR Land statistics
(PID.TID 0000.0001) // =======================================================
(PID.TID 0000.0001) // =======================================================
(PID.TID 0000.0001) // Begin MONITOR Therm.SeaIce statistics
(PID.TID 0000.0001) // =======================================================
(PID.TID 0000.0001) %MON thSI_time_sec                =   1.1250000000000E+04
(PID.TID 0000.0001) %MON thSI_Ice_Area_G              =   1.7277961383670E+11
(PID.TID 0000.0001) %MON thSI_Ice_Area_S              =   0.0000000000000E+00
(PID.TID 0000.0001) %MON thSI_Ice_Area_N              =   1.7277961383670E+11
(PID.TID 0000.0001) %MON thSI_IceH_ave_G              =   1.3911655068153E-01
(PID.TID 0000.0001) %MON thSI_IceH_ave_S              =   0.0000000000000E+00
(PID.TID 0000.0001) %MON thSI_IceH_ave_N              =   1.3911655068153E-01
(PID.TID 0000.0001) %MON thSI_IceH_max_S              =   0.0000000000000E+00
(PID.TID 0000.0001) %MON thSI_IceH_max_N              =   1.4843357101814E-01
(PID.TID 0000.0001) %MON thSI_SnwH_ave_G              =   0.0000000000000E+00
(PID.TID 0000.0001) %MON thSI_SnwH_ave_S              =   0.0000000000000E+00
(PID.TID 0000.0001) %MON thSI_SnwH_ave_N              =   0.0000000000000E+00
(PID.TID 0000.0001) %MON thSI_SnwH_max_S              =   0.0000000000000E+00
(PID.TID 0000.0001) %MON thSI_SnwH_max_N              =   0.0000000000000E+00
(PID.TID 0000.0001) %MON thSI_TotEnerg_G              =  -7.4204224442946E+18
(PID.TID 0000.0001) %MON thSI_Tsrf_ave_G              =  -8.9818036892857E+00
(PID.TID 0000.0001) %MON thSI_Tsrf_ave_S              =   0.0000000000000E+00
(PID.TID 0000.0001) %MON thSI_Tsrf_ave_N              =  -8.9818036892857E+00
(PID.TID 0000.0001) %MON thSI_Tsrf_min_S              =   0.0000000000000E+00
(PID.TID 0000.0001) %MON thSI_Tsrf_min_N              =  -9.1092666580850E+00
(PID.TID 0000.0001) %MON thSI_Tsrf_max_S              =   0.0000000000000E+00
(PID.TID 0000.0001) %MON thSI_Tsrf_max_N              =  -8.7311966440885E+00
(PID.TID 0000.0001) %MON thSI_Tic1_ave_G              =  -6.6461554843885E+00
(PID.TID 0000.0001) %MON thSI_Tic1_ave_S              =   0.0000000000000E+00
(PID.TID 0000.0001) %MON thSI_Tic1_ave_N              =  -6.6461554843885E+00
(PID.TID 0000.0001) %MON thSI_Tic1_min_S              =   0.0000000000000E+00
(PID.TID 0000.0001) %MON thSI_Tic1_min_N              =  -6.6897435966027E+00
(PID.TID 0000.0001) %MON thSI_Tic1_max_S              =   0.0000000000000E+00
(PID.TID 0000.0001) %MON thSI_Tic1_max_N              =  -6.5946958266507E+00
(PID.TID 0000.0001) %MON thSI_Tic2_ave_G              =  -3.1612494219753E+00
(PID.TID 0000.0001) %MON thSI_Tic2_ave_S              =   0.0000000000000E+00
(PID.TID 0000.0001) %MON thSI_Tic2_ave_N              =  -3.1612494219753E+00
(PID.TID 0000.0001) %MON thSI_Tic2_min_S              =   0.0000000000000E+00
(PID.TID 0000.0001) %MON thSI_Tic2_min_N              =  -3.2259773064954E+00
(PID.TID 0000.0001) %MON thSI_Tic2_max_S              =   0.0000000000000E+00
(PID.TID 0000.0001) %MON thSI_Tic2_max_N              =  -3.0994479608421E+00
(PID.TID 0000.0001) // =======================================================
(PID.TID 0000.0001) // End MONITOR Therm.SeaIce statistics
(PID.TID 0000.0001) // =======================================================
 cg2d: Sum(rhs),rhsMax =   5.82076609134674E-10  2.23118335644922E+04
(PID.TID 0000.0001)                    cg2d_init_res =    1.14811329154595E+04
(PID.TID 0000.0001)                       cg2d_iters =    16
(PID.TID 0000.0001)                         cg2d_res =    6.94795505409630E-11
(PID.TID 0000.0001) // =======================================================
(PID.TID 0000.0001) // Begin MONITOR dynamic field statistics
(PID.TID 0000.0001) // =======================================================
(PID.TID 0000.0001) %MON time_tsnumber                =                    26
(PID.TID 0000.0001) %MON time_secondsf                =   1.1700000000000E+04
(PID.TID 0000.0001) %MON dynstat_eta_max              =   3.7313084074227E+03
(PID.TID 0000.0001) %MON dynstat_eta_min              =  -7.8797164249706E+02
(PID.TID 0000.0001) %MON dynstat_eta_mean             =  -8.6755092017484E-14
(PID.TID 0000.0001) %MON dynstat_eta_sd               =   5.1356553954365E+02
(PID.TID 0000.0001) %MON dynstat_eta_del2             =   3.6430164869355E+01
(PID.TID 0000.0001) %MON dynstat_uvel_max             =   5.5822343305939E+00
(PID.TID 0000.0001) %MON dynstat_uvel_min             =  -5.8099566610646E+00
(PID.TID 0000.0001) %MON dynstat_uvel_mean            =   1.4879748292641E-02
(PID.TID 0000.0001) %MON dynstat_uvel_sd              =   8.2726398760674E-01
(PID.TID 0000.0001) %MON dynstat_uvel_del2            =   2.5076181134718E-02
(PID.TID 0000.0001) %MON dynstat_vvel_max             =   5.1554956544110E+00
(PID.TID 0000.0001) %MON dynstat_vvel_min             =  -6.1529312663103E+00
(PID.TID 0000.0001) %MON dynstat_vvel_mean            =   2.6957125165201E-02
(PID.TID 0000.0001) %MON dynstat_vvel_sd              =   8.1596308320595E-01
(PID.TID 0000.0001) %MON dynstat_vvel_del2            =   2.4234628807122E-02
(PID.TID 0000.0001) %MON dynstat_wvel_max             =   2.4528189645474E-01
(PID.TID 0000.0001) %MON dynstat_wvel_min             =  -1.3851880248907E-01
(PID.TID 0000.0001) %MON dynstat_wvel_mean            =   5.4161598973124E-04
(PID.TID 0000.0001) %MON dynstat_wvel_sd              =   1.0617981086262E-02
(PID.TID 0000.0001) %MON dynstat_wvel_del2            =   1.8577371397207E-03
(PID.TID 0000.0001) %MON dynstat_theta_max            =   4.3804272681729E+02
(PID.TID 0000.0001) %MON dynstat_theta_min            =   2.8344113776591E+02
(PID.TID 0000.0001) %MON dynstat_theta_mean           =   3.3168336161544E+02
(PID.TID 0000.0001) %MON dynstat_theta_sd             =   4.7455135821544E+01
(PID.TID 0000.0001) %MON dynstat_theta_del2           =   2.6462169444639E-02
(PID.TID 0000.0001) %MON dynstat_salt_max             =   4.5617875598650E+00
(PID.TID 0000.0001) %MON dynstat_salt_min             =  -1.3764487929202E-02
(PID.TID 0000.0001) %MON dynstat_salt_mean            =   9.3899061812873E-02
(PID.TID 0000.0001) %MON dynstat_salt_sd              =   3.7030318004580E-01
(PID.TID 0000.0001) %MON dynstat_salt_del2            =   1.1291052492589E-02
(PID.TID 0000.0001) %MON advcfl_uvel_max              =   8.1364630426699E-03
(PID.TID 0000.0001) %MON advcfl_vvel_max              =   8.7706811637599E-03
(PID.TID 0000.0001) %MON advcfl_wvel_max              =   4.0137037601685E-03
(PID.TID 0000.0001) %MON advcfl_W_hf_max              =   1.6911944990645E-02
(PID.TID 0000.0001) %MON pe_b_mean                    =  -1.2179526672888E+00
(PID.TID 0000.0001) %MON ke_max                       =   1.8604076310997E+01
(PID.TID 0000.0001) %MON ke_mean                      =   6.7154392459348E-01
(PID.TID 0000.0001) %MON ke_vol                       =   4.9523908919847E+19
(PID.TID 0000.0001) %MON vort_r_min                   =  -2.2009503544180E-05
(PID.TID 0000.0001) %MON vort_r_max                   =   9.6439919753640E-06
(PID.TID 0000.0001) %MON vort_a_mean                  =   6.7242814765341E-08
(PID.TID 0000.0001) %MON vort_a_sd                    =   8.3994063510105E-05
(PID.TID 0000.0001) %MON vort_p_mean                  =   6.8939468640116E-08
(PID.TID 0000.0001) %MON vort_p_sd                    =   9.1785533842047E-05
(PID.TID 0000.0001) %MON surfExpan_theta_mean         =  -5.5017899994039E-02
(PID.TID 0000.0001) %MON surfExpan_salt_mean          =  -1.0655801330492E-03
(PID.TID 0000.0001) %MON surfExpan_Heat_mean          =   4.2820698341934E+00
(PID.TID 0000.0001) %MON En_Budget_T2PE_mean          =  -8.3333618251195E+00
(PID.TID 0000.0001) // =======================================================
(PID.TID 0000.0001) // End MONITOR dynamic field statistics
(PID.TID 0000.0001) // =======================================================
(PID.TID 0000.0001) // =======================================================
(PID.TID 0000.0001) // Begin MONITOR Land statistics
(PID.TID 0000.0001) // =======================================================
(PID.TID 0000.0001) %MON land_time_sec                =   1.1700000000000E+04
(PID.TID 0000.0001) %MON land_SnwH_ave_G              =   1.5322270507313E-01
(PID.TID 0000.0001) %MON land_SnwH_ave_S              =   5.5904031272899E-01
(PID.TID 0000.0001) %MON land_SnwH_ave_T              =   0.0000000000000E+00
(PID.TID 0000.0001) %MON land_SnwH_ave_N              =   1.2389556208039E-01
(PID.TID 0000.0001) %MON land_SnwH_max_S              =   9.9998585683125E-01
(PID.TID 0000.0001) %MON land_SnwH_max_T              =   0.0000000000000E+00
(PID.TID 0000.0001) %MON land_SnwH_max_N              =   9.9999827626021E-01
(PID.TID 0000.0001) %MON land_TotEnerg_G              =  -6.3529958696004E+21
(PID.TID 0000.0001) %MON land_TotEnerg_S              =  -5.0022965971597E+21
(PID.TID 0000.0001) %MON land_TotEnerg_T              =   7.2768434810132E+21
(PID.TID 0000.0001) %MON land_TotEnerg_N              =  -8.6275427534539E+21
(PID.TID 0000.0001) %MON land_Tsrf_ave_G              =  -8.4391130856307E+00
(PID.TID 0000.0001) %MON land_Tsrf_ave_S              =  -7.3505218604176E+00
(PID.TID 0000.0001) %MON land_Tsrf_ave_T              =   1.0197236911967E+01
(PID.TID 0000.0001) %MON land_Tsrf_ave_N              =  -2.1237051888919E+01
(PID.TID 0000.0001) %MON land_Tsrf_min_S              =  -3.3729837396967E+01
(PID.TID 0000.0001) %MON land_Tsrf_min_T              =  -3.4723424220839E+00
(PID.TID 0000.0001) %MON land_Tsrf_min_N              =  -5.2048382067832E+01
(PID.TID 0000.0001) %MON land_Tsrf_max_S              =   2.0313008971451E+01
(PID.TID 0000.0001) %MON land_Tsrf_max_T              =   2.0467232982261E+01
(PID.TID 0000.0001) %MON land_Tsrf_max_N              =   8.3615552379984E+00
(PID.TID 0000.0001) %MON land_Tgr1_ave_G              =  -7.2224755466582E+00
(PID.TID 0000.0001) %MON land_Tgr1_ave_S              =  -7.1908549370871E+00
(PID.TID 0000.0001) %MON land_Tgr1_ave_T              =   1.0197236911967E+01
(PID.TID 0000.0001) %MON land_Tgr1_ave_N              =  -1.8865104754627E+01
(PID.TID 0000.0001) %MON land_Tgr1_min_S              =  -3.9285307837224E+01
(PID.TID 0000.0001) %MON land_Tgr1_min_T              =  -3.4723424220839E+00
(PID.TID 0000.0001) %MON land_Tgr1_min_N              =  -5.4682310527321E+01
(PID.TID 0000.0001) %MON land_Tgr1_max_S              =   2.0313008971451E+01
(PID.TID 0000.0001) %MON land_Tgr1_max_T              =   2.0467232982261E+01
(PID.TID 0000.0001) %MON land_Tgr1_max_N              =   8.3615552379984E+00
(PID.TID 0000.0001) %MON land_Tgr2_ave_G              =   4.2035631505534E+00
(PID.TID 0000.0001) %MON land_Tgr2_ave_S              =  -1.8726457982311E+01
(PID.TID 0000.0001) %MON land_Tgr2_ave_T              =   2.2009234527712E+01
(PID.TID 0000.0001) %MON land_Tgr2_ave_N              =  -2.4818139859617E-01
(PID.TID 0000.0001) %MON land_Tgr2_min_S              =  -6.4751066697897E+01
(PID.TID 0000.0001) %MON land_Tgr2_min_T              =  -9.7036732115292E+00
(PID.TID 0000.0001) %MON land_Tgr2_min_N              =  -4.0199815456956E+01
(PID.TID 0000.0001) %MON land_Tgr2_max_S              =   2.3359960548563E+01
(PID.TID 0000.0001) %MON land_Tgr2_max_T              =   3.1351343582627E+01
(PID.TID 0000.0001) %MON land_Tgr2_max_N              =   2.9821111225952E+01
(PID.TID 0000.0001) %MON land_grdW_ave_G              =   4.8675063189789E-01
(PID.TID 0000.0001) %MON land_grdW_ave_S              =   3.0851712243466E-01
(PID.TID 0000.0001) %MON land_grdW_ave_T              =   5.6416429713331E-01
(PID.TID 0000.0001) %MON land_grdW_ave_N              =   4.9287392742660E-01
(PID.TID 0000.0001) %MON land_grdW_min_S              =   2.7595306847494E-02
(PID.TID 0000.0001) %MON land_grdW_min_T              =   0.0000000000000E+00
(PID.TID 0000.0001) %MON land_grdW_min_N              =   0.0000000000000E+00
(PID.TID 0000.0001) // =======================================================
(PID.TID 0000.0001) // End MONITOR Land statistics
(PID.TID 0000.0001) // =======================================================
(PID.TID 0000.0001) // =======================================================
(PID.TID 0000.0001) // Begin MONITOR Therm.SeaIce statistics
(PID.TID 0000.0001) // =======================================================
(PID.TID 0000.0001) %MON thSI_time_sec                =   1.1700000000000E+04
(PID.TID 0000.0001) %MON thSI_Ice_Area_G              =   1.7277961383670E+11
(PID.TID 0000.0001) %MON thSI_Ice_Area_S              =   0.0000000000000E+00
(PID.TID 0000.0001) %MON thSI_Ice_Area_N              =   1.7277961383670E+11
(PID.TID 0000.0001) %MON thSI_IceH_ave_G              =   1.3924475532645E-01
(PID.TID 0000.0001) %MON thSI_IceH_ave_S              =   0.0000000000000E+00
(PID.TID 0000.0001) %MON thSI_IceH_ave_N              =   1.3924475532645E-01
(PID.TID 0000.0001) %MON thSI_IceH_max_S              =   0.0000000000000E+00
(PID.TID 0000.0001) %MON thSI_IceH_max_N              =   1.4854946998476E-01
(PID.TID 0000.0001) %MON thSI_SnwH_ave_G              =   0.0000000000000E+00
(PID.TID 0000.0001) %MON thSI_SnwH_ave_S              =   0.0000000000000E+00
(PID.TID 0000.0001) %MON thSI_SnwH_ave_N              =   0.0000000000000E+00
(PID.TID 0000.0001) %MON thSI_SnwH_max_S              =   0.0000000000000E+00
(PID.TID 0000.0001) %MON thSI_SnwH_max_N              =   0.0000000000000E+00
(PID.TID 0000.0001) %MON thSI_TotEnerg_G              =  -7.4306566395982E+18
(PID.TID 0000.0001) %MON thSI_Tsrf_ave_G              =  -9.0512313997404E+00
(PID.TID 0000.0001) %MON thSI_Tsrf_ave_S              =   0.0000000000000E+00
(PID.TID 0000.0001) %MON thSI_Tsrf_ave_N              =  -9.0512313997404E+00
(PID.TID 0000.0001) %MON thSI_Tsrf_min_S              =   0.0000000000000E+00
(PID.TID 0000.0001) %MON thSI_Tsrf_min_N              =  -9.1848968744194E+00
(PID.TID 0000.0001) %MON thSI_Tsrf_max_S              =   0.0000000000000E+00
(PID.TID 0000.0001) %MON thSI_Tsrf_max_N              =  -8.7892938421466E+00
(PID.TID 0000.0001) %MON thSI_Tic1_ave_G              =  -6.7359891930822E+00
(PID.TID 0000.0001) %MON thSI_Tic1_ave_S              =   0.0000000000000E+00
(PID.TID 0000.0001) %MON thSI_Tic1_ave_N              =  -6.7359891930822E+00
(PID.TID 0000.0001) %MON thSI_Tic1_min_S              =   0.0000000000000E+00
(PID.TID 0000.0001) %MON thSI_Tic1_min_N              =  -6.7813286267835E+00
(PID.TID 0000.0001) %MON thSI_Tic1_max_S              =   0.0000000000000E+00
(PID.TID 0000.0001) %MON thSI_Tic1_max_N              =  -6.6831803758589E+00
(PID.TID 0000.0001) %MON thSI_Tic2_ave_G              =  -3.2034337283242E+00
(PID.TID 0000.0001) %MON thSI_Tic2_ave_S              =   0.0000000000000E+00
(PID.TID 0000.0001) %MON thSI_Tic2_ave_N              =  -3.2034337283242E+00
(PID.TID 0000.0001) %MON thSI_Tic2_min_S              =   0.0000000000000E+00
(PID.TID 0000.0001) %MON thSI_Tic2_min_N              =  -3.2639896284342E+00
(PID.TID 0000.0001) %MON thSI_Tic2_max_S              =   0.0000000000000E+00
(PID.TID 0000.0001) %MON thSI_Tic2_max_N              =  -3.1450976687045E+00
(PID.TID 0000.0001) // =======================================================
(PID.TID 0000.0001) // End MONITOR Therm.SeaIce statistics
(PID.TID 0000.0001) // =======================================================
 cg2d: Sum(rhs),rhsMax =   3.49245965480804E-10  2.14089102082591E+04
(PID.TID 0000.0001)                    cg2d_init_res =    1.13738067498788E+04
(PID.TID 0000.0001)                       cg2d_iters =    16
(PID.TID 0000.0001)                         cg2d_res =    6.96885115038795E-11
(PID.TID 0000.0001) // =======================================================
(PID.TID 0000.0001) // Begin MONITOR dynamic field statistics
(PID.TID 0000.0001) // =======================================================
(PID.TID 0000.0001) %MON time_tsnumber                =                    27
(PID.TID 0000.0001) %MON time_secondsf                =   1.2150000000000E+04
(PID.TID 0000.0001) %MON dynstat_eta_max              =   3.5594952846583E+03
(PID.TID 0000.0001) %MON dynstat_eta_min              =  -7.6400180587751E+02
(PID.TID 0000.0001) %MON dynstat_eta_mean             =   4.8197273343047E-14
(PID.TID 0000.0001) %MON dynstat_eta_sd               =   5.0270124370499E+02
(PID.TID 0000.0001) %MON dynstat_eta_del2             =   3.6340735494372E+01
(PID.TID 0000.0001) %MON dynstat_uvel_max             =   5.4533795704761E+00
(PID.TID 0000.0001) %MON dynstat_uvel_min             =  -5.7581460807652E+00
(PID.TID 0000.0001) %MON dynstat_uvel_mean            =   2.0352239310289E-02
(PID.TID 0000.0001) %MON dynstat_uvel_sd              =   8.2165067135652E-01
(PID.TID 0000.0001) %MON dynstat_uvel_del2            =   2.5582425003386E-02
(PID.TID 0000.0001) %MON dynstat_vvel_max             =   5.2037598304938E+00
(PID.TID 0000.0001) %MON dynstat_vvel_min             =  -6.0544886870086E+00
(PID.TID 0000.0001) %MON dynstat_vvel_mean            =   2.6147432301525E-02
(PID.TID 0000.0001) %MON dynstat_vvel_sd              =   8.1806571060488E-01
(PID.TID 0000.0001) %MON dynstat_vvel_del2            =   2.4922920906972E-02
(PID.TID 0000.0001) %MON dynstat_wvel_max             =   2.4765009408182E-01
(PID.TID 0000.0001) %MON dynstat_wvel_min             =  -1.3362229010628E-01
(PID.TID 0000.0001) %MON dynstat_wvel_mean            =   5.7075703641843E-04
(PID.TID 0000.0001) %MON dynstat_wvel_sd              =   1.0600638186689E-02
(PID.TID 0000.0001) %MON dynstat_wvel_del2            =   1.9078574187510E-03
(PID.TID 0000.0001) %MON dynstat_theta_max            =   4.3807716250604E+02
(PID.TID 0000.0001) %MON dynstat_theta_min            =   2.8322268260757E+02
(PID.TID 0000.0001) %MON dynstat_theta_mean           =   3.3168125888811E+02
(PID.TID 0000.0001) %MON dynstat_theta_sd             =   4.7457184967842E+01
(PID.TID 0000.0001) %MON dynstat_theta_del2           =   2.7378797148532E-02
(PID.TID 0000.0001) %MON dynstat_salt_max             =   4.6112106974104E+00
(PID.TID 0000.0001) %MON dynstat_salt_min             =  -1.5764604123401E-02
(PID.TID 0000.0001) %MON dynstat_salt_mean            =   9.7258131138877E-02
(PID.TID 0000.0001) %MON dynstat_salt_sd              =   3.8212323665216E-01
(PID.TID 0000.0001) %MON dynstat_salt_del2            =   1.1614370310494E-02
(PID.TID 0000.0001) %MON advcfl_uvel_max              =   8.0397461143422E-03
(PID.TID 0000.0001) %MON advcfl_vvel_max              =   8.6303564244408E-03
(PID.TID 0000.0001) %MON advcfl_wvel_max              =   4.0524560849753E-03
(PID.TID 0000.0001) %MON advcfl_W_hf_max              =   1.6989101476479E-02
(PID.TID 0000.0001) %MON pe_b_mean                    =  -1.2225572734999E+00
(PID.TID 0000.0001) %MON ke_max                       =   1.8303362932988E+01
(PID.TID 0000.0001) %MON ke_mean                      =   6.6872246479426E-01
(PID.TID 0000.0001) %MON ke_vol                       =   4.9523908919847E+19
(PID.TID 0000.0001) %MON vort_r_min                   =  -2.1197552921928E-05
(PID.TID 0000.0001) %MON vort_r_max                   =   1.0134829384869E-05
(PID.TID 0000.0001) %MON vort_a_mean                  =   6.7242814765271E-08
(PID.TID 0000.0001) %MON vort_a_sd                    =   8.3996536793239E-05
(PID.TID 0000.0001) %MON vort_p_mean                  =   6.8939469925008E-08
(PID.TID 0000.0001) %MON vort_p_sd                    =   9.1766589470179E-05
(PID.TID 0000.0001) %MON surfExpan_theta_mean         =  -5.7517644139264E-02
(PID.TID 0000.0001) %MON surfExpan_salt_mean          =  -1.1651166209681E-03
(PID.TID 0000.0001) %MON surfExpan_Heat_mean          =   4.5073904212410E+00
(PID.TID 0000.0001) %MON En_Budget_T2PE_mean          =  -8.7477404998060E+00
(PID.TID 0000.0001) // =======================================================
(PID.TID 0000.0001) // End MONITOR dynamic field statistics
(PID.TID 0000.0001) // =======================================================
(PID.TID 0000.0001) // =======================================================
(PID.TID 0000.0001) // Begin MONITOR Land statistics
(PID.TID 0000.0001) // =======================================================
(PID.TID 0000.0001) %MON land_time_sec                =   1.2150000000000E+04
(PID.TID 0000.0001) %MON land_SnwH_ave_G              =   1.5322175222567E-01
(PID.TID 0000.0001) %MON land_SnwH_ave_S              =   5.5903943600627E-01
(PID.TID 0000.0001) %MON land_SnwH_ave_T              =   0.0000000000000E+00
(PID.TID 0000.0001) %MON land_SnwH_ave_N              =   1.2389394825503E-01
(PID.TID 0000.0001) %MON land_SnwH_max_S              =   9.9998529820688E-01
(PID.TID 0000.0001) %MON land_SnwH_max_T              =   0.0000000000000E+00
(PID.TID 0000.0001) %MON land_SnwH_max_N              =   9.9999821262060E-01
(PID.TID 0000.0001) %MON land_TotEnerg_G              =  -6.3542920290650E+21
(PID.TID 0000.0001) %MON land_TotEnerg_S              =  -5.0023443672891E+21
(PID.TID 0000.0001) %MON land_TotEnerg_T              =   7.2761773628339E+21
(PID.TID 0000.0001) %MON land_TotEnerg_N              =  -8.6281250246098E+21
(PID.TID 0000.0001) %MON land_Tsrf_ave_G              =  -8.4720757435336E+00
(PID.TID 0000.0001) %MON land_Tsrf_ave_S              =  -7.3556649890803E+00
(PID.TID 0000.0001) %MON land_Tsrf_ave_T              =   1.0123562998405E+01
(PID.TID 0000.0001) %MON land_Tsrf_ave_N              =  -2.1251853253368E+01
(PID.TID 0000.0001) %MON land_Tsrf_min_S              =  -3.3712652216797E+01
(PID.TID 0000.0001) %MON land_Tsrf_min_T              =  -3.3620197341173E+00
(PID.TID 0000.0001) %MON land_Tsrf_min_N              =  -5.2044093385404E+01
(PID.TID 0000.0001) %MON land_Tsrf_max_S              =   2.0243894659607E+01
(PID.TID 0000.0001) %MON land_Tsrf_max_T              =   2.0345890601598E+01
(PID.TID 0000.0001) %MON land_Tsrf_max_N              =   8.2514494443048E+00
(PID.TID 0000.0001) %MON land_Tgr1_ave_G              =  -7.2609609144878E+00
(PID.TID 0000.0001) %MON land_Tgr1_ave_S              =  -7.2110496773555E+00
(PID.TID 0000.0001) %MON land_Tgr1_ave_T              =   1.0123562998405E+01
(PID.TID 0000.0001) %MON land_Tgr1_ave_N              =  -1.8886025614628E+01
(PID.TID 0000.0001) %MON land_Tgr1_min_S              =  -3.9296226666290E+01
(PID.TID 0000.0001) %MON land_Tgr1_min_T              =  -3.3620197341173E+00
(PID.TID 0000.0001) %MON land_Tgr1_min_N              =  -5.4669863081566E+01
(PID.TID 0000.0001) %MON land_Tgr1_max_S              =   2.0243894659607E+01
(PID.TID 0000.0001) %MON land_Tgr1_max_T              =   2.0345890601598E+01
(PID.TID 0000.0001) %MON land_Tgr1_max_N              =   8.2514494443048E+00
(PID.TID 0000.0001) %MON land_Tgr2_ave_G              =   4.2033874248186E+00
(PID.TID 0000.0001) %MON land_Tgr2_ave_S              =  -1.8726264926089E+01
(PID.TID 0000.0001) %MON land_Tgr2_ave_T              =   2.2009042642212E+01
(PID.TID 0000.0001) %MON land_Tgr2_ave_N              =  -2.4846596393497E-01
(PID.TID 0000.0001) %MON land_Tgr2_min_S              =  -6.4750637652976E+01
(PID.TID 0000.0001) %MON land_Tgr2_min_T              =  -9.7035930851262E+00
(PID.TID 0000.0001) %MON land_Tgr2_min_N              =  -4.0200050510015E+01
(PID.TID 0000.0001) %MON land_Tgr2_max_S              =   2.3359893513367E+01
(PID.TID 0000.0001) %MON land_Tgr2_max_T              =   3.1350908204286E+01
(PID.TID 0000.0001) %MON land_Tgr2_max_N              =   2.9820575083196E+01
(PID.TID 0000.0001) %MON land_grdW_ave_G              =   4.8674303462539E-01
(PID.TID 0000.0001) %MON land_grdW_ave_S              =   3.0850950020689E-01
(PID.TID 0000.0001) %MON land_grdW_ave_T              =   5.6414577051029E-01
(PID.TID 0000.0001) %MON land_grdW_ave_N              =   4.9287363654830E-01
(PID.TID 0000.0001) %MON land_grdW_min_S              =   2.7682264758862E-02
(PID.TID 0000.0001) %MON land_grdW_min_T              =   0.0000000000000E+00
(PID.TID 0000.0001) %MON land_grdW_min_N              =   0.0000000000000E+00
(PID.TID 0000.0001) // =======================================================
(PID.TID 0000.0001) // End MONITOR Land statistics
(PID.TID 0000.0001) // =======================================================
(PID.TID 0000.0001) // =======================================================
(PID.TID 0000.0001) // Begin MONITOR Therm.SeaIce statistics
(PID.TID 0000.0001) // =======================================================
(PID.TID 0000.0001) %MON thSI_time_sec                =   1.2150000000000E+04
(PID.TID 0000.0001) %MON thSI_Ice_Area_G              =   1.7277961383670E+11
(PID.TID 0000.0001) %MON thSI_Ice_Area_S              =   0.0000000000000E+00
(PID.TID 0000.0001) %MON thSI_Ice_Area_N              =   1.7277961383670E+11
(PID.TID 0000.0001) %MON thSI_IceH_ave_G              =   1.3937616624105E-01
(PID.TID 0000.0001) %MON thSI_IceH_ave_S              =   0.0000000000000E+00
(PID.TID 0000.0001) %MON thSI_IceH_ave_N              =   1.3937616624105E-01
(PID.TID 0000.0001) %MON thSI_IceH_max_S              =   0.0000000000000E+00
(PID.TID 0000.0001) %MON thSI_IceH_max_N              =   1.4866871293383E-01
(PID.TID 0000.0001) %MON thSI_SnwH_ave_G              =   0.0000000000000E+00
(PID.TID 0000.0001) %MON thSI_SnwH_ave_S              =   0.0000000000000E+00
(PID.TID 0000.0001) %MON thSI_SnwH_ave_N              =   0.0000000000000E+00
(PID.TID 0000.0001) %MON thSI_SnwH_max_S              =   0.0000000000000E+00
(PID.TID 0000.0001) %MON thSI_SnwH_max_N              =   0.0000000000000E+00
(PID.TID 0000.0001) %MON thSI_TotEnerg_G              =  -7.4407952726660E+18
(PID.TID 0000.0001) %MON thSI_Tsrf_ave_G              =  -9.1147833644324E+00
(PID.TID 0000.0001) %MON thSI_Tsrf_ave_S              =   0.0000000000000E+00
(PID.TID 0000.0001) %MON thSI_Tsrf_ave_N              =  -9.1147833644324E+00
(PID.TID 0000.0001) %MON thSI_Tsrf_min_S              =   0.0000000000000E+00
(PID.TID 0000.0001) %MON thSI_Tsrf_min_N              =  -9.2549858682513E+00
(PID.TID 0000.0001) %MON thSI_Tsrf_max_S              =   0.0000000000000E+00
(PID.TID 0000.0001) %MON thSI_Tsrf_max_N              =  -8.8412342772520E+00
(PID.TID 0000.0001) %MON thSI_Tic1_ave_G              =  -6.8190458286444E+00
(PID.TID 0000.0001) %MON thSI_Tic1_ave_S              =   0.0000000000000E+00
(PID.TID 0000.0001) %MON thSI_Tic1_ave_N              =  -6.8190458286444E+00
(PID.TID 0000.0001) %MON thSI_Tic1_min_S              =   0.0000000000000E+00
(PID.TID 0000.0001) %MON thSI_Tic1_min_N              =  -6.8662638771679E+00
(PID.TID 0000.0001) %MON thSI_Tic1_max_S              =   0.0000000000000E+00
(PID.TID 0000.0001) %MON thSI_Tic1_max_N              =  -6.7516988935501E+00
(PID.TID 0000.0001) %MON thSI_Tic2_ave_G              =  -3.2421187859559E+00
(PID.TID 0000.0001) %MON thSI_Tic2_ave_S              =   0.0000000000000E+00
(PID.TID 0000.0001) %MON thSI_Tic2_ave_N              =  -3.2421187859559E+00
(PID.TID 0000.0001) %MON thSI_Tic2_min_S              =   0.0000000000000E+00
(PID.TID 0000.0001) %MON thSI_Tic2_min_N              =  -3.2983174663979E+00
(PID.TID 0000.0001) %MON thSI_Tic2_max_S              =   0.0000000000000E+00
(PID.TID 0000.0001) %MON thSI_Tic2_max_N              =  -3.1874384281850E+00
(PID.TID 0000.0001) // =======================================================
(PID.TID 0000.0001) // End MONITOR Therm.SeaIce statistics
(PID.TID 0000.0001) // =======================================================
 cg2d: Sum(rhs),rhsMax =   1.04773789644241E-09  2.05830655096788E+04
(PID.TID 0000.0001)                    cg2d_init_res =    1.12616693797763E+04
(PID.TID 0000.0001)                       cg2d_iters =    16
(PID.TID 0000.0001)                         cg2d_res =    6.86773083111151E-11
(PID.TID 0000.0001) // =======================================================
(PID.TID 0000.0001) // Begin MONITOR dynamic field statistics
(PID.TID 0000.0001) // =======================================================
(PID.TID 0000.0001) %MON time_tsnumber                =                    28
(PID.TID 0000.0001) %MON time_secondsf                =   1.2600000000000E+04
(PID.TID 0000.0001) %MON dynstat_eta_max              =   3.3949296089657E+03
(PID.TID 0000.0001) %MON dynstat_eta_min              =  -7.6195723213768E+02
(PID.TID 0000.0001) %MON dynstat_eta_mean             =   2.5705212449625E-14
(PID.TID 0000.0001) %MON dynstat_eta_sd               =   4.9181746368220E+02
(PID.TID 0000.0001) %MON dynstat_eta_del2             =   3.6263911339116E+01
(PID.TID 0000.0001) %MON dynstat_uvel_max             =   5.3100298996455E+00
(PID.TID 0000.0001) %MON dynstat_uvel_min             =  -5.6802494068100E+00
(PID.TID 0000.0001) %MON dynstat_uvel_mean            =   2.6289965682592E-02
(PID.TID 0000.0001) %MON dynstat_uvel_sd              =   8.1489640089218E-01
(PID.TID 0000.0001) %MON dynstat_uvel_del2            =   2.6106596850323E-02
(PID.TID 0000.0001) %MON dynstat_vvel_max             =   5.2153974592949E+00
(PID.TID 0000.0001) %MON dynstat_vvel_min             =  -5.9367094023653E+00
(PID.TID 0000.0001) %MON dynstat_vvel_mean            =   2.5278038065020E-02
(PID.TID 0000.0001) %MON dynstat_vvel_sd              =   8.1900070214248E-01
(PID.TID 0000.0001) %MON dynstat_vvel_del2            =   2.5613729712490E-02
(PID.TID 0000.0001) %MON dynstat_wvel_max             =   2.4433822258398E-01
(PID.TID 0000.0001) %MON dynstat_wvel_min             =  -1.2589699197526E-01
(PID.TID 0000.0001) %MON dynstat_wvel_mean            =   5.8258728731285E-04
(PID.TID 0000.0001) %MON dynstat_wvel_sd              =   1.0530598016551E-02
(PID.TID 0000.0001) %MON dynstat_wvel_del2            =   1.9533020623992E-03
(PID.TID 0000.0001) %MON dynstat_theta_max            =   4.3811823630311E+02
(PID.TID 0000.0001) %MON dynstat_theta_min            =   2.8300551060024E+02
(PID.TID 0000.0001) %MON dynstat_theta_mean           =   3.3167912129530E+02
(PID.TID 0000.0001) %MON dynstat_theta_sd             =   4.7459241036720E+01
(PID.TID 0000.0001) %MON dynstat_theta_del2           =   2.8290150530114E-02
(PID.TID 0000.0001) %MON dynstat_salt_max             =   4.6578247303784E+00
(PID.TID 0000.0001) %MON dynstat_salt_min             =  -1.7827775490232E-02
(PID.TID 0000.0001) %MON dynstat_salt_mean            =   1.0060614498287E-01
(PID.TID 0000.0001) %MON dynstat_salt_sd              =   3.9383758880439E-01
(PID.TID 0000.0001) %MON dynstat_salt_del2            =   1.1935097503111E-02
(PID.TID 0000.0001) %MON advcfl_uvel_max              =   7.9309837674050E-03
(PID.TID 0000.0001) %MON advcfl_vvel_max              =   8.4874523160623E-03
(PID.TID 0000.0001) %MON advcfl_wvel_max              =   3.9982618241015E-03
(PID.TID 0000.0001) %MON advcfl_W_hf_max              =   1.7820523153636E-02
(PID.TID 0000.0001) %MON pe_b_mean                    =  -1.2251526588996E+00
(PID.TID 0000.0001) %MON ke_max                       =   1.7681475522459E+01
(PID.TID 0000.0001) %MON ke_mean                      =   6.6410106453358E-01
(PID.TID 0000.0001) %MON ke_vol                       =   4.9523908919847E+19
(PID.TID 0000.0001) %MON vort_r_min                   =  -2.0636067317380E-05
(PID.TID 0000.0001) %MON vort_r_max                   =   1.0637193794522E-05
(PID.TID 0000.0001) %MON vort_a_mean                  =   6.7242814765368E-08
(PID.TID 0000.0001) %MON vort_a_sd                    =   8.3998957183205E-05
(PID.TID 0000.0001) %MON vort_p_mean                  =   6.8939471352931E-08
(PID.TID 0000.0001) %MON vort_p_sd                    =   9.1748134335735E-05
(PID.TID 0000.0001) %MON surfExpan_theta_mean         =  -5.8319148675543E-02
(PID.TID 0000.0001) %MON surfExpan_salt_mean          =  -1.2637072123670E-03
(PID.TID 0000.0001) %MON surfExpan_Heat_mean          =   4.5913856556957E+00
(PID.TID 0000.0001) %MON En_Budget_T2PE_mean          =  -8.8961635592330E+00
(PID.TID 0000.0001) // =======================================================
(PID.TID 0000.0001) // End MONITOR dynamic field statistics
(PID.TID 0000.0001) // =======================================================
(PID.TID 0000.0001) // =======================================================
(PID.TID 0000.0001) // Begin MONITOR Land statistics
(PID.TID 0000.0001) // =======================================================
(PID.TID 0000.0001) %MON land_time_sec                =   1.2600000000000E+04
(PID.TID 0000.0001) %MON land_SnwH_ave_G              =   1.5322080156343E-01
(PID.TID 0000.0001) %MON land_SnwH_ave_S              =   5.5903856185528E-01
(PID.TID 0000.0001) %MON land_SnwH_ave_T              =   0.0000000000000E+00
(PID.TID 0000.0001) %MON land_SnwH_ave_N              =   1.2389233794871E-01
(PID.TID 0000.0001) %MON land_SnwH_max_S              =   9.9998473892274E-01
(PID.TID 0000.0001) %MON land_SnwH_max_T              =   0.0000000000000E+00
(PID.TID 0000.0001) %MON land_SnwH_max_N              =   9.9999814892782E-01
(PID.TID 0000.0001) %MON land_TotEnerg_G              =  -6.3555188538856E+21
(PID.TID 0000.0001) %MON land_TotEnerg_S              =  -5.0023833797049E+21
(PID.TID 0000.0001) %MON land_TotEnerg_T              =   7.2755614396007E+21
(PID.TID 0000.0001) %MON land_TotEnerg_N              =  -8.6286969137814E+21
(PID.TID 0000.0001) %MON land_Tsrf_ave_G              =  -8.5027592734020E+00
(PID.TID 0000.0001) %MON land_Tsrf_ave_S              =  -7.3621807232090E+00
(PID.TID 0000.0001) %MON land_Tsrf_ave_T              =   1.0055671104063E+01
(PID.TID 0000.0001) %MON land_Tsrf_ave_N              =  -2.1265530017402E+01
(PID.TID 0000.0001) %MON land_Tsrf_min_S              =  -3.3692411388528E+01
(PID.TID 0000.0001) %MON land_Tsrf_min_T              =  -3.2552165451920E+00
(PID.TID 0000.0001) %MON land_Tsrf_min_N              =  -5.2039781930759E+01
(PID.TID 0000.0001) %MON land_Tsrf_max_S              =   2.0184172713928E+01
(PID.TID 0000.0001) %MON land_Tsrf_max_T              =   2.0237771368741E+01
(PID.TID 0000.0001) %MON land_Tsrf_max_N              =   8.1483127136665E+00
(PID.TID 0000.0001) %MON land_Tgr1_ave_G              =  -7.2964170839698E+00
(PID.TID 0000.0001) %MON land_Tgr1_ave_S              =  -7.2286971009935E+00
(PID.TID 0000.0001) %MON land_Tgr1_ave_T              =   1.0055671104063E+01
(PID.TID 0000.0001) %MON land_Tgr1_ave_N              =  -1.8905599209609E+01
(PID.TID 0000.0001) %MON land_Tgr1_min_S              =  -3.9307106827096E+01
(PID.TID 0000.0001) %MON land_Tgr1_min_T              =  -3.2552165451920E+00
(PID.TID 0000.0001) %MON land_Tgr1_min_N              =  -5.4657431998801E+01
(PID.TID 0000.0001) %MON land_Tgr1_max_S              =   2.0184172713928E+01
(PID.TID 0000.0001) %MON land_Tgr1_max_T              =   2.0237771368741E+01
(PID.TID 0000.0001) %MON land_Tgr1_max_N              =   8.1483127136665E+00
(PID.TID 0000.0001) %MON land_Tgr2_ave_G              =   4.2032112054385E+00
(PID.TID 0000.0001) %MON land_Tgr2_ave_S              =  -1.8726072151931E+01
(PID.TID 0000.0001) %MON land_Tgr2_ave_T              =   2.2008849843901E+01
(PID.TID 0000.0001) %MON land_Tgr2_ave_N              =  -2.4875081164745E-01
(PID.TID 0000.0001) %MON land_Tgr2_min_S              =  -6.4750208814633E+01
(PID.TID 0000.0001) %MON land_Tgr2_min_T              =  -9.7035116105474E+00
(PID.TID 0000.0001) %MON land_Tgr2_min_N              =  -4.0200285329192E+01
(PID.TID 0000.0001) %MON land_Tgr2_max_S              =   2.3359825098367E+01
(PID.TID 0000.0001) %MON land_Tgr2_max_T              =   3.1350470532039E+01
(PID.TID 0000.0001) %MON land_Tgr2_max_N              =   2.9820034476220E+01
(PID.TID 0000.0001) %MON land_grdW_ave_G              =   4.8673552398762E-01
(PID.TID 0000.0001) %MON land_grdW_ave_S              =   3.0850193349674E-01
(PID.TID 0000.0001) %MON land_grdW_ave_T              =   5.6412747394796E-01
(PID.TID 0000.0001) %MON land_grdW_ave_N              =   4.9287334662328E-01
(PID.TID 0000.0001) %MON land_grdW_min_S              =   2.7769070869646E-02
(PID.TID 0000.0001) %MON land_grdW_min_T              =   0.0000000000000E+00
(PID.TID 0000.0001) %MON land_grdW_min_N              =   0.0000000000000E+00
(PID.TID 0000.0001) // =======================================================
(PID.TID 0000.0001) // End MONITOR Land statistics
(PID.TID 0000.0001) // =======================================================
(PID.TID 0000.0001) // =======================================================
(PID.TID 0000.0001) // Begin MONITOR Therm.SeaIce statistics
(PID.TID 0000.0001) // =======================================================
(PID.TID 0000.0001) %MON thSI_time_sec                =   1.2600000000000E+04
(PID.TID 0000.0001) %MON thSI_Ice_Area_G              =   1.7277961383670E+11
(PID.TID 0000.0001) %MON thSI_Ice_Area_S              =   0.0000000000000E+00
(PID.TID 0000.0001) %MON thSI_Ice_Area_N              =   1.7277961383670E+11
(PID.TID 0000.0001) %MON thSI_IceH_ave_G              =   1.3951049791193E-01
(PID.TID 0000.0001) %MON thSI_IceH_ave_S              =   0.0000000000000E+00
(PID.TID 0000.0001) %MON thSI_IceH_ave_N              =   1.3951049791193E-01
(PID.TID 0000.0001) %MON thSI_IceH_max_S              =   0.0000000000000E+00
(PID.TID 0000.0001) %MON thSI_IceH_max_N              =   1.4879104455585E-01
(PID.TID 0000.0001) %MON thSI_SnwH_ave_G              =   0.0000000000000E+00
(PID.TID 0000.0001) %MON thSI_SnwH_ave_S              =   0.0000000000000E+00
(PID.TID 0000.0001) %MON thSI_SnwH_ave_N              =   0.0000000000000E+00
(PID.TID 0000.0001) %MON thSI_SnwH_max_S              =   0.0000000000000E+00
(PID.TID 0000.0001) %MON thSI_SnwH_max_N              =   0.0000000000000E+00
(PID.TID 0000.0001) %MON thSI_TotEnerg_G              =  -7.4508420119011E+18
(PID.TID 0000.0001) %MON thSI_Tsrf_ave_G              =  -9.1727392923103E+00
(PID.TID 0000.0001) %MON thSI_Tsrf_ave_S              =   0.0000000000000E+00
(PID.TID 0000.0001) %MON thSI_Tsrf_ave_N              =  -9.1727392923103E+00
(PID.TID 0000.0001) %MON thSI_Tsrf_min_S              =   0.0000000000000E+00
(PID.TID 0000.0001) %MON thSI_Tsrf_min_N              =  -9.3197847269218E+00
(PID.TID 0000.0001) %MON thSI_Tsrf_max_S              =   0.0000000000000E+00
(PID.TID 0000.0001) %MON thSI_Tsrf_max_N              =  -8.8874418874281E+00
(PID.TID 0000.0001) %MON thSI_Tic1_ave_G              =  -6.8956777980196E+00
(PID.TID 0000.0001) %MON thSI_Tic1_ave_S              =   0.0000000000000E+00
(PID.TID 0000.0001) %MON thSI_Tic1_ave_N              =  -6.8956777980196E+00
(PID.TID 0000.0001) %MON thSI_Tic1_min_S              =   0.0000000000000E+00
(PID.TID 0000.0001) %MON thSI_Tic1_min_N              =  -6.9450321334530E+00
(PID.TID 0000.0001) %MON thSI_Tic1_max_S              =   0.0000000000000E+00
(PID.TID 0000.0001) %MON thSI_Tic1_max_N              =  -6.8135852971841E+00
(PID.TID 0000.0001) %MON thSI_Tic2_ave_G              =  -3.2776342224371E+00
(PID.TID 0000.0001) %MON thSI_Tic2_ave_S              =   0.0000000000000E+00
(PID.TID 0000.0001) %MON thSI_Tic2_ave_N              =  -3.2776342224371E+00
(PID.TID 0000.0001) %MON thSI_Tic2_min_S              =   0.0000000000000E+00
(PID.TID 0000.0001) %MON thSI_Tic2_min_N              =  -3.3293676085413E+00
(PID.TID 0000.0001) %MON thSI_Tic2_max_S              =   0.0000000000000E+00
(PID.TID 0000.0001) %MON thSI_Tic2_max_N              =  -3.2267334248811E+00
(PID.TID 0000.0001) // =======================================================
(PID.TID 0000.0001) // End MONITOR Therm.SeaIce statistics
(PID.TID 0000.0001) // =======================================================
 cg2d: Sum(rhs),rhsMax =  -8.14907252788544E-10  1.98520903733135E+04
(PID.TID 0000.0001)                    cg2d_init_res =    1.11383593322941E+04
(PID.TID 0000.0001)                       cg2d_iters =    16
(PID.TID 0000.0001)                         cg2d_res =    6.67578396254842E-11
(PID.TID 0000.0001) // =======================================================
(PID.TID 0000.0001) // Begin MONITOR dynamic field statistics
(PID.TID 0000.0001) // =======================================================
(PID.TID 0000.0001) %MON time_tsnumber                =                    29
(PID.TID 0000.0001) %MON time_secondsf                =   1.3050000000000E+04
(PID.TID 0000.0001) %MON dynstat_eta_max              =   3.3056678438935E+03
(PID.TID 0000.0001) %MON dynstat_eta_min              =  -7.6030321304564E+02
(PID.TID 0000.0001) %MON dynstat_eta_mean             =  -5.4623576455453E-14
(PID.TID 0000.0001) %MON dynstat_eta_sd               =   4.8120794693271E+02
(PID.TID 0000.0001) %MON dynstat_eta_del2             =   3.6198223015225E+01
(PID.TID 0000.0001) %MON dynstat_uvel_max             =   5.1565164705694E+00
(PID.TID 0000.0001) %MON dynstat_uvel_min             =  -5.5360786328152E+00
(PID.TID 0000.0001) %MON dynstat_uvel_mean            =   3.2622933379721E-02
(PID.TID 0000.0001) %MON dynstat_uvel_sd              =   8.0730573387346E-01
(PID.TID 0000.0001) %MON dynstat_uvel_del2            =   2.6641798947816E-02
(PID.TID 0000.0001) %MON dynstat_vvel_max             =   5.1885170586732E+00
(PID.TID 0000.0001) %MON dynstat_vvel_min             =  -5.8073950140909E+00
(PID.TID 0000.0001) %MON dynstat_vvel_mean            =   2.4414869010521E-02
(PID.TID 0000.0001) %MON dynstat_vvel_sd              =   8.1851067333141E-01
(PID.TID 0000.0001) %MON dynstat_vvel_del2            =   2.6304282750190E-02
(PID.TID 0000.0001) %MON dynstat_wvel_max             =   2.3559068591626E-01
(PID.TID 0000.0001) %MON dynstat_wvel_min             =  -1.1586411785776E-01
(PID.TID 0000.0001) %MON dynstat_wvel_mean            =   5.7909138920041E-04
(PID.TID 0000.0001) %MON dynstat_wvel_sd              =   1.0417931063606E-02
(PID.TID 0000.0001) %MON dynstat_wvel_del2            =   1.9923500062784E-03
(PID.TID 0000.0001) %MON dynstat_theta_max            =   4.3813562534763E+02
(PID.TID 0000.0001) %MON dynstat_theta_min            =   2.8278953008899E+02
(PID.TID 0000.0001) %MON dynstat_theta_mean           =   3.3167695128251E+02
(PID.TID 0000.0001) %MON dynstat_theta_sd             =   4.7461304006838E+01
(PID.TID 0000.0001) %MON dynstat_theta_del2           =   2.9207894883160E-02
(PID.TID 0000.0001) %MON dynstat_salt_max             =   4.7006719315824E+00
(PID.TID 0000.0001) %MON dynstat_salt_min             =  -1.9953538043479E-02
(PID.TID 0000.0001) %MON dynstat_salt_mean            =   1.0394339596083E-01
(PID.TID 0000.0001) %MON dynstat_salt_sd              =   4.0544802813022E-01
(PID.TID 0000.0001) %MON dynstat_salt_del2            =   1.2252278594344E-02
(PID.TID 0000.0001) %MON advcfl_uvel_max              =   7.7296869604520E-03
(PID.TID 0000.0001) %MON advcfl_vvel_max              =   8.3025772228293E-03
(PID.TID 0000.0001) %MON advcfl_wvel_max              =   3.8551203149933E-03
(PID.TID 0000.0001) %MON advcfl_W_hf_max              =   1.8444843270635E-02
(PID.TID 0000.0001) %MON pe_b_mean                    =  -1.2257892577219E+00
(PID.TID 0000.0001) %MON ke_max                       =   1.6806618404894E+01
(PID.TID 0000.0001) %MON ke_mean                      =   6.5774216082391E-01
(PID.TID 0000.0001) %MON ke_vol                       =   4.9523908919847E+19
(PID.TID 0000.0001) %MON vort_r_min                   =  -2.0434252529522E-05
(PID.TID 0000.0001) %MON vort_r_max                   =   1.1155158388399E-05
(PID.TID 0000.0001) %MON vort_a_mean                  =   6.7242814765350E-08
(PID.TID 0000.0001) %MON vort_a_sd                    =   8.4001321982775E-05
(PID.TID 0000.0001) %MON vort_p_mean                  =   6.8939472889296E-08
(PID.TID 0000.0001) %MON vort_p_sd                    =   9.1730445081224E-05
(PID.TID 0000.0001) %MON surfExpan_theta_mean         =  -5.7630239797468E-02
(PID.TID 0000.0001) %MON surfExpan_salt_mean          =  -1.3595414656113E-03
(PID.TID 0000.0001) %MON surfExpan_Heat_mean          =   4.5505923898951E+00
(PID.TID 0000.0001) %MON En_Budget_T2PE_mean          =  -8.8102639845075E+00
(PID.TID 0000.0001) // =======================================================
(PID.TID 0000.0001) // End MONITOR dynamic field statistics
(PID.TID 0000.0001) // =======================================================
(PID.TID 0000.0001) // =======================================================
(PID.TID 0000.0001) // Begin MONITOR Land statistics
(PID.TID 0000.0001) // =======================================================
(PID.TID 0000.0001) %MON land_time_sec                =   1.3050000000000E+04
(PID.TID 0000.0001) %MON land_SnwH_ave_G              =   1.5321985321160E-01
(PID.TID 0000.0001) %MON land_SnwH_ave_S              =   5.5903769139830E-01
(PID.TID 0000.0001) %MON land_SnwH_ave_T              =   0.0000000000000E+00
(PID.TID 0000.0001) %MON land_SnwH_ave_N              =   1.2389073104680E-01
(PID.TID 0000.0001) %MON land_SnwH_max_S              =   9.9998417871914E-01
(PID.TID 0000.0001) %MON land_SnwH_max_T              =   0.0000000000000E+00
(PID.TID 0000.0001) %MON land_SnwH_max_N              =   9.9999808518630E-01
(PID.TID 0000.0001) %MON land_TotEnerg_G              =  -6.3566826367373E+21
(PID.TID 0000.0001) %MON land_TotEnerg_S              =  -5.0024146894377E+21
(PID.TID 0000.0001) %MON land_TotEnerg_T              =   7.2749908403261E+21
(PID.TID 0000.0001) %MON land_TotEnerg_N              =  -8.6292587876257E+21
(PID.TID 0000.0001) %MON land_Tsrf_ave_G              =  -8.5314015269673E+00
(PID.TID 0000.0001) %MON land_Tsrf_ave_S              =  -7.3696361508148E+00
(PID.TID 0000.0001) %MON land_Tsrf_ave_T              =   9.9934538692700E+00
(PID.TID 0000.0001) %MON land_Tsrf_ave_N              =  -2.1278624763174E+01
(PID.TID 0000.0001) %MON land_Tsrf_min_S              =  -3.3669458483378E+01
(PID.TID 0000.0001) %MON land_Tsrf_min_T              =  -3.1518851485388E+00
(PID.TID 0000.0001) %MON land_Tsrf_min_N              =  -5.2035553813160E+01
(PID.TID 0000.0001) %MON land_Tsrf_max_S              =   2.0132925793599E+01
(PID.TID 0000.0001) %MON land_Tsrf_max_T              =   2.0141674109083E+01
(PID.TID 0000.0001) %MON land_Tsrf_max_N              =   8.0518409049369E+00
(PID.TID 0000.0001) %MON land_Tgr1_ave_G              =  -7.3291729879504E+00
(PID.TID 0000.0001) %MON land_Tgr1_ave_S              =  -7.2440999885177E+00
(PID.TID 0000.0001) %MON land_Tgr1_ave_T              =   9.9934538692700E+00
(PID.TID 0000.0001) %MON land_Tgr1_ave_N              =  -1.8924310916120E+01
(PID.TID 0000.0001) %MON land_Tgr1_min_S              =  -3.9317947335220E+01
(PID.TID 0000.0001) %MON land_Tgr1_min_T              =  -3.1518851485388E+00
(PID.TID 0000.0001) %MON land_Tgr1_min_N              =  -5.4645017333219E+01
(PID.TID 0000.0001) %MON land_Tgr1_max_S              =   2.0132925793599E+01
(PID.TID 0000.0001) %MON land_Tgr1_max_T              =   2.0141674109083E+01
(PID.TID 0000.0001) %MON land_Tgr1_max_N              =   8.0518409049369E+00
(PID.TID 0000.0001) %MON land_Tgr2_ave_G              =   4.2030345217992E+00
(PID.TID 0000.0001) %MON land_Tgr2_ave_S              =  -1.8725879624129E+01
(PID.TID 0000.0001) %MON land_Tgr2_ave_T              =   2.2008656179852E+01
(PID.TID 0000.0001) %MON land_Tgr2_ave_N              =  -2.4903592621079E-01
(PID.TID 0000.0001) %MON land_Tgr2_min_S              =  -6.4749780182161E+01
(PID.TID 0000.0001) %MON land_Tgr2_min_T              =  -9.7034288316834E+00
(PID.TID 0000.0001) %MON land_Tgr2_min_N              =  -4.0200519915306E+01
(PID.TID 0000.0001) %MON land_Tgr2_max_S              =   2.3359755442160E+01
(PID.TID 0000.0001) %MON land_Tgr2_max_T              =   3.1350030709726E+01
(PID.TID 0000.0001) %MON land_Tgr2_max_N              =   2.9819489577612E+01
(PID.TID 0000.0001) %MON land_grdW_ave_G              =   4.8672809108206E-01
(PID.TID 0000.0001) %MON land_grdW_ave_S              =   3.0849441588316E-01
(PID.TID 0000.0001) %MON land_grdW_ave_T              =   5.6410938424477E-01
(PID.TID 0000.0001) %MON land_grdW_ave_N              =   4.9287305749252E-01
(PID.TID 0000.0001) %MON land_grdW_min_S              =   2.7855664971047E-02
(PID.TID 0000.0001) %MON land_grdW_min_T              =   0.0000000000000E+00
(PID.TID 0000.0001) %MON land_grdW_min_N              =   0.0000000000000E+00
(PID.TID 0000.0001) // =======================================================
(PID.TID 0000.0001) // End MONITOR Land statistics
(PID.TID 0000.0001) // =======================================================
(PID.TID 0000.0001) // =======================================================
(PID.TID 0000.0001) // Begin MONITOR Therm.SeaIce statistics
(PID.TID 0000.0001) // =======================================================
(PID.TID 0000.0001) %MON thSI_time_sec                =   1.3050000000000E+04
(PID.TID 0000.0001) %MON thSI_Ice_Area_G              =   1.7277961383670E+11
(PID.TID 0000.0001) %MON thSI_Ice_Area_S              =   0.0000000000000E+00
(PID.TID 0000.0001) %MON thSI_Ice_Area_N              =   1.7277961383670E+11
(PID.TID 0000.0001) %MON thSI_IceH_ave_G              =   1.3964749032296E-01
(PID.TID 0000.0001) %MON thSI_IceH_ave_S              =   0.0000000000000E+00
(PID.TID 0000.0001) %MON thSI_IceH_ave_N              =   1.3964749032296E-01
(PID.TID 0000.0001) %MON thSI_IceH_max_S              =   0.0000000000000E+00
(PID.TID 0000.0001) %MON thSI_IceH_max_N              =   1.4891622877863E-01
(PID.TID 0000.0001) %MON thSI_SnwH_ave_G              =   0.0000000000000E+00
(PID.TID 0000.0001) %MON thSI_SnwH_ave_S              =   0.0000000000000E+00
(PID.TID 0000.0001) %MON thSI_SnwH_ave_N              =   0.0000000000000E+00
(PID.TID 0000.0001) %MON thSI_SnwH_max_S              =   0.0000000000000E+00
(PID.TID 0000.0001) %MON thSI_SnwH_max_N              =   0.0000000000000E+00
(PID.TID 0000.0001) %MON thSI_TotEnerg_G              =  -7.4608002696886E+18
(PID.TID 0000.0001) %MON thSI_Tsrf_ave_G              =  -9.2253928248556E+00
(PID.TID 0000.0001) %MON thSI_Tsrf_ave_S              =   0.0000000000000E+00
(PID.TID 0000.0001) %MON thSI_Tsrf_ave_N              =  -9.2253928248556E+00
(PID.TID 0000.0001) %MON thSI_Tsrf_min_S              =   0.0000000000000E+00
(PID.TID 0000.0001) %MON thSI_Tsrf_min_N              =  -9.3795401445552E+00
(PID.TID 0000.0001) %MON thSI_Tsrf_max_S              =   0.0000000000000E+00
(PID.TID 0000.0001) %MON thSI_Tsrf_max_N              =  -8.9283278003624E+00
(PID.TID 0000.0001) %MON thSI_Tic1_ave_G              =  -6.9662363078869E+00
(PID.TID 0000.0001) %MON thSI_Tic1_ave_S              =   0.0000000000000E+00
(PID.TID 0000.0001) %MON thSI_Tic1_ave_N              =  -6.9662363078869E+00
(PID.TID 0000.0001) %MON thSI_Tic1_min_S              =   0.0000000000000E+00
(PID.TID 0000.0001) %MON thSI_Tic1_min_N              =  -7.0200618756145E+00
(PID.TID 0000.0001) %MON thSI_Tic1_max_S              =   0.0000000000000E+00
(PID.TID 0000.0001) %MON thSI_Tic1_max_N              =  -6.8693130963264E+00
(PID.TID 0000.0001) %MON thSI_Tic2_ave_G              =  -3.3102588606570E+00
(PID.TID 0000.0001) %MON thSI_Tic2_ave_S              =   0.0000000000000E+00
(PID.TID 0000.0001) %MON thSI_Tic2_ave_N              =  -3.3102588606570E+00
(PID.TID 0000.0001) %MON thSI_Tic2_min_S              =   0.0000000000000E+00
(PID.TID 0000.0001) %MON thSI_Tic2_min_N              =  -3.3574742674319E+00
(PID.TID 0000.0001) %MON thSI_Tic2_max_S              =   0.0000000000000E+00
(PID.TID 0000.0001) %MON thSI_Tic2_max_N              =  -3.2632121918146E+00
(PID.TID 0000.0001) // =======================================================
(PID.TID 0000.0001) // End MONITOR Therm.SeaIce statistics
(PID.TID 0000.0001) // =======================================================
 cg2d: Sum(rhs),rhsMax =  -1.28056854009628E-09  1.92228012999575E+04
(PID.TID 0000.0001)                    cg2d_init_res =    1.09991286351195E+04
(PID.TID 0000.0001)                       cg2d_iters =    16
(PID.TID 0000.0001)                         cg2d_res =    6.47966199690453E-11
(PID.TID 0000.0001) // =======================================================
(PID.TID 0000.0001) // Begin MONITOR dynamic field statistics
(PID.TID 0000.0001) // =======================================================
(PID.TID 0000.0001) %MON time_tsnumber                =                    30
(PID.TID 0000.0001) %MON time_secondsf                =   1.3500000000000E+04
(PID.TID 0000.0001) %MON dynstat_eta_max              =   3.2282143720659E+03
(PID.TID 0000.0001) %MON dynstat_eta_min              =  -7.5919221557076E+02
(PID.TID 0000.0001) %MON dynstat_eta_mean             =   5.7836728011656E-14
(PID.TID 0000.0001) %MON dynstat_eta_sd               =   4.7113245002864E+02
(PID.TID 0000.0001) %MON dynstat_eta_del2             =   3.6155916488595E+01
(PID.TID 0000.0001) %MON dynstat_uvel_max             =   5.0027301761060E+00
(PID.TID 0000.0001) %MON dynstat_uvel_min             =  -5.3413025771530E+00
(PID.TID 0000.0001) %MON dynstat_uvel_mean            =   3.9269293835099E-02
(PID.TID 0000.0001) %MON dynstat_uvel_sd              =   7.9915271815152E-01
(PID.TID 0000.0001) %MON dynstat_uvel_del2            =   2.7215791313545E-02
(PID.TID 0000.0001) %MON dynstat_vvel_max             =   5.1239155840608E+00
(PID.TID 0000.0001) %MON dynstat_vvel_min             =  -5.6384599673299E+00
(PID.TID 0000.0001) %MON dynstat_vvel_mean            =   2.3626037648840E-02
(PID.TID 0000.0001) %MON dynstat_vvel_sd              =   8.1644899926712E-01
(PID.TID 0000.0001) %MON dynstat_vvel_del2            =   2.6993418100523E-02
(PID.TID 0000.0001) %MON dynstat_wvel_max             =   2.2190436296958E-01
(PID.TID 0000.0001) %MON dynstat_wvel_min             =  -1.0414748794343E-01
(PID.TID 0000.0001) %MON dynstat_wvel_mean            =   5.6260413403096E-04
(PID.TID 0000.0001) %MON dynstat_wvel_sd              =   1.0270948851209E-02
(PID.TID 0000.0001) %MON dynstat_wvel_del2            =   2.0231808775215E-03
(PID.TID 0000.0001) %MON dynstat_theta_max            =   4.3813040845811E+02
(PID.TID 0000.0001) %MON dynstat_theta_min            =   2.8257461099945E+02
(PID.TID 0000.0001) %MON dynstat_theta_mean           =   3.3167475132894E+02
(PID.TID 0000.0001) %MON dynstat_theta_sd             =   4.7463374123118E+01
(PID.TID 0000.0001) %MON dynstat_theta_del2           =   3.0134076369139E-02
(PID.TID 0000.0001) %MON dynstat_salt_max             =   4.7403852207229E+00
(PID.TID 0000.0001) %MON dynstat_salt_min             =  -2.2141176007772E-02
(PID.TID 0000.0001) %MON dynstat_salt_mean            =   1.0727013551012E-01
(PID.TID 0000.0001) %MON dynstat_salt_sd              =   4.1695787263525E-01
(PID.TID 0000.0001) %MON dynstat_salt_del2            =   1.2568212145326E-02
(PID.TID 0000.0001) %MON advcfl_uvel_max              =   7.4911160868915E-03
(PID.TID 0000.0001) %MON advcfl_vvel_max              =   8.0610582168081E-03
(PID.TID 0000.0001) %MON advcfl_wvel_max              =   3.6562048047371E-03
(PID.TID 0000.0001) %MON advcfl_W_hf_max              =   1.8876857380823E-02
(PID.TID 0000.0001) %MON pe_b_mean                    =  -1.2245799269882E+00
(PID.TID 0000.0001) %MON ke_max                       =   1.5820752042520E+01
(PID.TID 0000.0001) %MON ke_mean                      =   6.4977141333502E-01
(PID.TID 0000.0001) %MON ke_vol                       =   4.9523908919847E+19
(PID.TID 0000.0001) %MON vort_r_min                   =  -2.0088319026225E-05
(PID.TID 0000.0001) %MON vort_r_max                   =   1.1692615101407E-05
(PID.TID 0000.0001) %MON vort_a_mean                  =   6.7242814765410E-08
(PID.TID 0000.0001) %MON vort_a_sd                    =   8.4003627876148E-05
(PID.TID 0000.0001) %MON vort_p_mean                  =   6.8939474484240E-08
(PID.TID 0000.0001) %MON vort_p_sd                    =   9.1713723363499E-05
(PID.TID 0000.0001) %MON surfExpan_theta_mean         =  -5.5692518529061E-02
(PID.TID 0000.0001) %MON surfExpan_salt_mean          =  -1.4508163764125E-03
(PID.TID 0000.0001) %MON surfExpan_Heat_mean          =   4.4044010156680E+00
(PID.TID 0000.0001) %MON En_Budget_T2PE_mean          =  -8.5269988606865E+00
(PID.TID 0000.0001) // =======================================================
(PID.TID 0000.0001) // End MONITOR dynamic field statistics
(PID.TID 0000.0001) // =======================================================
(PID.TID 0000.0001) // =======================================================
(PID.TID 0000.0001) // Begin MONITOR Land statistics
(PID.TID 0000.0001) // =======================================================
(PID.TID 0000.0001) %MON land_time_sec                =   1.3500000000000E+04
(PID.TID 0000.0001) %MON land_SnwH_ave_G              =   1.5321890725340E-01
(PID.TID 0000.0001) %MON land_SnwH_ave_S              =   5.5903682549782E-01
(PID.TID 0000.0001) %MON land_SnwH_ave_T              =   0.0000000000000E+00
(PID.TID 0000.0001) %MON land_SnwH_ave_N              =   1.2388912743531E-01
(PID.TID 0000.0001) %MON land_SnwH_max_S              =   9.9998361738927E-01
(PID.TID 0000.0001) %MON land_SnwH_max_T              =   0.0000000000000E+00
(PID.TID 0000.0001) %MON land_SnwH_max_N              =   9.9999802139973E-01
(PID.TID 0000.0001) %MON land_TotEnerg_G              =  -6.3577888849737E+21
(PID.TID 0000.0001) %MON land_TotEnerg_S              =  -5.0024391012123E+21
(PID.TID 0000.0001) %MON land_TotEnerg_T              =   7.2744612617748E+21
(PID.TID 0000.0001) %MON land_TotEnerg_N              =  -8.6298110455362E+21
(PID.TID 0000.0001) %MON land_Tsrf_ave_G              =  -8.5579507746785E+00
(PID.TID 0000.0001) %MON land_Tsrf_ave_S              =  -7.3772717619618E+00
(PID.TID 0000.0001) %MON land_Tsrf_ave_T              =   9.9364525627404E+00
(PID.TID 0000.0001) %MON land_Tsrf_ave_N              =  -2.1290974490045E+01
(PID.TID 0000.0001) %MON land_Tsrf_min_S              =  -3.3644267859574E+01
(PID.TID 0000.0001) %MON land_Tsrf_min_T              =  -3.0519817264130E+00
(PID.TID 0000.0001) %MON land_Tsrf_min_N              =  -5.2031301812853E+01
(PID.TID 0000.0001) %MON land_Tsrf_max_S              =   2.0089311155839E+01
(PID.TID 0000.0001) %MON land_Tsrf_max_T              =   2.0056489776234E+01
(PID.TID 0000.0001) %MON land_Tsrf_max_N              =   7.9617412793326E+00
(PID.TID 0000.0001) %MON land_Tgr1_ave_G              =  -7.3593448827168E+00
(PID.TID 0000.0001) %MON land_Tgr1_ave_S              =  -7.2574964092032E+00
(PID.TID 0000.0001) %MON land_Tgr1_ave_T              =   9.9364525627404E+00
(PID.TID 0000.0001) %MON land_Tgr1_ave_N              =  -1.8942008780328E+01
(PID.TID 0000.0001) %MON land_Tgr1_min_S              =  -3.9328746574506E+01
(PID.TID 0000.0001) %MON land_Tgr1_min_T              =  -3.0519817264130E+00
(PID.TID 0000.0001) %MON land_Tgr1_min_N              =  -5.4632619034524E+01
(PID.TID 0000.0001) %MON land_Tgr1_max_S              =   2.0089311155839E+01
(PID.TID 0000.0001) %MON land_Tgr1_max_T              =   2.0056489776234E+01
(PID.TID 0000.0001) %MON land_Tgr1_max_N              =   7.9617412793326E+00
(PID.TID 0000.0001) %MON land_Tgr2_ave_G              =   4.2028574179765E+00
(PID.TID 0000.0001) %MON land_Tgr2_ave_S              =  -1.8725687310826E+01
(PID.TID 0000.0001) %MON land_Tgr2_ave_T              =   2.2008461737775E+01
(PID.TID 0000.0001) %MON land_Tgr2_ave_N              =  -2.4932128872223E-01
(PID.TID 0000.0001) %MON land_Tgr2_min_S              =  -6.4749351754818E+01
(PID.TID 0000.0001) %MON land_Tgr2_min_T              =  -9.7033447918692E+00
(PID.TID 0000.0001) %MON land_Tgr2_min_N              =  -4.0200754269235E+01
(PID.TID 0000.0001) %MON land_Tgr2_max_S              =   2.3359684671970E+01
(PID.TID 0000.0001) %MON land_Tgr2_max_T              =   3.1349588873498E+01
(PID.TID 0000.0001) %MON land_Tgr2_max_N              =   2.9818940553591E+01
(PID.TID 0000.0001) %MON land_grdW_ave_G              =   4.8672072840029E-01
(PID.TID 0000.0001) %MON land_grdW_ave_S              =   3.0848694330609E-01
(PID.TID 0000.0001) %MON land_grdW_ave_T              =   5.6409148124405E-01
(PID.TID 0000.0001) %MON land_grdW_ave_N              =   4.9287276897513E-01
(PID.TID 0000.0001) %MON land_grdW_min_S              =   2.7941995762507E-02
(PID.TID 0000.0001) %MON land_grdW_min_T              =   0.0000000000000E+00
(PID.TID 0000.0001) %MON land_grdW_min_N              =   0.0000000000000E+00
(PID.TID 0000.0001) // =======================================================
(PID.TID 0000.0001) // End MONITOR Land statistics
(PID.TID 0000.0001) // =======================================================
(PID.TID 0000.0001) // =======================================================
(PID.TID 0000.0001) // Begin MONITOR Therm.SeaIce statistics
(PID.TID 0000.0001) // =======================================================
(PID.TID 0000.0001) %MON thSI_time_sec                =   1.3500000000000E+04
(PID.TID 0000.0001) %MON thSI_Ice_Area_G              =   1.7277961383670E+11
(PID.TID 0000.0001) %MON thSI_Ice_Area_S              =   0.0000000000000E+00
(PID.TID 0000.0001) %MON thSI_Ice_Area_N              =   1.7277961383670E+11
(PID.TID 0000.0001) %MON thSI_IceH_ave_G              =   1.3978690544648E-01
(PID.TID 0000.0001) %MON thSI_IceH_ave_S              =   0.0000000000000E+00
(PID.TID 0000.0001) %MON thSI_IceH_ave_N              =   1.3978690544648E-01
(PID.TID 0000.0001) %MON thSI_IceH_max_S              =   0.0000000000000E+00
(PID.TID 0000.0001) %MON thSI_IceH_max_N              =   1.4904404655993E-01
(PID.TID 0000.0001) %MON thSI_SnwH_ave_G              =   0.0000000000000E+00
(PID.TID 0000.0001) %MON thSI_SnwH_ave_S              =   0.0000000000000E+00
(PID.TID 0000.0001) %MON thSI_SnwH_ave_N              =   0.0000000000000E+00
(PID.TID 0000.0001) %MON thSI_SnwH_max_S              =   0.0000000000000E+00
(PID.TID 0000.0001) %MON thSI_SnwH_max_N              =   0.0000000000000E+00
(PID.TID 0000.0001) %MON thSI_TotEnerg_G              =  -7.4706732604826E+18
(PID.TID 0000.0001) %MON thSI_Tsrf_ave_G              =  -9.2730453910000E+00
(PID.TID 0000.0001) %MON thSI_Tsrf_ave_S              =   0.0000000000000E+00
(PID.TID 0000.0001) %MON thSI_Tsrf_ave_N              =  -9.2730453910000E+00
(PID.TID 0000.0001) %MON thSI_Tsrf_min_S              =   0.0000000000000E+00
(PID.TID 0000.0001) %MON thSI_Tsrf_min_N              =  -9.4344913202874E+00
(PID.TID 0000.0001) %MON thSI_Tsrf_max_S              =   0.0000000000000E+00
(PID.TID 0000.0001) %MON thSI_Tsrf_max_N              =  -8.9642828082733E+00
(PID.TID 0000.0001) %MON thSI_Tic1_ave_G              =  -7.0310677049000E+00
(PID.TID 0000.0001) %MON thSI_Tic1_ave_S              =   0.0000000000000E+00
(PID.TID 0000.0001) %MON thSI_Tic1_ave_N              =  -7.0310677049000E+00
(PID.TID 0000.0001) %MON thSI_Tic1_min_S              =   0.0000000000000E+00
(PID.TID 0000.0001) %MON thSI_Tic1_min_N              =  -7.0893947969576E+00
(PID.TID 0000.0001) %MON thSI_Tic1_max_S              =   0.0000000000000E+00
(PID.TID 0000.0001) %MON thSI_Tic1_max_N              =  -6.9193377461205E+00
(PID.TID 0000.0001) %MON thSI_Tic2_ave_G              =  -3.3402324670321E+00
(PID.TID 0000.0001) %MON thSI_Tic2_ave_S              =   0.0000000000000E+00
(PID.TID 0000.0001) %MON thSI_Tic2_ave_N              =  -3.3402324670321E+00
(PID.TID 0000.0001) %MON thSI_Tic2_min_S              =   0.0000000000000E+00
(PID.TID 0000.0001) %MON thSI_Tic2_min_N              =  -3.3829177450904E+00
(PID.TID 0000.0001) %MON thSI_Tic2_max_S              =   0.0000000000000E+00
(PID.TID 0000.0001) %MON thSI_Tic2_max_N              =  -3.2962837414600E+00
(PID.TID 0000.0001) // =======================================================
(PID.TID 0000.0001) // End MONITOR Therm.SeaIce statistics
(PID.TID 0000.0001) // =======================================================
 cg2d: Sum(rhs),rhsMax =   9.31322574615479E-10  1.86936454079186E+04
(PID.TID 0000.0001)                    cg2d_init_res =    1.08423875437698E+04
(PID.TID 0000.0001)                       cg2d_iters =    16
(PID.TID 0000.0001)                         cg2d_res =    6.31805937155957E-11
(PID.TID 0000.0001) // =======================================================
(PID.TID 0000.0001) // Begin MONITOR dynamic field statistics
(PID.TID 0000.0001) // =======================================================
(PID.TID 0000.0001) %MON time_tsnumber                =                    31
(PID.TID 0000.0001) %MON time_secondsf                =   1.3950000000000E+04
(PID.TID 0000.0001) %MON dynstat_eta_max              =   3.1519194765201E+03
(PID.TID 0000.0001) %MON dynstat_eta_min              =  -7.5871349063689E+02
(PID.TID 0000.0001) %MON dynstat_eta_mean             =   0.0000000000000E+00
(PID.TID 0000.0001) %MON dynstat_eta_sd               =   4.6180658682595E+02
(PID.TID 0000.0001) %MON dynstat_eta_del2             =   3.6146268990271E+01
(PID.TID 0000.0001) %MON dynstat_uvel_max             =   4.8506174472473E+00
(PID.TID 0000.0001) %MON dynstat_uvel_min             =  -5.1788337806381E+00
(PID.TID 0000.0001) %MON dynstat_uvel_mean            =   4.6137236111495E-02
(PID.TID 0000.0001) %MON dynstat_uvel_sd              =   7.9066740176772E-01
(PID.TID 0000.0001) %MON dynstat_uvel_del2            =   2.7827506874301E-02
(PID.TID 0000.0001) %MON dynstat_vvel_max             =   5.0248880858897E+00
(PID.TID 0000.0001) %MON dynstat_vvel_min             =  -5.4429977817357E+00
(PID.TID 0000.0001) %MON dynstat_vvel_mean            =   2.2979548090549E-02
(PID.TID 0000.0001) %MON dynstat_vvel_sd              =   8.1278859212110E-01
(PID.TID 0000.0001) %MON dynstat_vvel_del2            =   2.7655364095034E-02
(PID.TID 0000.0001) %MON dynstat_wvel_max             =   2.1530066005686E-01
(PID.TID 0000.0001) %MON dynstat_wvel_min             =  -9.1423493986577E-02
(PID.TID 0000.0001) %MON dynstat_wvel_mean            =   5.3563239432438E-04
(PID.TID 0000.0001) %MON dynstat_wvel_sd              =   1.0097733224901E-02
(PID.TID 0000.0001) %MON dynstat_wvel_del2            =   2.0491425936100E-03
(PID.TID 0000.0001) %MON dynstat_theta_max            =   4.3810483600741E+02
(PID.TID 0000.0001) %MON dynstat_theta_min            =   2.8236057766064E+02
(PID.TID 0000.0001) %MON dynstat_theta_mean           =   3.3167252412378E+02
(PID.TID 0000.0001) %MON dynstat_theta_sd             =   4.7465451585805E+01
(PID.TID 0000.0001) %MON dynstat_theta_del2           =   3.1060972309896E-02
(PID.TID 0000.0001) %MON dynstat_salt_max             =   4.7774879576452E+00
(PID.TID 0000.0001) %MON dynstat_salt_min             =  -2.4389588363080E-02
(PID.TID 0000.0001) %MON dynstat_salt_mean            =   1.1058659033561E-01
(PID.TID 0000.0001) %MON dynstat_salt_sd              =   4.2836924841062E-01
(PID.TID 0000.0001) %MON dynstat_salt_del2            =   1.2884930332041E-02
(PID.TID 0000.0001) %MON advcfl_uvel_max              =   7.2703621661003E-03
(PID.TID 0000.0001) %MON advcfl_vvel_max              =   7.7816145271502E-03
(PID.TID 0000.0001) %MON advcfl_wvel_max              =   3.5231017100213E-03
(PID.TID 0000.0001) %MON advcfl_W_hf_max              =   1.9132239112773E-02
(PID.TID 0000.0001) %MON pe_b_mean                    =  -1.2216983150353E+00
(PID.TID 0000.0001) %MON ke_max                       =   1.5125981231714E+01
(PID.TID 0000.0001) %MON ke_mean                      =   6.4037461171049E-01
(PID.TID 0000.0001) %MON ke_vol                       =   4.9523908919847E+19
(PID.TID 0000.0001) %MON vort_r_min                   =  -1.9636241555615E-05
(PID.TID 0000.0001) %MON vort_r_max                   =   1.2252800439053E-05
(PID.TID 0000.0001) %MON vort_a_mean                  =   6.7242814765259E-08
(PID.TID 0000.0001) %MON vort_a_sd                    =   8.4005870753008E-05
(PID.TID 0000.0001) %MON vort_p_mean                  =   6.8939476076384E-08
(PID.TID 0000.0001) %MON vort_p_sd                    =   9.1698103700487E-05
(PID.TID 0000.0001) %MON surfExpan_theta_mean         =  -5.2762245805826E-02
(PID.TID 0000.0001) %MON surfExpan_salt_mean          =  -1.5357958821223E-03
(PID.TID 0000.0001) %MON surfExpan_Heat_mean          =   4.1736419665642E+00
(PID.TID 0000.0001) %MON En_Budget_T2PE_mean          =  -8.0858479555098E+00
(PID.TID 0000.0001) // =======================================================
(PID.TID 0000.0001) // End MONITOR dynamic field statistics
(PID.TID 0000.0001) // =======================================================
(PID.TID 0000.0001) // =======================================================
(PID.TID 0000.0001) // Begin MONITOR Land statistics
(PID.TID 0000.0001) // =======================================================
(PID.TID 0000.0001) %MON land_time_sec                =   1.3950000000000E+04
(PID.TID 0000.0001) %MON land_SnwH_ave_G              =   1.5321796373835E-01
(PID.TID 0000.0001) %MON land_SnwH_ave_S              =   5.5903596471846E-01
(PID.TID 0000.0001) %MON land_SnwH_ave_T              =   0.0000000000000E+00
(PID.TID 0000.0001) %MON land_SnwH_ave_N              =   1.2388752702970E-01
(PID.TID 0000.0001) %MON land_SnwH_max_S              =   9.9998305477829E-01
(PID.TID 0000.0001) %MON land_SnwH_max_T              =   0.0000000000000E+00
(PID.TID 0000.0001) %MON land_SnwH_max_N              =   9.9999795756941E-01
(PID.TID 0000.0001) %MON land_TotEnerg_G              =  -6.3588427322989E+21
(PID.TID 0000.0001) %MON land_TotEnerg_S              =  -5.0024574581255E+21
(PID.TID 0000.0001) %MON land_TotEnerg_T              =   7.2739687766645E+21
(PID.TID 0000.0001) %MON land_TotEnerg_N              =  -8.6303540508378E+21
(PID.TID 0000.0001) %MON land_Tsrf_ave_G              =  -8.5826378291138E+00
(PID.TID 0000.0001) %MON land_Tsrf_ave_S              =  -7.3842996705471E+00
(PID.TID 0000.0001) %MON land_Tsrf_ave_T              =   9.8839583954884E+00
(PID.TID 0000.0001) %MON land_Tsrf_ave_N              =  -2.1302821291649E+01
(PID.TID 0000.0001) %MON land_Tsrf_min_S              =  -3.3617320938810E+01
(PID.TID 0000.0001) %MON land_Tsrf_min_T              =  -2.9554648472232E+00
(PID.TID 0000.0001) %MON land_Tsrf_min_N              =  -5.2026798942135E+01
(PID.TID 0000.0001) %MON land_Tsrf_max_S              =   2.0052557774756E+01
(PID.TID 0000.0001) %MON land_Tsrf_max_T              =   1.9981200861646E+01
(PID.TID 0000.0001) %MON land_Tsrf_max_N              =   7.8777344499574E+00
(PID.TID 0000.0001) %MON land_Tgr1_ave_G              =  -7.3873180648646E+00
(PID.TID 0000.0001) %MON land_Tgr1_ave_S              =  -7.2691291593018E+00
(PID.TID 0000.0001) %MON land_Tgr1_ave_T              =   9.8839583954884E+00
(PID.TID 0000.0001) %MON land_Tgr1_ave_N              =  -1.8958908306366E+01
(PID.TID 0000.0001) %MON land_Tgr1_min_S              =  -3.9339502720799E+01
(PID.TID 0000.0001) %MON land_Tgr1_min_T              =  -2.9554648472232E+00
(PID.TID 0000.0001) %MON land_Tgr1_min_N              =  -5.4620236831486E+01
(PID.TID 0000.0001) %MON land_Tgr1_max_S              =   2.0052557774756E+01
(PID.TID 0000.0001) %MON land_Tgr1_max_T              =   1.9981200861646E+01
(PID.TID 0000.0001) %MON land_Tgr1_max_N              =   7.8777344499574E+00
(PID.TID 0000.0001) %MON land_Tgr2_ave_G              =   4.2026799304463E+00
(PID.TID 0000.0001) %MON land_Tgr2_ave_S              =  -1.8725495184027E+01
(PID.TID 0000.0001) %MON land_Tgr2_ave_T              =   2.2008266591793E+01
(PID.TID 0000.0001) %MON land_Tgr2_ave_N              =  -2.4960688509367E-01
(PID.TID 0000.0001) %MON land_Tgr2_min_S              =  -6.4748923531834E+01
(PID.TID 0000.0001) %MON land_Tgr2_min_T              =  -9.7032595339148E+00
(PID.TID 0000.0001) %MON land_Tgr2_min_N              =  -4.0200988391883E+01
(PID.TID 0000.0001) %MON land_Tgr2_max_S              =   2.3359612904621E+01
(PID.TID 0000.0001) %MON land_Tgr2_max_T              =   3.1349145152566E+01
(PID.TID 0000.0001) %MON land_Tgr2_max_N              =   2.9818387564112E+01
(PID.TID 0000.0001) %MON land_grdW_ave_G              =   4.8671342883321E-01
(PID.TID 0000.0001) %MON land_grdW_ave_S              =   3.0847951057640E-01
(PID.TID 0000.0001) %MON land_grdW_ave_T              =   5.6407374647420E-01
(PID.TID 0000.0001) %MON land_grdW_ave_N              =   4.9287248092670E-01
(PID.TID 0000.0001) %MON land_grdW_min_S              =   2.8028018060703E-02
(PID.TID 0000.0001) %MON land_grdW_min_T              =   0.0000000000000E+00
(PID.TID 0000.0001) %MON land_grdW_min_N              =   0.0000000000000E+00
(PID.TID 0000.0001) // =======================================================
(PID.TID 0000.0001) // End MONITOR Land statistics
(PID.TID 0000.0001) // =======================================================
(PID.TID 0000.0001) // =======================================================
(PID.TID 0000.0001) // Begin MONITOR Therm.SeaIce statistics
(PID.TID 0000.0001) // =======================================================
(PID.TID 0000.0001) %MON thSI_time_sec                =   1.3950000000000E+04
(PID.TID 0000.0001) %MON thSI_Ice_Area_G              =   1.7277961383670E+11
(PID.TID 0000.0001) %MON thSI_Ice_Area_S              =   0.0000000000000E+00
(PID.TID 0000.0001) %MON thSI_Ice_Area_N              =   1.7277961383670E+11
(PID.TID 0000.0001) %MON thSI_IceH_ave_G              =   1.3992852451051E-01
(PID.TID 0000.0001) %MON thSI_IceH_ave_S              =   0.0000000000000E+00
(PID.TID 0000.0001) %MON thSI_IceH_ave_N              =   1.3992852451051E-01
(PID.TID 0000.0001) %MON thSI_IceH_max_S              =   0.0000000000000E+00
(PID.TID 0000.0001) %MON thSI_IceH_max_N              =   1.4917429409171E-01
(PID.TID 0000.0001) %MON thSI_SnwH_ave_G              =   0.0000000000000E+00
(PID.TID 0000.0001) %MON thSI_SnwH_ave_S              =   0.0000000000000E+00
(PID.TID 0000.0001) %MON thSI_SnwH_ave_N              =   0.0000000000000E+00
(PID.TID 0000.0001) %MON thSI_SnwH_max_S              =   0.0000000000000E+00
(PID.TID 0000.0001) %MON thSI_SnwH_max_N              =   0.0000000000000E+00
(PID.TID 0000.0001) %MON thSI_TotEnerg_G              =  -7.4804640524112E+18
(PID.TID 0000.0001) %MON thSI_Tsrf_ave_G              =  -9.3160024302389E+00
(PID.TID 0000.0001) %MON thSI_Tsrf_ave_S              =   0.0000000000000E+00
(PID.TID 0000.0001) %MON thSI_Tsrf_ave_N              =  -9.3160024302389E+00
(PID.TID 0000.0001) %MON thSI_Tsrf_min_S              =   0.0000000000000E+00
(PID.TID 0000.0001) %MON thSI_Tsrf_min_N              =  -9.4848714951242E+00
(PID.TID 0000.0001) %MON thSI_Tsrf_max_S              =   0.0000000000000E+00
(PID.TID 0000.0001) %MON thSI_Tsrf_max_N              =  -8.9956729413830E+00
(PID.TID 0000.0001) %MON thSI_Tic1_ave_G              =  -7.0905110571549E+00
(PID.TID 0000.0001) %MON thSI_Tic1_ave_S              =   0.0000000000000E+00
(PID.TID 0000.0001) %MON thSI_Tic1_ave_N              =  -7.0905110571549E+00
(PID.TID 0000.0001) %MON thSI_Tic1_min_S              =   0.0000000000000E+00
(PID.TID 0000.0001) %MON thSI_Tic1_min_N              =  -7.1533317842933E+00
(PID.TID 0000.0001) %MON thSI_Tic1_max_S              =   0.0000000000000E+00
(PID.TID 0000.0001) %MON thSI_Tic1_max_N              =  -6.9640914586438E+00
(PID.TID 0000.0001) %MON thSI_Tic2_ave_G              =  -3.3677644667569E+00
(PID.TID 0000.0001) %MON thSI_Tic2_ave_S              =   0.0000000000000E+00
(PID.TID 0000.0001) %MON thSI_Tic2_ave_N              =  -3.3677644667569E+00
(PID.TID 0000.0001) %MON thSI_Tic2_min_S              =   0.0000000000000E+00
(PID.TID 0000.0001) %MON thSI_Tic2_min_N              =  -3.4059380985191E+00
(PID.TID 0000.0001) %MON thSI_Tic2_max_S              =   0.0000000000000E+00
(PID.TID 0000.0001) %MON thSI_Tic2_max_N              =  -3.3229704595176E+00
(PID.TID 0000.0001) // =======================================================
(PID.TID 0000.0001) // End MONITOR Therm.SeaIce statistics
(PID.TID 0000.0001) // =======================================================
 cg2d: Sum(rhs),rhsMax =  -3.49245965480804E-10  1.82574319626333E+04
(PID.TID 0000.0001)                    cg2d_init_res =    1.06702971594919E+04
(PID.TID 0000.0001)                       cg2d_iters =    16
(PID.TID 0000.0001)                         cg2d_res =    6.17766299927487E-11
(PID.TID 0000.0001) // =======================================================
(PID.TID 0000.0001) // Begin MONITOR dynamic field statistics
(PID.TID 0000.0001) // =======================================================
(PID.TID 0000.0001) %MON time_tsnumber                =                    32
(PID.TID 0000.0001) %MON time_secondsf                =   1.4400000000000E+04
(PID.TID 0000.0001) %MON dynstat_eta_max              =   3.0800449500915E+03
(PID.TID 0000.0001) %MON dynstat_eta_min              =  -7.5890709363672E+02
(PID.TID 0000.0001) %MON dynstat_eta_mean             =   0.0000000000000E+00
(PID.TID 0000.0001) %MON dynstat_eta_sd               =   4.5339552883735E+02
(PID.TID 0000.0001) %MON dynstat_eta_del2             =   3.6150266686444E+01
(PID.TID 0000.0001) %MON dynstat_uvel_max             =   4.6947879150474E+00
(PID.TID 0000.0001) %MON dynstat_uvel_min             =  -4.9540278993384E+00
(PID.TID 0000.0001) %MON dynstat_uvel_mean            =   5.3127200603762E-02
(PID.TID 0000.0001) %MON dynstat_uvel_sd              =   7.8202773828193E-01
(PID.TID 0000.0001) %MON dynstat_uvel_del2            =   2.8474484128345E-02
(PID.TID 0000.0001) %MON dynstat_vvel_max             =   4.8966482107258E+00
(PID.TID 0000.0001) %MON dynstat_vvel_min             =  -5.2328856364945E+00
(PID.TID 0000.0001) %MON dynstat_vvel_mean            =   2.2541279505694E-02
(PID.TID 0000.0001) %MON dynstat_vvel_sd              =   8.0761714403264E-01
(PID.TID 0000.0001) %MON dynstat_vvel_del2            =   2.8308584969292E-02
(PID.TID 0000.0001) %MON dynstat_wvel_max             =   2.0854095695082E-01
(PID.TID 0000.0001) %MON dynstat_wvel_min             =  -9.1303384387648E-02
(PID.TID 0000.0001) %MON dynstat_wvel_mean            =   5.0069209512240E-04
(PID.TID 0000.0001) %MON dynstat_wvel_sd              =   9.9075088681797E-03
(PID.TID 0000.0001) %MON dynstat_wvel_del2            =   2.0744714632275E-03
(PID.TID 0000.0001) %MON dynstat_theta_max            =   4.3806213989689E+02
(PID.TID 0000.0001) %MON dynstat_theta_min            =   2.8214726097362E+02
(PID.TID 0000.0001) %MON dynstat_theta_mean           =   3.3167027212957E+02
(PID.TID 0000.0001) %MON dynstat_theta_sd             =   4.7467536819853E+01
(PID.TID 0000.0001) %MON dynstat_theta_del2           =   3.1988339491117E-02
(PID.TID 0000.0001) %MON dynstat_salt_max             =   4.8124160189705E+00
(PID.TID 0000.0001) %MON dynstat_salt_min             =  -2.6697247197063E-02
(PID.TID 0000.0001) %MON dynstat_salt_mean            =   1.1389295401419E-01
(PID.TID 0000.0001) %MON dynstat_salt_sd              =   4.3968405982315E-01
(PID.TID 0000.0001) %MON dynstat_salt_del2            =   1.3200115524155E-02
(PID.TID 0000.0001) %MON advcfl_uvel_max              =   6.9867506227693E-03
(PID.TID 0000.0001) %MON advcfl_vvel_max              =   7.4812264345395E-03
(PID.TID 0000.0001) %MON advcfl_wvel_max              =   3.4124883864680E-03
(PID.TID 0000.0001) %MON advcfl_W_hf_max              =   1.9227967873247E-02
(PID.TID 0000.0001) %MON pe_b_mean                    =  -1.2173698661589E+00
(PID.TID 0000.0001) %MON ke_max                       =   1.4277000144221E+01
(PID.TID 0000.0001) %MON ke_mean                      =   6.2978701358797E-01
(PID.TID 0000.0001) %MON ke_vol                       =   4.9523908919847E+19
(PID.TID 0000.0001) %MON vort_r_min                   =  -1.9111390089495E-05
(PID.TID 0000.0001) %MON vort_r_max                   =   1.2837799091974E-05
(PID.TID 0000.0001) %MON vort_a_mean                  =   6.7242814765358E-08
(PID.TID 0000.0001) %MON vort_a_sd                    =   8.4008045712616E-05
(PID.TID 0000.0001) %MON vort_p_mean                  =   6.8939477598613E-08
(PID.TID 0000.0001) %MON vort_p_sd                    =   9.1683663982382E-05
(PID.TID 0000.0001) %MON surfExpan_theta_mean         =  -4.9093339684907E-02
(PID.TID 0000.0001) %MON surfExpan_salt_mean          =  -1.6128526850071E-03
(PID.TID 0000.0001) %MON surfExpan_Heat_mean          =   3.8792730956464E+00
(PID.TID 0000.0001) %MON En_Budget_T2PE_mean          =  -7.5262638851607E+00
(PID.TID 0000.0001) // =======================================================
(PID.TID 0000.0001) // End MONITOR dynamic field statistics
(PID.TID 0000.0001) // =======================================================
(PID.TID 0000.0001) // =======================================================
(PID.TID 0000.0001) // Begin MONITOR Land statistics
(PID.TID 0000.0001) // =======================================================
(PID.TID 0000.0001) %MON land_time_sec                =   1.4400000000000E+04
(PID.TID 0000.0001) %MON land_SnwH_ave_G              =   1.5321702266021E-01
(PID.TID 0000.0001) %MON land_SnwH_ave_S              =   5.5903510929898E-01
(PID.TID 0000.0001) %MON land_SnwH_ave_T              =   0.0000000000000E+00
(PID.TID 0000.0001) %MON land_SnwH_ave_N              =   1.2388592974010E-01
(PID.TID 0000.0001) %MON land_SnwH_max_S              =   9.9998249077212E-01
(PID.TID 0000.0001) %MON land_SnwH_max_T              =   0.0000000000000E+00
(PID.TID 0000.0001) %MON land_SnwH_max_N              =   9.9999789369374E-01
(PID.TID 0000.0001) %MON land_TotEnerg_G              =  -6.3598486522687E+21
(PID.TID 0000.0001) %MON land_TotEnerg_S              =  -5.0024704859682E+21
(PID.TID 0000.0001) %MON land_TotEnerg_T              =   7.2735099891207E+21
(PID.TID 0000.0001) %MON land_TotEnerg_N              =  -8.6308881554212E+21
(PID.TID 0000.0001) %MON land_Tsrf_ave_G              =  -8.6054311138378E+00
(PID.TID 0000.0001) %MON land_Tsrf_ave_S              =  -7.3899164187514E+00
(PID.TID 0000.0001) %MON land_Tsrf_ave_T              =   9.8355082388621E+00
(PID.TID 0000.0001) %MON land_Tsrf_ave_N              =  -2.1314053635661E+01
(PID.TID 0000.0001) %MON land_Tsrf_min_S              =  -3.3589019880359E+01
(PID.TID 0000.0001) %MON land_Tsrf_min_T              =  -2.8622942671561E+00
(PID.TID 0000.0001) %MON land_Tsrf_min_N              =  -5.2021799440739E+01
(PID.TID 0000.0001) %MON land_Tsrf_max_S              =   2.0021961342583E+01
(PID.TID 0000.0001) %MON land_Tsrf_max_T              =   1.9914874117952E+01
(PID.TID 0000.0001) %MON land_Tsrf_max_N              =   7.7995552330646E+00
(PID.TID 0000.0001) %MON land_Tgr1_ave_G              =  -7.4132497872052E+00
(PID.TID 0000.0001) %MON land_Tgr1_ave_S              =  -7.2792081740685E+00
(PID.TID 0000.0001) %MON land_Tgr1_ave_T              =   9.8355082388621E+00
(PID.TID 0000.0001) %MON land_Tgr1_ave_N              =  -1.8974945402291E+01
(PID.TID 0000.0001) %MON land_Tgr1_min_S              =  -3.9350214042852E+01
(PID.TID 0000.0001) %MON land_Tgr1_min_T              =  -2.8622942671561E+00
(PID.TID 0000.0001) %MON land_Tgr1_min_N              =  -5.4607870214023E+01
(PID.TID 0000.0001) %MON land_Tgr1_max_S              =   2.0021961342583E+01
(PID.TID 0000.0001) %MON land_Tgr1_max_T              =   1.9914874117952E+01
(PID.TID 0000.0001) %MON land_Tgr1_max_N              =   7.7995552330646E+00
(PID.TID 0000.0001) %MON land_Tgr2_ave_G              =   4.2025021122143E+00
(PID.TID 0000.0001) %MON land_Tgr2_ave_S              =  -1.8725303219077E+01
(PID.TID 0000.0001) %MON land_Tgr2_ave_T              =   2.2008070865176E+01
(PID.TID 0000.0001) %MON land_Tgr2_ave_N              =  -2.4989270004398E-01
(PID.TID 0000.0001) %MON land_Tgr2_min_S              =  -6.4748495512417E+01
(PID.TID 0000.0001) %MON land_Tgr2_min_T              =  -9.7031731001201E+00
(PID.TID 0000.0001) %MON land_Tgr2_min_N              =  -4.0201222284142E+01
(PID.TID 0000.0001) %MON land_Tgr2_max_S              =   2.3359540247701E+01
(PID.TID 0000.0001) %MON land_Tgr2_max_T              =   3.1348699669864E+01
(PID.TID 0000.0001) %MON land_Tgr2_max_N              =   2.9817830763049E+01
(PID.TID 0000.0001) %MON land_grdW_ave_G              =   4.8670618616024E-01
(PID.TID 0000.0001) %MON land_grdW_ave_S              =   3.0847211324836E-01
(PID.TID 0000.0001) %MON land_grdW_ave_T              =   5.6405616376053E-01
(PID.TID 0000.0001) %MON land_grdW_ave_N              =   4.9287219319798E-01
(PID.TID 0000.0001) %MON land_grdW_min_S              =   2.8113689562657E-02
(PID.TID 0000.0001) %MON land_grdW_min_T              =   0.0000000000000E+00
(PID.TID 0000.0001) %MON land_grdW_min_N              =   0.0000000000000E+00
(PID.TID 0000.0001) // =======================================================
(PID.TID 0000.0001) // End MONITOR Land statistics
(PID.TID 0000.0001) // =======================================================
(PID.TID 0000.0001) // =======================================================
(PID.TID 0000.0001) // Begin MONITOR Therm.SeaIce statistics
(PID.TID 0000.0001) // =======================================================
(PID.TID 0000.0001) %MON thSI_time_sec                =   1.4400000000000E+04
(PID.TID 0000.0001) %MON thSI_Ice_Area_G              =   1.7277961383670E+11
(PID.TID 0000.0001) %MON thSI_Ice_Area_S              =   0.0000000000000E+00
(PID.TID 0000.0001) %MON thSI_Ice_Area_N              =   1.7277961383670E+11
(PID.TID 0000.0001) %MON thSI_IceH_ave_G              =   1.4007214561033E-01
(PID.TID 0000.0001) %MON thSI_IceH_ave_S              =   0.0000000000000E+00
(PID.TID 0000.0001) %MON thSI_IceH_ave_N              =   1.4007214561033E-01
(PID.TID 0000.0001) %MON thSI_IceH_max_S              =   0.0000000000000E+00
(PID.TID 0000.0001) %MON thSI_IceH_max_N              =   1.4930678131152E-01
(PID.TID 0000.0001) %MON thSI_SnwH_ave_G              =   0.0000000000000E+00
(PID.TID 0000.0001) %MON thSI_SnwH_ave_S              =   0.0000000000000E+00
(PID.TID 0000.0001) %MON thSI_SnwH_ave_N              =   0.0000000000000E+00
(PID.TID 0000.0001) %MON thSI_SnwH_max_S              =   0.0000000000000E+00
(PID.TID 0000.0001) %MON thSI_SnwH_max_N              =   0.0000000000000E+00
(PID.TID 0000.0001) %MON thSI_TotEnerg_G              =  -7.4901748850117E+18
(PID.TID 0000.0001) %MON thSI_Tsrf_ave_G              =  -9.3543930812112E+00
(PID.TID 0000.0001) %MON thSI_Tsrf_ave_S              =   0.0000000000000E+00
(PID.TID 0000.0001) %MON thSI_Tsrf_ave_N              =  -9.3543930812112E+00
(PID.TID 0000.0001) %MON thSI_Tsrf_min_S              =   0.0000000000000E+00
(PID.TID 0000.0001) %MON thSI_Tsrf_min_N              =  -9.5308972705241E+00
(PID.TID 0000.0001) %MON thSI_Tsrf_max_S              =   0.0000000000000E+00
(PID.TID 0000.0001) %MON thSI_Tsrf_max_N              =  -9.0228385011693E+00
(PID.TID 0000.0001) %MON thSI_Tic1_ave_G              =  -7.1448717200859E+00
(PID.TID 0000.0001) %MON thSI_Tic1_ave_S              =   0.0000000000000E+00
(PID.TID 0000.0001) %MON thSI_Tic1_ave_N              =  -7.1448717200859E+00
(PID.TID 0000.0001) %MON thSI_Tic1_min_S              =   0.0000000000000E+00
(PID.TID 0000.0001) %MON thSI_Tic1_min_N              =  -7.2121726489928E+00
(PID.TID 0000.0001) %MON thSI_Tic1_max_S              =   0.0000000000000E+00
(PID.TID 0000.0001) %MON thSI_Tic1_max_N              =  -7.0039802914809E+00
(PID.TID 0000.0001) %MON thSI_Tic2_ave_G              =  -3.3930383491153E+00
(PID.TID 0000.0001) %MON thSI_Tic2_ave_S              =   0.0000000000000E+00
(PID.TID 0000.0001) %MON thSI_Tic2_ave_N              =  -3.3930383491153E+00
(PID.TID 0000.0001) %MON thSI_Tic2_min_S              =   0.0000000000000E+00
(PID.TID 0000.0001) %MON thSI_Tic2_min_N              =  -3.4297598617546E+00
(PID.TID 0000.0001) %MON thSI_Tic2_max_S              =   0.0000000000000E+00
(PID.TID 0000.0001) %MON thSI_Tic2_max_N              =  -3.3473684455568E+00
(PID.TID 0000.0001) // =======================================================
(PID.TID 0000.0001) // End MONITOR Therm.SeaIce statistics
(PID.TID 0000.0001) // =======================================================
 cg2d: Sum(rhs),rhsMax =   2.79396772384644E-09  1.79038480007996E+04
(PID.TID 0000.0001)                    cg2d_init_res =    1.04882139083368E+04
(PID.TID 0000.0001)                       cg2d_iters =    16
(PID.TID 0000.0001)                         cg2d_res =    6.03668143252146E-11
(PID.TID 0000.0001) // =======================================================
(PID.TID 0000.0001) // Begin MONITOR dynamic field statistics
(PID.TID 0000.0001) // =======================================================
(PID.TID 0000.0001) %MON time_tsnumber                =                    33
(PID.TID 0000.0001) %MON time_secondsf                =   1.4850000000000E+04
(PID.TID 0000.0001) %MON dynstat_eta_max              =   3.0263255674223E+03
(PID.TID 0000.0001) %MON dynstat_eta_min              =  -7.5977750522913E+02
(PID.TID 0000.0001) %MON dynstat_eta_mean             =  -1.2852606224812E-14
(PID.TID 0000.0001) %MON dynstat_eta_sd               =   4.4601247249965E+02
(PID.TID 0000.0001) %MON dynstat_eta_del2             =   3.6179702342414E+01
(PID.TID 0000.0001) %MON dynstat_uvel_max             =   4.5401269433102E+00
(PID.TID 0000.0001) %MON dynstat_uvel_min             =  -4.8415015981959E+00
(PID.TID 0000.0001) %MON dynstat_uvel_mean            =   6.0134428254579E-02
(PID.TID 0000.0001) %MON dynstat_uvel_sd              =   7.7335611096524E-01
(PID.TID 0000.0001) %MON dynstat_uvel_del2            =   2.9174305644226E-02
(PID.TID 0000.0001) %MON dynstat_vvel_max             =   4.7455513434163E+00
(PID.TID 0000.0001) %MON dynstat_vvel_min             =  -5.0182359210653E+00
(PID.TID 0000.0001) %MON dynstat_vvel_mean            =   2.2373208902111E-02
(PID.TID 0000.0001) %MON dynstat_vvel_sd              =   8.0111915422800E-01
(PID.TID 0000.0001) %MON dynstat_vvel_del2            =   2.8953914235126E-02
(PID.TID 0000.0001) %MON dynstat_wvel_max             =   1.9727949018261E-01
(PID.TID 0000.0001) %MON dynstat_wvel_min             =  -9.3120929007302E-02
(PID.TID 0000.0001) %MON dynstat_wvel_mean            =   4.6016956516643E-04
(PID.TID 0000.0001) %MON dynstat_wvel_sd              =   9.7112557326764E-03
(PID.TID 0000.0001) %MON dynstat_wvel_del2            =   2.0975542643197E-03
(PID.TID 0000.0001) %MON dynstat_theta_max            =   4.3805805793723E+02
(PID.TID 0000.0001) %MON dynstat_theta_min            =   2.8193447097530E+02
(PID.TID 0000.0001) %MON dynstat_theta_mean           =   3.3166799610635E+02
(PID.TID 0000.0001) %MON dynstat_theta_sd             =   4.7469631440272E+01
(PID.TID 0000.0001) %MON dynstat_theta_del2           =   3.2930921689111E-02
(PID.TID 0000.0001) %MON dynstat_salt_max             =   4.8455341095697E+00
(PID.TID 0000.0001) %MON dynstat_salt_min             =  -2.9062164567000E-02
(PID.TID 0000.0001) %MON dynstat_salt_mean            =   1.1718814745973E-01
(PID.TID 0000.0001) %MON dynstat_salt_sd              =   4.5089931490376E-01
(PID.TID 0000.0001) %MON dynstat_salt_del2            =   1.3512697289263E-02
(PID.TID 0000.0001) %MON advcfl_uvel_max              =   6.8280528478353E-03
(PID.TID 0000.0001) %MON advcfl_vvel_max              =   7.2463276461493E-03
(PID.TID 0000.0001) %MON advcfl_wvel_max              =   3.2282098393517E-03
(PID.TID 0000.0001) %MON advcfl_W_hf_max              =   1.9183148273815E-02
(PID.TID 0000.0001) %MON pe_b_mean                    =  -1.2118544623082E+00
(PID.TID 0000.0001) %MON ke_max                       =   1.3323218441661E+01
(PID.TID 0000.0001) %MON ke_mean                      =   6.1827446428520E-01
(PID.TID 0000.0001) %MON ke_vol                       =   4.9523908919847E+19
(PID.TID 0000.0001) %MON vort_r_min                   =  -1.8541958868129E-05
(PID.TID 0000.0001) %MON vort_r_max                   =   1.3448066385916E-05
(PID.TID 0000.0001) %MON vort_a_mean                  =   6.7242814765261E-08
(PID.TID 0000.0001) %MON vort_a_sd                    =   8.4010147179635E-05
(PID.TID 0000.0001) %MON vort_p_mean                  =   6.8939478980467E-08
(PID.TID 0000.0001) %MON vort_p_sd                    =   9.1670436753732E-05
(PID.TID 0000.0001) %MON surfExpan_theta_mean         =  -4.4923605741944E-02
(PID.TID 0000.0001) %MON surfExpan_salt_mean          =  -1.6804784145705E-03
(PID.TID 0000.0001) %MON surfExpan_Heat_mean          =   3.5412364054435E+00
(PID.TID 0000.0001) %MON En_Budget_T2PE_mean          =  -6.8855213889914E+00
(PID.TID 0000.0001) // =======================================================
(PID.TID 0000.0001) // End MONITOR dynamic field statistics
(PID.TID 0000.0001) // =======================================================
(PID.TID 0000.0001) // =======================================================
(PID.TID 0000.0001) // Begin MONITOR Land statistics
(PID.TID 0000.0001) // =======================================================
(PID.TID 0000.0001) %MON land_time_sec                =   1.4850000000000E+04
(PID.TID 0000.0001) %MON land_SnwH_ave_G              =   1.5321608419497E-01
(PID.TID 0000.0001) %MON land_SnwH_ave_S              =   5.5903425915090E-01
(PID.TID 0000.0001) %MON land_SnwH_ave_T              =   0.0000000000000E+00
(PID.TID 0000.0001) %MON land_SnwH_ave_N              =   1.2388433594583E-01
(PID.TID 0000.0001) %MON land_SnwH_max_S              =   9.9998192528349E-01
(PID.TID 0000.0001) %MON land_SnwH_max_T              =   0.0000000000000E+00
(PID.TID 0000.0001) %MON land_SnwH_max_N              =   9.9999782976854E-01
(PID.TID 0000.0001) %MON land_TotEnerg_G              =  -6.3608106240915E+21
(PID.TID 0000.0001) %MON land_TotEnerg_S              =  -5.0024788237501E+21
(PID.TID 0000.0001) %MON land_TotEnerg_T              =   7.2730818930333E+21
(PID.TID 0000.0001) %MON land_TotEnerg_N              =  -8.6314136933747E+21
(PID.TID 0000.0001) %MON land_Tsrf_ave_G              =  -8.6264169019045E+00
(PID.TID 0000.0001) %MON land_Tsrf_ave_S              =  -7.3933697251494E+00
(PID.TID 0000.0001) %MON land_Tsrf_ave_T              =   9.7904809602898E+00
(PID.TID 0000.0001) %MON land_Tsrf_ave_N              =  -2.1324672653643E+01
(PID.TID 0000.0001) %MON land_Tsrf_min_S              =  -3.3559656389391E+01
(PID.TID 0000.0001) %MON land_Tsrf_min_T              =  -2.7724298040535E+00
(PID.TID 0000.0001) %MON land_Tsrf_min_N              =  -5.2016111399008E+01
(PID.TID 0000.0001) %MON land_Tsrf_max_S              =   1.9996881309671E+01
(PID.TID 0000.0001) %MON land_Tsrf_max_T              =   1.9856653840160E+01
(PID.TID 0000.0001) %MON land_Tsrf_max_N              =   7.7269538616887E+00
(PID.TID 0000.0001) %MON land_Tgr1_ave_G              =  -7.4374161343670E+00
(PID.TID 0000.0001) %MON land_Tgr1_ave_S              =  -7.2879194158312E+00
(PID.TID 0000.0001) %MON land_Tgr1_ave_T              =   9.7904809602898E+00
(PID.TID 0000.0001) %MON land_Tgr1_ave_N              =  -1.8990194974989E+01
(PID.TID 0000.0001) %MON land_Tgr1_min_S              =  -3.9360879082627E+01
(PID.TID 0000.0001) %MON land_Tgr1_min_T              =  -2.7724298040535E+00
(PID.TID 0000.0001) %MON land_Tgr1_min_N              =  -5.4595518486029E+01
(PID.TID 0000.0001) %MON land_Tgr1_max_S              =   1.9996881309671E+01
(PID.TID 0000.0001) %MON land_Tgr1_max_T              =   1.9856653840160E+01
(PID.TID 0000.0001) %MON land_Tgr1_max_N              =   7.7269538616887E+00
(PID.TID 0000.0001) %MON land_Tgr2_ave_G              =   4.2023239708021E+00
(PID.TID 0000.0001) %MON land_Tgr2_ave_S              =  -1.8725111394453E+01
(PID.TID 0000.0001) %MON land_Tgr2_ave_T              =   2.2007874548192E+01
(PID.TID 0000.0001) %MON land_Tgr2_ave_N              =  -2.5017871907154E-01
(PID.TID 0000.0001) %MON land_Tgr2_min_S              =  -6.4748067695763E+01
(PID.TID 0000.0001) %MON land_Tgr2_min_T              =  -9.7030855322754E+00
(PID.TID 0000.0001) %MON land_Tgr2_min_N              =  -4.0201455946865E+01
(PID.TID 0000.0001) %MON land_Tgr2_max_S              =   2.3359466800707E+01
(PID.TID 0000.0001) %MON land_Tgr2_max_T              =   3.1348252542592E+01
(PID.TID 0000.0001) %MON land_Tgr2_max_N              =   2.9817270298390E+01
(PID.TID 0000.0001) %MON land_grdW_ave_G              =   4.8669899472618E-01
(PID.TID 0000.0001) %MON land_grdW_ave_S              =   3.0846474742982E-01
(PID.TID 0000.0001) %MON land_grdW_ave_T              =   5.6403871854359E-01
(PID.TID 0000.0001) %MON land_grdW_ave_N              =   4.9287190550784E-01
(PID.TID 0000.0001) %MON land_grdW_min_S              =   2.8198967523025E-02
(PID.TID 0000.0001) %MON land_grdW_min_T              =   0.0000000000000E+00
(PID.TID 0000.0001) %MON land_grdW_min_N              =   0.0000000000000E+00
(PID.TID 0000.0001) // =======================================================
(PID.TID 0000.0001) // End MONITOR Land statistics
(PID.TID 0000.0001) // =======================================================
(PID.TID 0000.0001) // =======================================================
(PID.TID 0000.0001) // Begin MONITOR Therm.SeaIce statistics
(PID.TID 0000.0001) // =======================================================
(PID.TID 0000.0001) %MON thSI_time_sec                =   1.4850000000000E+04
(PID.TID 0000.0001) %MON thSI_Ice_Area_G              =   1.7511625227208E+11
(PID.TID 0000.0001) %MON thSI_Ice_Area_S              =   0.0000000000000E+00
(PID.TID 0000.0001) %MON thSI_Ice_Area_N              =   1.7511625227208E+11
(PID.TID 0000.0001) %MON thSI_IceH_ave_G              =   1.3968078221719E-01
(PID.TID 0000.0001) %MON thSI_IceH_ave_S              =   0.0000000000000E+00
(PID.TID 0000.0001) %MON thSI_IceH_ave_N              =   1.3968078221719E-01
(PID.TID 0000.0001) %MON thSI_IceH_max_S              =   0.0000000000000E+00
(PID.TID 0000.0001) %MON thSI_IceH_max_N              =   1.4944116251405E-01
(PID.TID 0000.0001) %MON thSI_SnwH_ave_G              =   0.0000000000000E+00
(PID.TID 0000.0001) %MON thSI_SnwH_ave_S              =   0.0000000000000E+00
(PID.TID 0000.0001) %MON thSI_SnwH_ave_N              =   0.0000000000000E+00
(PID.TID 0000.0001) %MON thSI_SnwH_max_S              =   0.0000000000000E+00
(PID.TID 0000.0001) %MON thSI_SnwH_max_N              =   0.0000000000000E+00
(PID.TID 0000.0001) %MON thSI_TotEnerg_G              =  -7.5696699669142E+18
(PID.TID 0000.0001) %MON thSI_Tsrf_ave_G              =  -9.2859899361549E+00
(PID.TID 0000.0001) %MON thSI_Tsrf_ave_S              =   0.0000000000000E+00
(PID.TID 0000.0001) %MON thSI_Tsrf_ave_N              =  -9.2859899361549E+00
(PID.TID 0000.0001) %MON thSI_Tsrf_min_S              =   0.0000000000000E+00
(PID.TID 0000.0001) %MON thSI_Tsrf_min_N              =  -9.5727849850935E+00
(PID.TID 0000.0001) %MON thSI_Tsrf_max_S              =   0.0000000000000E+00
(PID.TID 0000.0001) %MON thSI_Tsrf_max_N              =  -1.6817782302109E+00
(PID.TID 0000.0001) %MON thSI_Tic1_ave_G              =  -7.1418459951769E+00
(PID.TID 0000.0001) %MON thSI_Tic1_ave_S              =   0.0000000000000E+00
(PID.TID 0000.0001) %MON thSI_Tic1_ave_N              =  -7.1418459951769E+00
(PID.TID 0000.0001) %MON thSI_Tic1_min_S              =   0.0000000000000E+00
(PID.TID 0000.0001) %MON thSI_Tic1_min_N              =  -7.2662132372558E+00
(PID.TID 0000.0001) %MON thSI_Tic1_max_S              =   0.0000000000000E+00
(PID.TID 0000.0001) %MON thSI_Tic1_max_N              =  -1.6817782302109E+00
(PID.TID 0000.0001) %MON thSI_Tic2_ave_G              =  -3.3996780469507E+00
(PID.TID 0000.0001) %MON thSI_Tic2_ave_S              =   0.0000000000000E+00
(PID.TID 0000.0001) %MON thSI_Tic2_ave_N              =  -3.3996780469507E+00
(PID.TID 0000.0001) %MON thSI_Tic2_min_S              =   0.0000000000000E+00
(PID.TID 0000.0001) %MON thSI_Tic2_min_N              =  -3.4538224442189E+00
(PID.TID 0000.0001) %MON thSI_Tic2_max_S              =   0.0000000000000E+00
(PID.TID 0000.0001) %MON thSI_Tic2_max_N              =  -1.6817782302109E+00
(PID.TID 0000.0001) // =======================================================
(PID.TID 0000.0001) // End MONITOR Therm.SeaIce statistics
(PID.TID 0000.0001) // =======================================================
 cg2d: Sum(rhs),rhsMax =   3.25962901115417E-09  1.76215362006122E+04
(PID.TID 0000.0001)                    cg2d_init_res =    1.03032062164881E+04
(PID.TID 0000.0001)                       cg2d_iters =    16
(PID.TID 0000.0001)                         cg2d_res =    5.85711042083102E-11
(PID.TID 0000.0001) // =======================================================
(PID.TID 0000.0001) // Begin MONITOR dynamic field statistics
(PID.TID 0000.0001) // =======================================================
(PID.TID 0000.0001) %MON time_tsnumber                =                    34
(PID.TID 0000.0001) %MON time_secondsf                =   1.5300000000000E+04
(PID.TID 0000.0001) %MON dynstat_eta_max              =   2.9752732571681E+03
(PID.TID 0000.0001) %MON dynstat_eta_min              =  -7.6130359699081E+02
(PID.TID 0000.0001) %MON dynstat_eta_mean             =   0.0000000000000E+00
(PID.TID 0000.0001) %MON dynstat_eta_sd               =   4.3972168271871E+02
(PID.TID 0000.0001) %MON dynstat_eta_del2             =   3.6224638082134E+01
(PID.TID 0000.0001) %MON dynstat_uvel_max             =   4.4000434782967E+00
(PID.TID 0000.0001) %MON dynstat_uvel_min             =  -4.6554982030367E+00
(PID.TID 0000.0001) %MON dynstat_uvel_mean            =   6.7051832593616E-02
(PID.TID 0000.0001) %MON dynstat_uvel_sd              =   7.6472030101045E-01
(PID.TID 0000.0001) %MON dynstat_uvel_del2            =   2.9905499626412E-02
(PID.TID 0000.0001) %MON dynstat_vvel_max             =   4.5785836888683E+00
(PID.TID 0000.0001) %MON dynstat_vvel_min             =  -4.8071380282130E+00
(PID.TID 0000.0001) %MON dynstat_vvel_mean            =   2.2531812497492E-02
(PID.TID 0000.0001) %MON dynstat_vvel_sd              =   7.9354792213911E-01
(PID.TID 0000.0001) %MON dynstat_vvel_del2            =   2.9598629509709E-02
(PID.TID 0000.0001) %MON dynstat_wvel_max             =   1.8216439547836E-01
(PID.TID 0000.0001) %MON dynstat_wvel_min             =  -9.3723697845630E-02
(PID.TID 0000.0001) %MON dynstat_wvel_mean            =   4.1621598998541E-04
(PID.TID 0000.0001) %MON dynstat_wvel_sd              =   9.5213931718415E-03
(PID.TID 0000.0001) %MON dynstat_wvel_del2            =   2.1184097678157E-03
(PID.TID 0000.0001) %MON dynstat_theta_max            =   4.3807194297064E+02
(PID.TID 0000.0001) %MON dynstat_theta_min            =   2.8172202477278E+02
(PID.TID 0000.0001) %MON dynstat_theta_mean           =   3.3166569968659E+02
(PID.TID 0000.0001) %MON dynstat_theta_sd             =   4.7471734574412E+01
(PID.TID 0000.0001) %MON dynstat_theta_del2           =   3.3872075579060E-02
(PID.TID 0000.0001) %MON dynstat_salt_max             =   4.8771485483634E+00
(PID.TID 0000.0001) %MON dynstat_salt_min             =  -3.1482032380118E-02
(PID.TID 0000.0001) %MON dynstat_salt_mean            =   1.2047357287904E-01
(PID.TID 0000.0001) %MON dynstat_salt_sd              =   4.6202255813002E-01
(PID.TID 0000.0001) %MON dynstat_salt_del2            =   1.3824177980344E-02
(PID.TID 0000.0001) %MON advcfl_uvel_max              =   6.5657290653756E-03
(PID.TID 0000.0001) %MON advcfl_vvel_max              =   7.5493087624011E-03
(PID.TID 0000.0001) %MON advcfl_wvel_max              =   2.9808719260095E-03
(PID.TID 0000.0001) %MON advcfl_W_hf_max              =   1.9019675979089E-02
(PID.TID 0000.0001) %MON pe_b_mean                    =  -1.2054234245756E+00
(PID.TID 0000.0001) %MON ke_max                       =   1.2323593907956E+01
(PID.TID 0000.0001) %MON ke_mean                      =   6.0610931389055E-01
(PID.TID 0000.0001) %MON ke_vol                       =   4.9523908919847E+19
(PID.TID 0000.0001) %MON vort_r_min                   =  -1.7951376854467E-05
(PID.TID 0000.0001) %MON vort_r_max                   =   1.4082019336141E-05
(PID.TID 0000.0001) %MON vort_a_mean                  =   6.7242814765303E-08
(PID.TID 0000.0001) %MON vort_a_sd                    =   8.4012169071442E-05
(PID.TID 0000.0001) %MON vort_p_mean                  =   6.8939480153278E-08
(PID.TID 0000.0001) %MON vort_p_sd                    =   9.1658419749835E-05
(PID.TID 0000.0001) %MON surfExpan_theta_mean         =  -4.0465022892112E-02
(PID.TID 0000.0001) %MON surfExpan_salt_mean          =  -1.7373398925170E-03
(PID.TID 0000.0001) %MON surfExpan_Heat_mean          =   3.1775446016126E+00
(PID.TID 0000.0001) %MON En_Budget_T2PE_mean          =  -6.1970908569016E+00
(PID.TID 0000.0001) // =======================================================
(PID.TID 0000.0001) // End MONITOR dynamic field statistics
(PID.TID 0000.0001) // =======================================================
(PID.TID 0000.0001) // =======================================================
(PID.TID 0000.0001) // Begin MONITOR Land statistics
(PID.TID 0000.0001) // =======================================================
(PID.TID 0000.0001) %MON land_time_sec                =   1.5300000000000E+04
(PID.TID 0000.0001) %MON land_SnwH_ave_G              =   1.5321514854943E-01
(PID.TID 0000.0001) %MON land_SnwH_ave_S              =   5.5903341391753E-01
(PID.TID 0000.0001) %MON land_SnwH_ave_T              =   0.0000000000000E+00
(PID.TID 0000.0001) %MON land_SnwH_ave_N              =   1.2388274617456E-01
(PID.TID 0000.0001) %MON land_SnwH_max_S              =   9.9998135824121E-01
(PID.TID 0000.0001) %MON land_SnwH_max_T              =   0.0000000000000E+00
(PID.TID 0000.0001) %MON land_SnwH_max_N              =   9.9999776578788E-01
(PID.TID 0000.0001) %MON land_TotEnerg_G              =  -6.3617322945955E+21
(PID.TID 0000.0001) %MON land_TotEnerg_S              =  -5.0024830032709E+21
(PID.TID 0000.0001) %MON land_TotEnerg_T              =   7.2726816797288E+21
(PID.TID 0000.0001) %MON land_TotEnerg_N              =  -8.6319309710533E+21
(PID.TID 0000.0001) %MON land_Tsrf_ave_G              =  -8.6455533981572E+00
(PID.TID 0000.0001) %MON land_Tsrf_ave_S              =  -7.3941479946191E+00
(PID.TID 0000.0001) %MON land_Tsrf_ave_T              =   9.7488869018663E+00
(PID.TID 0000.0001) %MON land_Tsrf_ave_N              =  -2.1334767947254E+01
(PID.TID 0000.0001) %MON land_Tsrf_min_S              =  -3.3529433783035E+01
(PID.TID 0000.0001) %MON land_Tsrf_min_T              =  -2.7128413998206E+00
(PID.TID 0000.0001) %MON land_Tsrf_min_N              =  -5.2009631167972E+01
(PID.TID 0000.0001) %MON land_Tsrf_max_S              =   1.9976736628764E+01
(PID.TID 0000.0001) %MON land_Tsrf_max_T              =   1.9805755503805E+01
(PID.TID 0000.0001) %MON land_Tsrf_max_N              =   7.6597132504125E+00
(PID.TID 0000.0001) %MON land_Tgr1_ave_G              =  -7.4599112789001E+00
(PID.TID 0000.0001) %MON land_Tgr1_ave_S              =  -7.2954187457957E+00
(PID.TID 0000.0001) %MON land_Tgr1_ave_T              =   9.7488869018663E+00
(PID.TID 0000.0001) %MON land_Tgr1_ave_N              =  -1.9004800977390E+01
(PID.TID 0000.0001) %MON land_Tgr1_min_S              =  -3.9371496742265E+01
(PID.TID 0000.0001) %MON land_Tgr1_min_T              =  -2.7128413998206E+00
(PID.TID 0000.0001) %MON land_Tgr1_min_N              =  -5.4583180851614E+01
(PID.TID 0000.0001) %MON land_Tgr1_max_S              =   1.9976736628764E+01
(PID.TID 0000.0001) %MON land_Tgr1_max_T              =   1.9805755503805E+01
(PID.TID 0000.0001) %MON land_Tgr1_max_N              =   7.6597132504125E+00
(PID.TID 0000.0001) %MON land_Tgr2_ave_G              =   4.2021455576978E+00
(PID.TID 0000.0001) %MON land_Tgr2_ave_S              =  -1.8724919691205E+01
(PID.TID 0000.0001) %MON land_Tgr2_ave_T              =   2.2007677696137E+01
(PID.TID 0000.0001) %MON land_Tgr2_ave_N              =  -2.5046488267700E-01
(PID.TID 0000.0001) %MON land_Tgr2_min_S              =  -6.4747640081051E+01
(PID.TID 0000.0001) %MON land_Tgr2_min_T              =  -9.7029968716496E+00
(PID.TID 0000.0001) %MON land_Tgr2_min_N              =  -4.0201689380837E+01
(PID.TID 0000.0001) %MON land_Tgr2_max_S              =   2.3359392656150E+01
(PID.TID 0000.0001) %MON land_Tgr2_max_T              =   3.1347803882637E+01
(PID.TID 0000.0001) %MON land_Tgr2_max_N              =   2.9816706312524E+01
(PID.TID 0000.0001) %MON land_grdW_ave_G              =   4.8669184950241E-01
(PID.TID 0000.0001) %MON land_grdW_ave_S              =   3.0845741004679E-01
(PID.TID 0000.0001) %MON land_grdW_ave_T              =   5.6402139778952E-01
(PID.TID 0000.0001) %MON land_grdW_ave_N              =   4.9287161753923E-01
(PID.TID 0000.0001) %MON land_grdW_min_S              =   2.8283805862890E-02
(PID.TID 0000.0001) %MON land_grdW_min_T              =   0.0000000000000E+00
(PID.TID 0000.0001) %MON land_grdW_min_N              =   0.0000000000000E+00
(PID.TID 0000.0001) // =======================================================
(PID.TID 0000.0001) // End MONITOR Land statistics
(PID.TID 0000.0001) // =======================================================
(PID.TID 0000.0001) // =======================================================
(PID.TID 0000.0001) // Begin MONITOR Therm.SeaIce statistics
(PID.TID 0000.0001) // =======================================================
(PID.TID 0000.0001) %MON thSI_time_sec                =   1.5300000000000E+04
(PID.TID 0000.0001) %MON thSI_Ice_Area_G              =   1.7739557186256E+11
(PID.TID 0000.0001) %MON thSI_Ice_Area_S              =   0.0000000000000E+00
(PID.TID 0000.0001) %MON thSI_Ice_Area_N              =   1.7739557186256E+11
(PID.TID 0000.0001) %MON thSI_IceH_ave_G              =   1.3934282164907E-01
(PID.TID 0000.0001) %MON thSI_IceH_ave_S              =   0.0000000000000E+00
(PID.TID 0000.0001) %MON thSI_IceH_ave_N              =   1.3934282164907E-01
(PID.TID 0000.0001) %MON thSI_IceH_max_S              =   0.0000000000000E+00
(PID.TID 0000.0001) %MON thSI_IceH_max_N              =   1.4957744075635E-01
(PID.TID 0000.0001) %MON thSI_SnwH_ave_G              =   0.0000000000000E+00
(PID.TID 0000.0001) %MON thSI_SnwH_ave_S              =   0.0000000000000E+00
(PID.TID 0000.0001) %MON thSI_SnwH_ave_N              =   0.0000000000000E+00
(PID.TID 0000.0001) %MON thSI_SnwH_max_S              =   0.0000000000000E+00
(PID.TID 0000.0001) %MON thSI_SnwH_max_N              =   0.0000000000000E+00
(PID.TID 0000.0001) %MON thSI_TotEnerg_G              =  -7.6492565488593E+18
(PID.TID 0000.0001) %MON thSI_Tsrf_ave_G              =  -9.2741383803548E+00
(PID.TID 0000.0001) %MON thSI_Tsrf_ave_S              =   0.0000000000000E+00
(PID.TID 0000.0001) %MON thSI_Tsrf_ave_N              =  -9.2741383803548E+00
(PID.TID 0000.0001) %MON thSI_Tsrf_min_S              =   0.0000000000000E+00
(PID.TID 0000.0001) %MON thSI_Tsrf_min_N              =  -9.6107540523052E+00
(PID.TID 0000.0001) %MON thSI_Tsrf_max_S              =   0.0000000000000E+00
(PID.TID 0000.0001) %MON thSI_Tsrf_max_N              =  -3.8537041238080E+00
(PID.TID 0000.0001) %MON thSI_Tic1_ave_G              =  -7.1384194917023E+00
(PID.TID 0000.0001) %MON thSI_Tic1_ave_S              =   0.0000000000000E+00
(PID.TID 0000.0001) %MON thSI_Tic1_ave_N              =  -7.1384194917023E+00
(PID.TID 0000.0001) %MON thSI_Tic1_min_S              =   0.0000000000000E+00
(PID.TID 0000.0001) %MON thSI_Tic1_min_N              =  -7.3155771086617E+00
(PID.TID 0000.0001) %MON thSI_Tic1_max_S              =   0.0000000000000E+00
(PID.TID 0000.0001) %MON thSI_Tic1_max_N              =  -1.8780672658840E+00
(PID.TID 0000.0001) %MON thSI_Tic2_ave_G              =  -3.4048159894791E+00
(PID.TID 0000.0001) %MON thSI_Tic2_ave_S              =   0.0000000000000E+00
(PID.TID 0000.0001) %MON thSI_Tic2_ave_N              =  -3.4048159894791E+00
(PID.TID 0000.0001) %MON thSI_Tic2_min_S              =   0.0000000000000E+00
(PID.TID 0000.0001) %MON thSI_Tic2_min_N              =  -3.4759149377856E+00
(PID.TID 0000.0001) %MON thSI_Tic2_max_S              =   0.0000000000000E+00
(PID.TID 0000.0001) %MON thSI_Tic2_max_N              =  -1.7057533651337E+00
(PID.TID 0000.0001) // =======================================================
(PID.TID 0000.0001) // End MONITOR Therm.SeaIce statistics
(PID.TID 0000.0001) // =======================================================
 cg2d: Sum(rhs),rhsMax =   2.56113708019257E-09  1.73996149014174E+04
(PID.TID 0000.0001)                    cg2d_init_res =    1.01222182787898E+04
(PID.TID 0000.0001)                       cg2d_iters =    16
(PID.TID 0000.0001)                         cg2d_res =    5.66682084739575E-11
(PID.TID 0000.0001) // =======================================================
(PID.TID 0000.0001) // Begin MONITOR dynamic field statistics
(PID.TID 0000.0001) // =======================================================
(PID.TID 0000.0001) %MON time_tsnumber                =                    35
(PID.TID 0000.0001) %MON time_secondsf                =   1.5750000000000E+04
(PID.TID 0000.0001) %MON dynstat_eta_max              =   2.9759732407609E+03
(PID.TID 0000.0001) %MON dynstat_eta_min              =  -7.6344583890287E+02
(PID.TID 0000.0001) %MON dynstat_eta_mean             =   7.0689334236469E-14
(PID.TID 0000.0001) %MON dynstat_eta_sd               =   4.3454493001793E+02
(PID.TID 0000.0001) %MON dynstat_eta_del2             =   3.6271367492606E+01
(PID.TID 0000.0001) %MON dynstat_uvel_max             =   4.2761427585411E+00
(PID.TID 0000.0001) %MON dynstat_uvel_min             =  -4.4140813335699E+00
(PID.TID 0000.0001) %MON dynstat_uvel_mean            =   7.3773127951474E-02
(PID.TID 0000.0001) %MON dynstat_uvel_sd              =   7.5613943107583E-01
(PID.TID 0000.0001) %MON dynstat_uvel_del2            =   3.0671442833043E-02
(PID.TID 0000.0001) %MON dynstat_vvel_max             =   4.4233759505794E+00
(PID.TID 0000.0001) %MON dynstat_vvel_min             =  -4.6056399717996E+00
(PID.TID 0000.0001) %MON dynstat_vvel_mean            =   2.3066562366409E-02
(PID.TID 0000.0001) %MON dynstat_vvel_sd              =   7.8519235844864E-01
(PID.TID 0000.0001) %MON dynstat_vvel_del2            =   3.0275344555520E-02
(PID.TID 0000.0001) %MON dynstat_wvel_max             =   1.6397516053937E-01
(PID.TID 0000.0001) %MON dynstat_wvel_min             =  -9.2945905165365E-02
(PID.TID 0000.0001) %MON dynstat_wvel_mean            =   3.7067408590321E-04
(PID.TID 0000.0001) %MON dynstat_wvel_sd              =   9.3507487469778E-03
(PID.TID 0000.0001) %MON dynstat_wvel_del2            =   2.1387604877284E-03
(PID.TID 0000.0001) %MON dynstat_theta_max            =   4.3807856104164E+02
(PID.TID 0000.0001) %MON dynstat_theta_min            =   2.8150976019284E+02
(PID.TID 0000.0001) %MON dynstat_theta_mean           =   3.3166338461167E+02
(PID.TID 0000.0001) %MON dynstat_theta_sd             =   4.7473846620973E+01
(PID.TID 0000.0001) %MON dynstat_theta_del2           =   3.4804513535520E-02
(PID.TID 0000.0001) %MON dynstat_salt_max             =   4.9075174951713E+00
(PID.TID 0000.0001) %MON dynstat_salt_min             =  -3.3954266556315E-02
(PID.TID 0000.0001) %MON dynstat_salt_mean            =   1.2374936065932E-01
(PID.TID 0000.0001) %MON dynstat_salt_sd              =   4.7305565844211E-01
(PID.TID 0000.0001) %MON dynstat_salt_del2            =   1.4132316800251E-02
(PID.TID 0000.0001) %MON advcfl_uvel_max              =   6.2252547084751E-03
(PID.TID 0000.0001) %MON advcfl_vvel_max              =   7.7159331190646E-03
(PID.TID 0000.0001) %MON advcfl_wvel_max              =   2.6832298997351E-03
(PID.TID 0000.0001) %MON advcfl_W_hf_max              =   1.8903656445299E-02
(PID.TID 0000.0001) %MON pe_b_mean                    =  -1.1983357335750E+00
(PID.TID 0000.0001) %MON ke_max                       =   1.1336209237502E+01
(PID.TID 0000.0001) %MON ke_mean                      =   5.9354646555838E-01
(PID.TID 0000.0001) %MON ke_vol                       =   4.9523908919847E+19
(PID.TID 0000.0001) %MON vort_r_min                   =  -1.7359135214454E-05
(PID.TID 0000.0001) %MON vort_r_max                   =   1.4735701500292E-05
(PID.TID 0000.0001) %MON vort_a_mean                  =   6.7242814765321E-08
(PID.TID 0000.0001) %MON vort_a_sd                    =   8.4014104979526E-05
(PID.TID 0000.0001) %MON vort_p_mean                  =   6.8939481051675E-08
(PID.TID 0000.0001) %MON vort_p_sd                    =   9.1647584881819E-05
(PID.TID 0000.0001) %MON surfExpan_theta_mean         =  -3.5897424401131E-02
(PID.TID 0000.0001) %MON surfExpan_salt_mean          =  -1.7822515891567E-03
(PID.TID 0000.0001) %MON surfExpan_Heat_mean          =   2.8036361939304E+00
(PID.TID 0000.0001) %MON En_Budget_T2PE_mean          =  -5.4895230333673E+00
(PID.TID 0000.0001) // =======================================================
(PID.TID 0000.0001) // End MONITOR dynamic field statistics
(PID.TID 0000.0001) // =======================================================
(PID.TID 0000.0001) // =======================================================
(PID.TID 0000.0001) // Begin MONITOR Land statistics
(PID.TID 0000.0001) // =======================================================
(PID.TID 0000.0001) %MON land_time_sec                =   1.5750000000000E+04
(PID.TID 0000.0001) %MON land_SnwH_ave_G              =   1.5321421501159E-01
(PID.TID 0000.0001) %MON land_SnwH_ave_S              =   5.5903257298924E-01
(PID.TID 0000.0001) %MON land_SnwH_ave_T              =   0.0000000000000E+00
(PID.TID 0000.0001) %MON land_SnwH_ave_N              =   1.2388115920563E-01
(PID.TID 0000.0001) %MON land_SnwH_max_S              =   9.9998078958314E-01
(PID.TID 0000.0001) %MON land_SnwH_max_T              =   0.0000000000000E+00
(PID.TID 0000.0001) %MON land_SnwH_max_N              =   9.9999770174508E-01
(PID.TID 0000.0001) %MON land_TotEnerg_G              =  -6.3626167901799E+21
(PID.TID 0000.0001) %MON land_TotEnerg_S              =  -5.0024834789728E+21
(PID.TID 0000.0001) %MON land_TotEnerg_T              =   7.2723068655666E+21
(PID.TID 0000.0001) %MON land_TotEnerg_N              =  -8.6324401767737E+21
(PID.TID 0000.0001) %MON land_Tsrf_ave_G              =  -8.6629246567050E+00
(PID.TID 0000.0001) %MON land_Tsrf_ave_S              =  -7.3917493302463E+00
(PID.TID 0000.0001) %MON land_Tsrf_ave_T              =   9.7104339506222E+00
(PID.TID 0000.0001) %MON land_Tsrf_ave_N              =  -2.1344474713956E+01
(PID.TID 0000.0001) %MON land_Tsrf_min_S              =  -3.3498493925743E+01
(PID.TID 0000.0001) %MON land_Tsrf_min_T              =  -2.8231653837959E+00
(PID.TID 0000.0001) %MON land_Tsrf_min_N              =  -5.2002352788006E+01
(PID.TID 0000.0001) %MON land_Tsrf_max_S              =   1.9960998503691E+01
(PID.TID 0000.0001) %MON land_Tsrf_max_T              =   1.9761459671818E+01
(PID.TID 0000.0001) %MON land_Tsrf_max_N              =   7.5976174749475E+00
(PID.TID 0000.0001) %MON land_Tgr1_ave_G              =  -7.4809733385749E+00
(PID.TID 0000.0001) %MON land_Tgr1_ave_S              =  -7.3018396316436E+00
(PID.TID 0000.0001) %MON land_Tgr1_ave_T              =   9.7104339506222E+00
(PID.TID 0000.0001) %MON land_Tgr1_ave_N              =  -1.9018999418712E+01
(PID.TID 0000.0001) %MON land_Tgr1_min_S              =  -3.9382066303482E+01
(PID.TID 0000.0001) %MON land_Tgr1_min_T              =  -2.8231653837959E+00
(PID.TID 0000.0001) %MON land_Tgr1_min_N              =  -5.4570856510390E+01
(PID.TID 0000.0001) %MON land_Tgr1_max_S              =   1.9960998503691E+01
(PID.TID 0000.0001) %MON land_Tgr1_max_T              =   1.9761459671818E+01
(PID.TID 0000.0001) %MON land_Tgr1_max_N              =   7.5976174749475E+00
(PID.TID 0000.0001) %MON land_Tgr2_ave_G              =   4.2019668984934E+00
(PID.TID 0000.0001) %MON land_Tgr2_ave_S              =  -1.8724728092294E+01
(PID.TID 0000.0001) %MON land_Tgr2_ave_T              =   2.2007480358831E+01
(PID.TID 0000.0001) %MON land_Tgr2_ave_N              =  -2.5075117867069E-01
(PID.TID 0000.0001) %MON land_Tgr2_min_S              =  -6.4747212667452E+01
(PID.TID 0000.0001) %MON land_Tgr2_min_T              =  -9.7029071589655E+00
(PID.TID 0000.0001) %MON land_Tgr2_min_N              =  -4.0201922586756E+01
(PID.TID 0000.0001) %MON land_Tgr2_max_S              =   2.3359317900521E+01
(PID.TID 0000.0001) %MON land_Tgr2_max_T              =   3.1347353796884E+01
(PID.TID 0000.0001) %MON land_Tgr2_max_N              =   2.9816138942575E+01
(PID.TID 0000.0001) %MON land_grdW_ave_G              =   4.8668474619707E-01
(PID.TID 0000.0001) %MON land_grdW_ave_S              =   3.0845009853057E-01
(PID.TID 0000.0001) %MON land_grdW_ave_T              =   5.6400418950444E-01
(PID.TID 0000.0001) %MON land_grdW_ave_N              =   4.9287132958452E-01
(PID.TID 0000.0001) %MON land_grdW_min_S              =   2.8368152683655E-02
(PID.TID 0000.0001) %MON land_grdW_min_T              =   0.0000000000000E+00
(PID.TID 0000.0001) %MON land_grdW_min_N              =   0.0000000000000E+00
(PID.TID 0000.0001) // =======================================================
(PID.TID 0000.0001) // End MONITOR Land statistics
(PID.TID 0000.0001) // =======================================================
(PID.TID 0000.0001) // =======================================================
(PID.TID 0000.0001) // Begin MONITOR Therm.SeaIce statistics
(PID.TID 0000.0001) // =======================================================
(PID.TID 0000.0001) %MON thSI_time_sec                =   1.5750000000000E+04
(PID.TID 0000.0001) %MON thSI_Ice_Area_G              =   1.7961980111403E+11
(PID.TID 0000.0001) %MON thSI_Ice_Area_S              =   0.0000000000000E+00
(PID.TID 0000.0001) %MON thSI_Ice_Area_N              =   1.7961980111403E+11
(PID.TID 0000.0001) %MON thSI_IceH_ave_G              =   1.3905442036880E-01
(PID.TID 0000.0001) %MON thSI_IceH_ave_S              =   0.0000000000000E+00
(PID.TID 0000.0001) %MON thSI_IceH_ave_N              =   1.3905442036880E-01
(PID.TID 0000.0001) %MON thSI_IceH_max_S              =   0.0000000000000E+00
(PID.TID 0000.0001) %MON thSI_IceH_max_N              =   1.4971545928515E-01
(PID.TID 0000.0001) %MON thSI_SnwH_ave_G              =   0.0000000000000E+00
(PID.TID 0000.0001) %MON thSI_SnwH_ave_S              =   0.0000000000000E+00
(PID.TID 0000.0001) %MON thSI_SnwH_ave_N              =   0.0000000000000E+00
(PID.TID 0000.0001) %MON thSI_SnwH_max_S              =   0.0000000000000E+00
(PID.TID 0000.0001) %MON thSI_SnwH_max_N              =   0.0000000000000E+00
(PID.TID 0000.0001) %MON thSI_TotEnerg_G              =  -7.7289279668792E+18
(PID.TID 0000.0001) %MON thSI_Tsrf_ave_G              =  -9.2408674943635E+00
(PID.TID 0000.0001) %MON thSI_Tsrf_ave_S              =   0.0000000000000E+00
(PID.TID 0000.0001) %MON thSI_Tsrf_ave_N              =  -9.2408674943635E+00
(PID.TID 0000.0001) %MON thSI_Tsrf_min_S              =   0.0000000000000E+00
(PID.TID 0000.0001) %MON thSI_Tsrf_min_N              =  -9.6436754142850E+00
(PID.TID 0000.0001) %MON thSI_Tsrf_max_S              =   0.0000000000000E+00
(PID.TID 0000.0001) %MON thSI_Tsrf_max_N              =  -4.0795650409817E+00
(PID.TID 0000.0001) %MON thSI_Tic1_ave_G              =  -7.1357273944190E+00
(PID.TID 0000.0001) %MON thSI_Tic1_ave_S              =   0.0000000000000E+00
(PID.TID 0000.0001) %MON thSI_Tic1_ave_N              =  -7.1357273944190E+00
(PID.TID 0000.0001) %MON thSI_Tic1_min_S              =   0.0000000000000E+00
(PID.TID 0000.0001) %MON thSI_Tic1_min_N              =  -7.3607133194129E+00
(PID.TID 0000.0001) %MON thSI_Tic1_max_S              =   0.0000000000000E+00
(PID.TID 0000.0001) %MON thSI_Tic1_max_N              =  -2.1075244571816E+00
(PID.TID 0000.0001) %MON thSI_Tic2_ave_G              =  -3.4091223968347E+00
(PID.TID 0000.0001) %MON thSI_Tic2_ave_S              =   0.0000000000000E+00
(PID.TID 0000.0001) %MON thSI_Tic2_ave_N              =  -3.4091223968347E+00
(PID.TID 0000.0001) %MON thSI_Tic2_min_S              =   0.0000000000000E+00
(PID.TID 0000.0001) %MON thSI_Tic2_min_N              =  -3.4961697406185E+00
(PID.TID 0000.0001) %MON thSI_Tic2_max_S              =   0.0000000000000E+00
(PID.TID 0000.0001) %MON thSI_Tic2_max_N              =  -1.7479682674578E+00
(PID.TID 0000.0001) // =======================================================
(PID.TID 0000.0001) // End MONITOR Therm.SeaIce statistics
(PID.TID 0000.0001) // =======================================================
 cg2d: Sum(rhs),rhsMax =  -1.86264514923096E-09  1.72286099257510E+04
(PID.TID 0000.0001)                    cg2d_init_res =    9.95049441395717E+03
(PID.TID 0000.0001)                       cg2d_iters =    16
(PID.TID 0000.0001)                         cg2d_res =    5.55037183318479E-11
(PID.TID 0000.0001) // =======================================================
(PID.TID 0000.0001) // Begin MONITOR dynamic field statistics
(PID.TID 0000.0001) // =======================================================
(PID.TID 0000.0001) %MON time_tsnumber                =                    36
(PID.TID 0000.0001) %MON time_secondsf                =   1.6200000000000E+04
(PID.TID 0000.0001) %MON dynstat_eta_max              =   3.0019494111473E+03
(PID.TID 0000.0001) %MON dynstat_eta_min              =  -7.8638689001892E+02
(PID.TID 0000.0001) %MON dynstat_eta_mean             =   5.1410424899250E-14
(PID.TID 0000.0001) %MON dynstat_eta_sd               =   4.3046963180126E+02
(PID.TID 0000.0001) %MON dynstat_eta_del2             =   3.6316136341501E+01
(PID.TID 0000.0001) %MON dynstat_uvel_max             =   4.1656857340631E+00
(PID.TID 0000.0001) %MON dynstat_uvel_min             =  -4.1349508848784E+00
(PID.TID 0000.0001) %MON dynstat_uvel_mean            =   8.0196020912580E-02
(PID.TID 0000.0001) %MON dynstat_uvel_sd              =   7.4759489270328E-01
(PID.TID 0000.0001) %MON dynstat_uvel_del2            =   3.1452980563773E-02
(PID.TID 0000.0001) %MON dynstat_vvel_max             =   4.2547495489277E+00
(PID.TID 0000.0001) %MON dynstat_vvel_min             =  -4.4179098294584E+00
(PID.TID 0000.0001) %MON dynstat_vvel_mean            =   2.4018574237796E-02
(PID.TID 0000.0001) %MON dynstat_vvel_sd              =   7.7634324360333E-01
(PID.TID 0000.0001) %MON dynstat_vvel_del2            =   3.1013810989701E-02
(PID.TID 0000.0001) %MON dynstat_wvel_max             =   1.4355642313017E-01
(PID.TID 0000.0001) %MON dynstat_wvel_min             =  -9.1544879571039E-02
(PID.TID 0000.0001) %MON dynstat_wvel_mean            =   3.2504374182330E-04
(PID.TID 0000.0001) %MON dynstat_wvel_sd              =   9.2111583648169E-03
(PID.TID 0000.0001) %MON dynstat_wvel_del2            =   2.1627322473189E-03
(PID.TID 0000.0001) %MON dynstat_theta_max            =   4.3819952312045E+02
(PID.TID 0000.0001) %MON dynstat_theta_min            =   2.8129753208607E+02
(PID.TID 0000.0001) %MON dynstat_theta_mean           =   3.3166105230364E+02
(PID.TID 0000.0001) %MON dynstat_theta_sd             =   4.7475967959048E+01
(PID.TID 0000.0001) %MON dynstat_theta_del2           =   3.5728565133058E-02
(PID.TID 0000.0001) %MON dynstat_salt_max             =   4.9368592634960E+00
(PID.TID 0000.0001) %MON dynstat_salt_min             =  -3.6476039263077E-02
(PID.TID 0000.0001) %MON dynstat_salt_mean            =   1.2701562071942E-01
(PID.TID 0000.0001) %MON dynstat_salt_sd              =   4.8399930805743E-01
(PID.TID 0000.0001) %MON dynstat_salt_del2            =   1.4439421473250E-02
(PID.TID 0000.0001) %MON advcfl_uvel_max              =   6.0598315820549E-03
(PID.TID 0000.0001) %MON advcfl_vvel_max              =   7.7308236134049E-03
(PID.TID 0000.0001) %MON advcfl_wvel_max              =   2.6398079955892E-03
(PID.TID 0000.0001) %MON advcfl_W_hf_max              =   1.9928959082102E-02
(PID.TID 0000.0001) %MON pe_b_mean                    =  -1.1908184345544E+00
(PID.TID 0000.0001) %MON ke_max                       =   1.0410047621829E+01
(PID.TID 0000.0001) %MON ke_mean                      =   5.8080414836277E-01
(PID.TID 0000.0001) %MON ke_vol                       =   4.9523908919847E+19
(PID.TID 0000.0001) %MON vort_r_min                   =  -1.6781617707161E-05
(PID.TID 0000.0001) %MON vort_r_max                   =   1.5402629935527E-05
(PID.TID 0000.0001) %MON vort_a_mean                  =   6.7242814765313E-08
(PID.TID 0000.0001) %MON vort_a_sd                    =   8.4015948356475E-05
(PID.TID 0000.0001) %MON vort_p_mean                  =   6.8939481616497E-08
(PID.TID 0000.0001) %MON vort_p_sd                    =   9.1637885427944E-05
(PID.TID 0000.0001) %MON surfExpan_theta_mean         =  -3.1366061287308E-02
(PID.TID 0000.0001) %MON surfExpan_salt_mean          =  -1.8141736498197E-03
(PID.TID 0000.0001) %MON surfExpan_Heat_mean          =   2.4320362670074E+00
(PID.TID 0000.0001) %MON En_Budget_T2PE_mean          =  -4.7859301706313E+00
(PID.TID 0000.0001) // =======================================================
(PID.TID 0000.0001) // End MONITOR dynamic field statistics
(PID.TID 0000.0001) // =======================================================
(PID.TID 0000.0001) // =======================================================
(PID.TID 0000.0001) // Begin MONITOR Land statistics
(PID.TID 0000.0001) // =======================================================
(PID.TID 0000.0001) %MON land_time_sec                =   1.6200000000000E+04
(PID.TID 0000.0001) %MON land_SnwH_ave_G              =   1.5321328644360E-01
(PID.TID 0000.0001) %MON land_SnwH_ave_S              =   5.5903173556380E-01
(PID.TID 0000.0001) %MON land_SnwH_ave_T              =   0.0000000000000E+00
(PID.TID 0000.0001) %MON land_SnwH_ave_N              =   1.2387958100115E-01
(PID.TID 0000.0001) %MON land_SnwH_max_S              =   9.9998021925047E-01
(PID.TID 0000.0001) %MON land_SnwH_max_T              =   0.0000000000000E+00
(PID.TID 0000.0001) %MON land_SnwH_max_N              =   9.9999763763368E-01
(PID.TID 0000.0001) %MON land_TotEnerg_G              =  -6.3634669687953E+21
(PID.TID 0000.0001) %MON land_TotEnerg_S              =  -5.0024806466042E+21
(PID.TID 0000.0001) %MON land_TotEnerg_T              =   7.2719552293580E+21
(PID.TID 0000.0001) %MON land_TotEnerg_N              =  -8.6329415515491E+21
(PID.TID 0000.0001) %MON land_Tsrf_ave_G              =  -8.6784726562437E+00
(PID.TID 0000.0001) %MON land_Tsrf_ave_S              =  -7.3858074732440E+00
(PID.TID 0000.0001) %MON land_Tsrf_ave_T              =   9.6748841486194E+00
(PID.TID 0000.0001) %MON land_Tsrf_ave_N              =  -2.1353637276574E+01
(PID.TID 0000.0001) %MON land_Tsrf_min_S              =  -3.3466930427780E+01
(PID.TID 0000.0001) %MON land_Tsrf_min_T              =  -2.9305608222268E+00
(PID.TID 0000.0001) %MON land_Tsrf_min_N              =  -5.1994379882771E+01
(PID.TID 0000.0001) %MON land_Tsrf_max_S              =   1.9949179612253E+01
(PID.TID 0000.0001) %MON land_Tsrf_max_T              =   1.9723106224271E+01
(PID.TID 0000.0001) %MON land_Tsrf_max_N              =   7.5404552373170E+00
(PID.TID 0000.0001) %MON land_Tgr1_ave_G              =  -7.5006404377838E+00
(PID.TID 0000.0001) %MON land_Tgr1_ave_S              =  -7.3072986705576E+00
(PID.TID 0000.0001) %MON land_Tgr1_ave_T              =   9.6748841486194E+00
(PID.TID 0000.0001) %MON land_Tgr1_ave_N              =  -1.9032669524286E+01
(PID.TID 0000.0001) %MON land_Tgr1_min_S              =  -3.9392587391196E+01
(PID.TID 0000.0001) %MON land_Tgr1_min_T              =  -2.9305608222268E+00
(PID.TID 0000.0001) %MON land_Tgr1_min_N              =  -5.4558544764181E+01
(PID.TID 0000.0001) %MON land_Tgr1_max_S              =   1.9949179612253E+01
(PID.TID 0000.0001) %MON land_Tgr1_max_T              =   1.9723106224271E+01
(PID.TID 0000.0001) %MON land_Tgr1_max_N              =   7.5404552373170E+00
(PID.TID 0000.0001) %MON land_Tgr2_ave_G              =   4.2017879877903E+00
(PID.TID 0000.0001) %MON land_Tgr2_ave_S              =  -1.8724536582565E+01
(PID.TID 0000.0001) %MON land_Tgr2_ave_T              =   2.2007282582379E+01
(PID.TID 0000.0001) %MON land_Tgr2_ave_N              =  -2.5103765351264E-01
(PID.TID 0000.0001) %MON land_Tgr2_min_S              =  -6.4746785454129E+01
(PID.TID 0000.0001) %MON land_Tgr2_min_T              =  -9.7028164343969E+00
(PID.TID 0000.0001) %MON land_Tgr2_min_N              =  -4.0202155565234E+01
(PID.TID 0000.0001) %MON land_Tgr2_max_S              =   2.3359242615048E+01
(PID.TID 0000.0001) %MON land_Tgr2_max_T              =   3.1346902387403E+01
(PID.TID 0000.0001) %MON land_Tgr2_max_N              =   2.9815568320750E+01
(PID.TID 0000.0001) %MON land_grdW_ave_G              =   4.8667767988233E-01
(PID.TID 0000.0001) %MON land_grdW_ave_S              =   3.0844281049074E-01
(PID.TID 0000.0001) %MON land_grdW_ave_T              =   5.6398708330522E-01
(PID.TID 0000.0001) %MON land_grdW_ave_N              =   4.9287103953563E-01
(PID.TID 0000.0001) %MON land_grdW_min_S              =   2.8451948693727E-02
(PID.TID 0000.0001) %MON land_grdW_min_T              =   0.0000000000000E+00
(PID.TID 0000.0001) %MON land_grdW_min_N              =   0.0000000000000E+00
(PID.TID 0000.0001) // =======================================================
(PID.TID 0000.0001) // End MONITOR Land statistics
(PID.TID 0000.0001) // =======================================================
(PID.TID 0000.0001) // =======================================================
(PID.TID 0000.0001) // Begin MONITOR Therm.SeaIce statistics
(PID.TID 0000.0001) // =======================================================
(PID.TID 0000.0001) %MON thSI_time_sec                =   1.6200000000000E+04
(PID.TID 0000.0001) %MON thSI_Ice_Area_G              =   1.8179105964050E+11
(PID.TID 0000.0001) %MON thSI_Ice_Area_S              =   0.0000000000000E+00
(PID.TID 0000.0001) %MON thSI_Ice_Area_N              =   1.8179105964050E+11
(PID.TID 0000.0001) %MON thSI_IceH_ave_G              =   1.3881217959875E-01
(PID.TID 0000.0001) %MON thSI_IceH_ave_S              =   0.0000000000000E+00
(PID.TID 0000.0001) %MON thSI_IceH_ave_N              =   1.3881217959875E-01
(PID.TID 0000.0001) %MON thSI_IceH_max_S              =   0.0000000000000E+00
(PID.TID 0000.0001) %MON thSI_IceH_max_N              =   1.4985507171016E-01
(PID.TID 0000.0001) %MON thSI_SnwH_ave_G              =   0.0000000000000E+00
(PID.TID 0000.0001) %MON thSI_SnwH_ave_S              =   0.0000000000000E+00
(PID.TID 0000.0001) %MON thSI_SnwH_ave_N              =   0.0000000000000E+00
(PID.TID 0000.0001) %MON thSI_SnwH_max_S              =   0.0000000000000E+00
(PID.TID 0000.0001) %MON thSI_SnwH_max_N              =   0.0000000000000E+00
(PID.TID 0000.0001) %MON thSI_TotEnerg_G              =  -7.8086799768674E+18
(PID.TID 0000.0001) %MON thSI_Tsrf_ave_G              =  -9.2131620105503E+00
(PID.TID 0000.0001) %MON thSI_Tsrf_ave_S              =   0.0000000000000E+00
(PID.TID 0000.0001) %MON thSI_Tsrf_ave_N              =  -9.2131620105503E+00
(PID.TID 0000.0001) %MON thSI_Tsrf_min_S              =   0.0000000000000E+00
(PID.TID 0000.0001) %MON thSI_Tsrf_min_N              =  -9.6742771747954E+00
(PID.TID 0000.0001) %MON thSI_Tsrf_max_S              =   0.0000000000000E+00
(PID.TID 0000.0001) %MON thSI_Tsrf_max_N              =  -4.3113285624492E+00
(PID.TID 0000.0001) %MON thSI_Tic1_ave_G              =  -7.1342807806189E+00
(PID.TID 0000.0001) %MON thSI_Tic1_ave_S              =   0.0000000000000E+00
(PID.TID 0000.0001) %MON thSI_Tic1_ave_N              =  -7.1342807806189E+00
(PID.TID 0000.0001) %MON thSI_Tic1_min_S              =   0.0000000000000E+00
(PID.TID 0000.0001) %MON thSI_Tic1_min_N              =  -7.4018839912591E+00
(PID.TID 0000.0001) %MON thSI_Tic1_max_S              =   0.0000000000000E+00
(PID.TID 0000.0001) %MON thSI_Tic1_max_N              =  -2.3509999700706E+00
(PID.TID 0000.0001) %MON thSI_Tic2_ave_G              =  -3.4130325310690E+00
(PID.TID 0000.0001) %MON thSI_Tic2_ave_S              =   0.0000000000000E+00
(PID.TID 0000.0001) %MON thSI_Tic2_ave_N              =  -3.4130325310690E+00
(PID.TID 0000.0001) %MON thSI_Tic2_min_S              =   0.0000000000000E+00
(PID.TID 0000.0001) %MON thSI_Tic2_min_N              =  -3.5147128931202E+00
(PID.TID 0000.0001) %MON thSI_Tic2_max_S              =   0.0000000000000E+00
(PID.TID 0000.0001) %MON thSI_Tic2_max_N              =  -1.8027656016995E+00
(PID.TID 0000.0001) // =======================================================
(PID.TID 0000.0001) // End MONITOR Therm.SeaIce statistics
(PID.TID 0000.0001) // =======================================================
 cg2d: Sum(rhs),rhsMax =   6.98491930961609E-10  1.71008520774088E+04
(PID.TID 0000.0001)                    cg2d_init_res =    9.79071230369453E+03
(PID.TID 0000.0001)                       cg2d_iters =    16
(PID.TID 0000.0001)                         cg2d_res =    5.41853508054807E-11
(PID.TID 0000.0001) // =======================================================
(PID.TID 0000.0001) // Begin MONITOR dynamic field statistics
(PID.TID 0000.0001) // =======================================================
(PID.TID 0000.0001) %MON time_tsnumber                =                    37
(PID.TID 0000.0001) %MON time_secondsf                =   1.6650000000000E+04
(PID.TID 0000.0001) %MON dynstat_eta_max              =   3.0258095411191E+03
(PID.TID 0000.0001) %MON dynstat_eta_min              =  -8.5096490004871E+02
(PID.TID 0000.0001) %MON dynstat_eta_mean             =  -7.0689334236469E-14
(PID.TID 0000.0001) %MON dynstat_eta_sd               =   4.2745704952700E+02
(PID.TID 0000.0001) %MON dynstat_eta_del2             =   3.6345444800347E+01
(PID.TID 0000.0001) %MON dynstat_uvel_max             =   4.1665133024537E+00
(PID.TID 0000.0001) %MON dynstat_uvel_min             =  -3.8343700273458E+00
(PID.TID 0000.0001) %MON dynstat_uvel_mean            =   8.6225292213948E-02
(PID.TID 0000.0001) %MON dynstat_uvel_sd              =   7.3904581996370E-01
(PID.TID 0000.0001) %MON dynstat_uvel_del2            =   3.2237246983869E-02
(PID.TID 0000.0001) %MON dynstat_vvel_max             =   4.0776539626081E+00
(PID.TID 0000.0001) %MON dynstat_vvel_min             =  -4.2668479302920E+00
(PID.TID 0000.0001) %MON dynstat_vvel_mean            =   2.5419396711915E-02
(PID.TID 0000.0001) %MON dynstat_vvel_sd              =   7.6726314430831E-01
(PID.TID 0000.0001) %MON dynstat_vvel_del2            =   3.1795321661220E-02
(PID.TID 0000.0001) %MON dynstat_wvel_max             =   1.2175287320995E-01
(PID.TID 0000.0001) %MON dynstat_wvel_min             =  -9.5238250949303E-02
(PID.TID 0000.0001) %MON dynstat_wvel_mean            =   2.8047910559723E-04
(PID.TID 0000.0001) %MON dynstat_wvel_sd              =   9.1121286393096E-03
(PID.TID 0000.0001) %MON dynstat_wvel_del2            =   2.1912188043338E-03
(PID.TID 0000.0001) %MON dynstat_theta_max            =   4.3830337580027E+02
(PID.TID 0000.0001) %MON dynstat_theta_min            =   2.8108526444226E+02
(PID.TID 0000.0001) %MON dynstat_theta_mean           =   3.3165870355718E+02
(PID.TID 0000.0001) %MON dynstat_theta_sd             =   4.7478099204693E+01
(PID.TID 0000.0001) %MON dynstat_theta_del2           =   3.6650228466337E-02
(PID.TID 0000.0001) %MON dynstat_salt_max             =   4.9653591210493E+00
(PID.TID 0000.0001) %MON dynstat_salt_min             =  -3.9044455698433E-02
(PID.TID 0000.0001) %MON dynstat_salt_mean            =   1.3027244020529E-01
(PID.TID 0000.0001) %MON dynstat_salt_sd              =   4.9485499413767E-01
(PID.TID 0000.0001) %MON dynstat_salt_del2            =   1.4746143171513E-02
(PID.TID 0000.0001) %MON advcfl_uvel_max              =   6.2618993357299E-03
(PID.TID 0000.0001) %MON advcfl_vvel_max              =   7.5850744385628E-03
(PID.TID 0000.0001) %MON advcfl_wvel_max              =   2.7426181637159E-03
(PID.TID 0000.0001) %MON advcfl_W_hf_max              =   2.0960209346468E-02
(PID.TID 0000.0001) %MON pe_b_mean                    =  -1.1830545695083E+00
(PID.TID 0000.0001) %MON ke_max                       =   9.5802886276558E+00
(PID.TID 0000.0001) %MON ke_mean                      =   5.6805277444654E-01
(PID.TID 0000.0001) %MON ke_vol                       =   4.9523908919847E+19
(PID.TID 0000.0001) %MON vort_r_min                   =  -1.6232708955125E-05
(PID.TID 0000.0001) %MON vort_r_max                   =   1.6073826308296E-05
(PID.TID 0000.0001) %MON vort_a_mean                  =   6.7242814765328E-08
(PID.TID 0000.0001) %MON vort_a_sd                    =   8.4017692702572E-05
(PID.TID 0000.0001) %MON vort_p_mean                  =   6.8939481796300E-08
(PID.TID 0000.0001) %MON vort_p_sd                    =   9.1629261751754E-05
(PID.TID 0000.0001) %MON surfExpan_theta_mean         =  -2.6981917570406E-02
(PID.TID 0000.0001) %MON surfExpan_salt_mean          =  -1.8322002696858E-03
(PID.TID 0000.0001) %MON surfExpan_Heat_mean          =   2.0722955848317E+00
(PID.TID 0000.0001) %MON En_Budget_T2PE_mean          =  -4.1039511161134E+00
(PID.TID 0000.0001) // =======================================================
(PID.TID 0000.0001) // End MONITOR dynamic field statistics
(PID.TID 0000.0001) // =======================================================
(PID.TID 0000.0001) // =======================================================
(PID.TID 0000.0001) // Begin MONITOR Land statistics
(PID.TID 0000.0001) // =======================================================
(PID.TID 0000.0001) %MON land_time_sec                =   1.6650000000000E+04
(PID.TID 0000.0001) %MON land_SnwH_ave_G              =   1.5321236256778E-01
(PID.TID 0000.0001) %MON land_SnwH_ave_S              =   5.5903090077240E-01
(PID.TID 0000.0001) %MON land_SnwH_ave_T              =   0.0000000000000E+00
(PID.TID 0000.0001) %MON land_SnwH_ave_N              =   1.2387801128978E-01
(PID.TID 0000.0001) %MON land_SnwH_max_S              =   9.9997964718076E-01
(PID.TID 0000.0001) %MON land_SnwH_max_T              =   0.0000000000000E+00
(PID.TID 0000.0001) %MON land_SnwH_max_N              =   9.9999757344897E-01
(PID.TID 0000.0001) %MON land_TotEnerg_G              =  -6.3642854274252E+21
(PID.TID 0000.0001) %MON land_TotEnerg_S              =  -5.0024748599992E+21
(PID.TID 0000.0001) %MON land_TotEnerg_T              =   7.2716248038989E+21
(PID.TID 0000.0001) %MON land_TotEnerg_N              =  -8.6334353713249E+21
(PID.TID 0000.0001) %MON land_Tsrf_ave_G              =  -8.6921783413032E+00
(PID.TID 0000.0001) %MON land_Tsrf_ave_S              =  -7.3763501417910E+00
(PID.TID 0000.0001) %MON land_Tsrf_ave_T              =   9.6422443069406E+00
(PID.TID 0000.0001) %MON land_Tsrf_ave_N              =  -2.1362213230110E+01
(PID.TID 0000.0001) %MON land_Tsrf_min_S              =  -3.3434772825859E+01
(PID.TID 0000.0001) %MON land_Tsrf_min_T              =  -3.0351066330186E+00
(PID.TID 0000.0001) %MON land_Tsrf_min_N              =  -5.1985925222971E+01
(PID.TID 0000.0001) %MON land_Tsrf_max_S              =   1.9940820690132E+01
(PID.TID 0000.0001) %MON land_Tsrf_max_T              =   1.9690089179640E+01
(PID.TID 0000.0001) %MON land_Tsrf_max_N              =   7.4880181410292E+00
(PID.TID 0000.0001) %MON land_Tgr1_ave_G              =  -7.5189319720633E+00
(PID.TID 0000.0001) %MON land_Tgr1_ave_S              =  -7.3118996667839E+00
(PID.TID 0000.0001) %MON land_Tgr1_ave_T              =   9.6422443069406E+00
(PID.TID 0000.0001) %MON land_Tgr1_ave_N              =  -1.9045820807987E+01
(PID.TID 0000.0001) %MON land_Tgr1_min_S              =  -3.9403059891870E+01
(PID.TID 0000.0001) %MON land_Tgr1_min_T              =  -3.0351066330186E+00
(PID.TID 0000.0001) %MON land_Tgr1_min_N              =  -5.4546245123125E+01
(PID.TID 0000.0001) %MON land_Tgr1_max_S              =   1.9940820690132E+01
(PID.TID 0000.0001) %MON land_Tgr1_max_T              =   1.9690089179640E+01
(PID.TID 0000.0001) %MON land_Tgr1_max_N              =   7.4880181410292E+00
(PID.TID 0000.0001) %MON land_Tgr2_ave_G              =   4.2016088692457E+00
(PID.TID 0000.0001) %MON land_Tgr2_ave_S              =  -1.8724345148528E+01
(PID.TID 0000.0001) %MON land_Tgr2_ave_T              =   2.2007084414337E+01
(PID.TID 0000.0001) %MON land_Tgr2_ave_N              =  -2.5132425636321E-01
(PID.TID 0000.0001) %MON land_Tgr2_min_S              =  -6.4746358440236E+01
(PID.TID 0000.0001) %MON land_Tgr2_min_T              =  -9.7027247374930E+00
(PID.TID 0000.0001) %MON land_Tgr2_min_N              =  -4.0202388316795E+01
(PID.TID 0000.0001) %MON land_Tgr2_max_S              =   2.3359166876153E+01
(PID.TID 0000.0001) %MON land_Tgr2_max_T              =   3.1346449752188E+01
(PID.TID 0000.0001) %MON land_Tgr2_max_N              =   2.9814994574701E+01
(PID.TID 0000.0001) %MON land_grdW_ave_G              =   4.8667064709816E-01
(PID.TID 0000.0001) %MON land_grdW_ave_S              =   3.0843554390251E-01
(PID.TID 0000.0001) %MON land_grdW_ave_T              =   5.6397006992809E-01
(PID.TID 0000.0001) %MON land_grdW_ave_N              =   4.9287074734252E-01
(PID.TID 0000.0001) %MON land_grdW_min_S              =   2.8535126452031E-02
(PID.TID 0000.0001) %MON land_grdW_min_T              =   0.0000000000000E+00
(PID.TID 0000.0001) %MON land_grdW_min_N              =   0.0000000000000E+00
(PID.TID 0000.0001) // =======================================================
(PID.TID 0000.0001) // End MONITOR Land statistics
(PID.TID 0000.0001) // =======================================================
(PID.TID 0000.0001) // =======================================================
(PID.TID 0000.0001) // Begin MONITOR Therm.SeaIce statistics
(PID.TID 0000.0001) // =======================================================
(PID.TID 0000.0001) %MON thSI_time_sec                =   1.6650000000000E+04
(PID.TID 0000.0001) %MON thSI_Ice_Area_G              =   1.8391135740710E+11
(PID.TID 0000.0001) %MON thSI_Ice_Area_S              =   0.0000000000000E+00
(PID.TID 0000.0001) %MON thSI_Ice_Area_N              =   1.8391135740710E+11
(PID.TID 0000.0001) %MON thSI_IceH_ave_G              =   1.3861306145796E-01
(PID.TID 0000.0001) %MON thSI_IceH_ave_S              =   0.0000000000000E+00
(PID.TID 0000.0001) %MON thSI_IceH_ave_N              =   1.3861306145796E-01
(PID.TID 0000.0001) %MON thSI_IceH_max_S              =   0.0000000000000E+00
(PID.TID 0000.0001) %MON thSI_IceH_max_N              =   1.4999614082074E-01
(PID.TID 0000.0001) %MON thSI_SnwH_ave_G              =   0.0000000000000E+00
(PID.TID 0000.0001) %MON thSI_SnwH_ave_S              =   0.0000000000000E+00
(PID.TID 0000.0001) %MON thSI_SnwH_ave_N              =   0.0000000000000E+00
(PID.TID 0000.0001) %MON thSI_SnwH_max_S              =   0.0000000000000E+00
(PID.TID 0000.0001) %MON thSI_SnwH_max_N              =   0.0000000000000E+00
(PID.TID 0000.0001) %MON thSI_TotEnerg_G              =  -7.8885061895908E+18
(PID.TID 0000.0001) %MON thSI_Tsrf_ave_G              =  -9.1904868881896E+00
(PID.TID 0000.0001) %MON thSI_Tsrf_ave_S              =   0.0000000000000E+00
(PID.TID 0000.0001) %MON thSI_Tsrf_ave_N              =  -9.1904868881896E+00
(PID.TID 0000.0001) %MON thSI_Tsrf_min_S              =   0.0000000000000E+00
(PID.TID 0000.0001) %MON thSI_Tsrf_min_N              =  -9.7015911777782E+00
(PID.TID 0000.0001) %MON thSI_Tsrf_max_S              =   0.0000000000000E+00
(PID.TID 0000.0001) %MON thSI_Tsrf_max_N              =  -4.5512509140611E+00
(PID.TID 0000.0001) %MON thSI_Tic1_ave_G              =  -7.1344032844903E+00
(PID.TID 0000.0001) %MON thSI_Tic1_ave_S              =   0.0000000000000E+00
(PID.TID 0000.0001) %MON thSI_Tic1_ave_N              =  -7.1344032844903E+00
(PID.TID 0000.0001) %MON thSI_Tic1_min_S              =   0.0000000000000E+00
(PID.TID 0000.0001) %MON thSI_Tic1_min_N              =  -7.4393375754564E+00
(PID.TID 0000.0001) %MON thSI_Tic1_max_S              =   0.0000000000000E+00
(PID.TID 0000.0001) %MON thSI_Tic1_max_N              =  -2.6033573772576E+00
(PID.TID 0000.0001) %MON thSI_Tic2_ave_G              =  -3.4168248982287E+00
(PID.TID 0000.0001) %MON thSI_Tic2_ave_S              =   0.0000000000000E+00
(PID.TID 0000.0001) %MON thSI_Tic2_ave_N              =  -3.4168248982287E+00
(PID.TID 0000.0001) %MON thSI_Tic2_min_S              =   0.0000000000000E+00
(PID.TID 0000.0001) %MON thSI_Tic2_min_N              =  -3.5316609196474E+00
(PID.TID 0000.0001) %MON thSI_Tic2_max_S              =   0.0000000000000E+00
(PID.TID 0000.0001) %MON thSI_Tic2_max_N              =  -1.8661787590888E+00
(PID.TID 0000.0001) // =======================================================
(PID.TID 0000.0001) // End MONITOR Therm.SeaIce statistics
(PID.TID 0000.0001) // =======================================================
 cg2d: Sum(rhs),rhsMax =   2.09547579288483E-09  1.71479575947143E+04
(PID.TID 0000.0001)                    cg2d_init_res =    9.64290385434054E+03
(PID.TID 0000.0001)                       cg2d_iters =    16
(PID.TID 0000.0001)                         cg2d_res =    5.34325673966439E-11
(PID.TID 0000.0001) // =======================================================
(PID.TID 0000.0001) // Begin MONITOR dynamic field statistics
(PID.TID 0000.0001) // =======================================================
(PID.TID 0000.0001) %MON time_tsnumber                =                    38
(PID.TID 0000.0001) %MON time_secondsf                =   1.7100000000000E+04
(PID.TID 0000.0001) %MON dynstat_eta_max              =   3.0472059926123E+03
(PID.TID 0000.0001) %MON dynstat_eta_min              =  -9.0023332415390E+02
(PID.TID 0000.0001) %MON dynstat_eta_mean             =   3.8557818674437E-14
(PID.TID 0000.0001) %MON dynstat_eta_sd               =   4.2544936955042E+02
(PID.TID 0000.0001) %MON dynstat_eta_del2             =   3.6361086648501E+01
(PID.TID 0000.0001) %MON dynstat_uvel_max             =   4.3014514175423E+00
(PID.TID 0000.0001) %MON dynstat_uvel_min             =  -3.5917084187111E+00
(PID.TID 0000.0001) %MON dynstat_uvel_mean            =   9.1775586251274E-02
(PID.TID 0000.0001) %MON dynstat_uvel_sd              =   7.3044721593963E-01
(PID.TID 0000.0001) %MON dynstat_uvel_del2            =   3.3024498596827E-02
(PID.TID 0000.0001) %MON dynstat_vvel_max             =   3.8967073786963E+00
(PID.TID 0000.0001) %MON dynstat_vvel_min             =  -4.1718923356329E+00
(PID.TID 0000.0001) %MON dynstat_vvel_mean            =   2.7289977125252E-02
(PID.TID 0000.0001) %MON dynstat_vvel_sd              =   7.5816305363253E-01
(PID.TID 0000.0001) %MON dynstat_vvel_del2            =   3.2582439826812E-02
(PID.TID 0000.0001) %MON dynstat_wvel_max             =   1.1064685324842E-01
(PID.TID 0000.0001) %MON dynstat_wvel_min             =  -9.8545534773092E-02
(PID.TID 0000.0001) %MON dynstat_wvel_mean            =   2.3781016664641E-04
(PID.TID 0000.0001) %MON dynstat_wvel_sd              =   9.0598698190521E-03
(PID.TID 0000.0001) %MON dynstat_wvel_del2            =   2.2248731196981E-03
(PID.TID 0000.0001) %MON dynstat_theta_max            =   4.3838684537288E+02
(PID.TID 0000.0001) %MON dynstat_theta_min            =   2.8087291096122E+02
(PID.TID 0000.0001) %MON dynstat_theta_mean           =   3.3165633932427E+02
(PID.TID 0000.0001) %MON dynstat_theta_sd             =   4.7480240548026E+01
(PID.TID 0000.0001) %MON dynstat_theta_del2           =   3.7560620999901E-02
(PID.TID 0000.0001) %MON dynstat_salt_max             =   4.9931748701255E+00
(PID.TID 0000.0001) %MON dynstat_salt_min             =  -4.1656719646046E-02
(PID.TID 0000.0001) %MON dynstat_salt_mean            =   1.3351988350013E-01
(PID.TID 0000.0001) %MON dynstat_salt_sd              =   5.0562547856097E-01
(PID.TID 0000.0001) %MON dynstat_salt_del2            =   1.5052931995288E-02
(PID.TID 0000.0001) %MON advcfl_uvel_max              =   6.4646993346500E-03
(PID.TID 0000.0001) %MON advcfl_vvel_max              =   7.2769662017703E-03
(PID.TID 0000.0001) %MON advcfl_wvel_max              =   2.8452047978165E-03
(PID.TID 0000.0001) %MON advcfl_W_hf_max              =   2.1992726131699E-02
(PID.TID 0000.0001) %MON pe_b_mean                    =  -1.1751797297176E+00
(PID.TID 0000.0001) %MON ke_max                       =   9.2441514956572E+00
(PID.TID 0000.0001) %MON ke_mean                      =   5.5541256676121E-01
(PID.TID 0000.0001) %MON ke_vol                       =   4.9523908919847E+19
(PID.TID 0000.0001) %MON vort_r_min                   =  -1.5724105945399E-05
(PID.TID 0000.0001) %MON vort_r_max                   =   1.6738083385538E-05
(PID.TID 0000.0001) %MON vort_a_mean                  =   6.7242814765457E-08
(PID.TID 0000.0001) %MON vort_a_sd                    =   8.4019331750675E-05
(PID.TID 0000.0001) %MON vort_p_mean                  =   6.8939481548772E-08
(PID.TID 0000.0001) %MON vort_p_sd                    =   9.1621645195684E-05
(PID.TID 0000.0001) %MON surfExpan_theta_mean         =  -2.2824000364661E-02
(PID.TID 0000.0001) %MON surfExpan_salt_mean          =  -1.8355414914770E-03
(PID.TID 0000.0001) %MON surfExpan_Heat_mean          =   1.7311531414820E+00
(PID.TID 0000.0001) %MON En_Budget_T2PE_mean          =  -3.4560895539505E+00
(PID.TID 0000.0001) // =======================================================
(PID.TID 0000.0001) // End MONITOR dynamic field statistics
(PID.TID 0000.0001) // =======================================================
(PID.TID 0000.0001) // =======================================================
(PID.TID 0000.0001) // Begin MONITOR Land statistics
(PID.TID 0000.0001) // =======================================================
(PID.TID 0000.0001) %MON land_time_sec                =   1.7100000000000E+04
(PID.TID 0000.0001) %MON land_SnwH_ave_G              =   1.5321144333730E-01
(PID.TID 0000.0001) %MON land_SnwH_ave_S              =   5.5903006771119E-01
(PID.TID 0000.0001) %MON land_SnwH_ave_T              =   0.0000000000000E+00
(PID.TID 0000.0001) %MON land_SnwH_ave_N              =   1.2387645027145E-01
(PID.TID 0000.0001) %MON land_SnwH_max_S              =   9.9997907329996E-01
(PID.TID 0000.0001) %MON land_SnwH_max_T              =   0.0000000000000E+00
(PID.TID 0000.0001) %MON land_SnwH_max_N              =   9.9999750918956E-01
(PID.TID 0000.0001) %MON land_TotEnerg_G              =  -6.3650743230850E+21
(PID.TID 0000.0001) %MON land_TotEnerg_S              =  -5.0024664073906E+21
(PID.TID 0000.0001) %MON land_TotEnerg_T              =   7.2713138653974E+21
(PID.TID 0000.0001) %MON land_TotEnerg_N              =  -8.6339217810917E+21
(PID.TID 0000.0001) %MON land_Tsrf_ave_G              =  -8.7043235932545E+00
(PID.TID 0000.0001) %MON land_Tsrf_ave_S              =  -7.3634743644605E+00
(PID.TID 0000.0001) %MON land_Tsrf_ave_T              =   9.6120460717205E+00
(PID.TID 0000.0001) %MON land_Tsrf_ave_N              =  -2.1370419900207E+01
(PID.TID 0000.0001) %MON land_Tsrf_min_S              =  -3.3401982354318E+01
(PID.TID 0000.0001) %MON land_Tsrf_min_T              =  -3.1368793690718E+00
(PID.TID 0000.0001) %MON land_Tsrf_min_N              =  -5.1977335048771E+01
(PID.TID 0000.0001) %MON land_Tsrf_max_S              =   1.9935476708511E+01
(PID.TID 0000.0001) %MON land_Tsrf_max_T              =   1.9661851588811E+01
(PID.TID 0000.0001) %MON land_Tsrf_max_N              =   7.4400978175489E+00
(PID.TID 0000.0001) %MON land_Tgr1_ave_G              =  -7.5361212301946E+00
(PID.TID 0000.0001) %MON land_Tgr1_ave_S              =  -7.3157265742135E+00
(PID.TID 0000.0001) %MON land_Tgr1_ave_T              =   9.6120460717205E+00
(PID.TID 0000.0001) %MON land_Tgr1_ave_N              =  -1.9058657718956E+01
(PID.TID 0000.0001) %MON land_Tgr1_min_S              =  -3.9413485939832E+01
(PID.TID 0000.0001) %MON land_Tgr1_min_T              =  -3.1368793690718E+00
(PID.TID 0000.0001) %MON land_Tgr1_min_N              =  -5.4533957435298E+01
(PID.TID 0000.0001) %MON land_Tgr1_max_S              =   1.9935476708511E+01
(PID.TID 0000.0001) %MON land_Tgr1_max_T              =   1.9661851588811E+01
(PID.TID 0000.0001) %MON land_Tgr1_max_N              =   7.4400978175489E+00
(PID.TID 0000.0001) %MON land_Tgr2_ave_G              =   4.2014295392771E+00
(PID.TID 0000.0001) %MON land_Tgr2_ave_S              =  -1.8724153778032E+01
(PID.TID 0000.0001) %MON land_Tgr2_ave_T              =   2.2006885893223E+01
(PID.TID 0000.0001) %MON land_Tgr2_ave_N              =  -2.5161102402069E-01
(PID.TID 0000.0001) %MON land_Tgr2_min_S              =  -6.4745931624916E+01
(PID.TID 0000.0001) %MON land_Tgr2_min_T              =  -9.7026321071291E+00
(PID.TID 0000.0001) %MON land_Tgr2_min_N              =  -4.0202620841892E+01
(PID.TID 0000.0001) %MON land_Tgr2_max_S              =   2.3359090755580E+01
(PID.TID 0000.0001) %MON land_Tgr2_max_T              =   3.1345995986845E+01
(PID.TID 0000.0001) %MON land_Tgr2_max_N              =   2.9814417827794E+01
(PID.TID 0000.0001) %MON land_grdW_ave_G              =   4.8666364475102E-01
(PID.TID 0000.0001) %MON land_grdW_ave_S              =   3.0842829715302E-01
(PID.TID 0000.0001) %MON land_grdW_ave_T              =   5.6395314120947E-01
(PID.TID 0000.0001) %MON land_grdW_ave_N              =   4.9287045281698E-01
(PID.TID 0000.0001) %MON land_grdW_min_S              =   2.8617610230739E-02
(PID.TID 0000.0001) %MON land_grdW_min_T              =   0.0000000000000E+00
(PID.TID 0000.0001) %MON land_grdW_min_N              =   0.0000000000000E+00
(PID.TID 0000.0001) // =======================================================
(PID.TID 0000.0001) // End MONITOR Land statistics
(PID.TID 0000.0001) // =======================================================
(PID.TID 0000.0001) // =======================================================
(PID.TID 0000.0001) // Begin MONITOR Therm.SeaIce statistics
(PID.TID 0000.0001) // =======================================================
(PID.TID 0000.0001) %MON thSI_time_sec                =   1.7100000000000E+04
(PID.TID 0000.0001) %MON thSI_Ice_Area_G              =   1.8598260079586E+11
(PID.TID 0000.0001) %MON thSI_Ice_Area_S              =   0.0000000000000E+00
(PID.TID 0000.0001) %MON thSI_Ice_Area_N              =   1.8598260079586E+11
(PID.TID 0000.0001) %MON thSI_IceH_ave_G              =   1.3845432697140E-01
(PID.TID 0000.0001) %MON thSI_IceH_ave_S              =   0.0000000000000E+00
(PID.TID 0000.0001) %MON thSI_IceH_ave_N              =   1.3845432697140E-01
(PID.TID 0000.0001) %MON thSI_IceH_max_S              =   0.0000000000000E+00
(PID.TID 0000.0001) %MON thSI_IceH_max_N              =   1.5013853807767E-01
(PID.TID 0000.0001) %MON thSI_SnwH_ave_G              =   0.0000000000000E+00
(PID.TID 0000.0001) %MON thSI_SnwH_ave_S              =   0.0000000000000E+00
(PID.TID 0000.0001) %MON thSI_SnwH_ave_N              =   0.0000000000000E+00
(PID.TID 0000.0001) %MON thSI_SnwH_max_S              =   0.0000000000000E+00
(PID.TID 0000.0001) %MON thSI_SnwH_max_N              =   0.0000000000000E+00
(PID.TID 0000.0001) %MON thSI_TotEnerg_G              =  -7.9684004650590E+18
(PID.TID 0000.0001) %MON thSI_Tsrf_ave_G              =  -9.1725184185867E+00
(PID.TID 0000.0001) %MON thSI_Tsrf_ave_S              =   0.0000000000000E+00
(PID.TID 0000.0001) %MON thSI_Tsrf_ave_N              =  -9.1725184185867E+00
(PID.TID 0000.0001) %MON thSI_Tsrf_min_S              =   0.0000000000000E+00
(PID.TID 0000.0001) %MON thSI_Tsrf_min_N              =  -9.7258145327986E+00
(PID.TID 0000.0001) %MON thSI_Tsrf_max_S              =   0.0000000000000E+00
(PID.TID 0000.0001) %MON thSI_Tsrf_max_N              =  -4.7944324269925E+00
(PID.TID 0000.0001) %MON thSI_Tic1_ave_G              =  -7.1361856698191E+00
(PID.TID 0000.0001) %MON thSI_Tic1_ave_S              =   0.0000000000000E+00
(PID.TID 0000.0001) %MON thSI_Tic1_ave_N              =  -7.1361856698191E+00
(PID.TID 0000.0001) %MON thSI_Tic1_min_S              =   0.0000000000000E+00
(PID.TID 0000.0001) %MON thSI_Tic1_min_N              =  -7.4733087483998E+00
(PID.TID 0000.0001) %MON thSI_Tic1_max_S              =   0.0000000000000E+00
(PID.TID 0000.0001) %MON thSI_Tic1_max_N              =  -2.8590134640140E+00
(PID.TID 0000.0001) %MON thSI_Tic2_ave_G              =  -3.4206664492253E+00
(PID.TID 0000.0001) %MON thSI_Tic2_ave_S              =   0.0000000000000E+00
(PID.TID 0000.0001) %MON thSI_Tic2_ave_N              =  -3.4206664492253E+00
(PID.TID 0000.0001) %MON thSI_Tic2_min_S              =   0.0000000000000E+00
(PID.TID 0000.0001) %MON thSI_Tic2_min_N              =  -3.5471218832051E+00
(PID.TID 0000.0001) %MON thSI_Tic2_max_S              =   0.0000000000000E+00
(PID.TID 0000.0001) %MON thSI_Tic2_max_N              =  -1.9351834995165E+00
(PID.TID 0000.0001) // =======================================================
(PID.TID 0000.0001) // End MONITOR Therm.SeaIce statistics
(PID.TID 0000.0001) // =======================================================
 cg2d: Sum(rhs),rhsMax =   2.79396772384644E-09  1.72249202316140E+04
(PID.TID 0000.0001)                    cg2d_init_res =    9.50498398757616E+03
(PID.TID 0000.0001)                       cg2d_iters =    16
(PID.TID 0000.0001)                         cg2d_res =    5.34404989722313E-11
(PID.TID 0000.0001) // =======================================================
(PID.TID 0000.0001) // Begin MONITOR dynamic field statistics
(PID.TID 0000.0001) // =======================================================
(PID.TID 0000.0001) %MON time_tsnumber                =                    39
(PID.TID 0000.0001) %MON time_secondsf                =   1.7550000000000E+04
(PID.TID 0000.0001) %MON dynstat_eta_max              =   3.0652498702271E+03
(PID.TID 0000.0001) %MON dynstat_eta_min              =  -9.4894530549740E+02
(PID.TID 0000.0001) %MON dynstat_eta_mean             =  -8.9968243573687E-14
(PID.TID 0000.0001) %MON dynstat_eta_sd               =   4.2437513126923E+02
(PID.TID 0000.0001) %MON dynstat_eta_del2             =   3.6358087833092E+01
(PID.TID 0000.0001) %MON dynstat_uvel_max             =   4.4363740174928E+00
(PID.TID 0000.0001) %MON dynstat_uvel_min             =  -3.3586317368760E+00
(PID.TID 0000.0001) %MON dynstat_uvel_mean            =   9.6773653216871E-02
(PID.TID 0000.0001) %MON dynstat_uvel_sd              =   7.2176767185520E-01
(PID.TID 0000.0001) %MON dynstat_uvel_del2            =   3.3829106243096E-02
(PID.TID 0000.0001) %MON dynstat_vvel_max             =   3.7160040631521E+00
(PID.TID 0000.0001) %MON dynstat_vvel_min             =  -4.1115269669064E+00
(PID.TID 0000.0001) %MON dynstat_vvel_mean            =   2.9639978526738E-02
(PID.TID 0000.0001) %MON dynstat_vvel_sd              =   7.4918811912913E-01
(PID.TID 0000.0001) %MON dynstat_vvel_del2            =   3.3403007095597E-02
(PID.TID 0000.0001) %MON dynstat_wvel_max             =   1.1461922520207E-01
(PID.TID 0000.0001) %MON dynstat_wvel_min             =  -1.0152315237206E-01
(PID.TID 0000.0001) %MON dynstat_wvel_mean            =   1.9758131108811E-04
(PID.TID 0000.0001) %MON dynstat_wvel_sd              =   9.0568724175746E-03
(PID.TID 0000.0001) %MON dynstat_wvel_del2            =   2.2691430445045E-03
(PID.TID 0000.0001) %MON dynstat_theta_max            =   4.3844760929016E+02
(PID.TID 0000.0001) %MON dynstat_theta_min            =   2.8066047048127E+02
(PID.TID 0000.0001) %MON dynstat_theta_mean           =   3.3165396008928E+02
(PID.TID 0000.0001) %MON dynstat_theta_sd             =   4.7482392397108E+01
(PID.TID 0000.0001) %MON dynstat_theta_del2           =   3.8449409558703E-02
(PID.TID 0000.0001) %MON dynstat_salt_max             =   5.0204414031965E+00
(PID.TID 0000.0001) %MON dynstat_salt_min             =  -4.4310169543777E-02
(PID.TID 0000.0001) %MON dynstat_salt_mean            =   1.3675800869898E-01
(PID.TID 0000.0001) %MON dynstat_salt_sd              =   5.1631177690224E-01
(PID.TID 0000.0001) %MON dynstat_salt_del2            =   1.5359484019142E-02
(PID.TID 0000.0001) %MON advcfl_uvel_max              =   6.6674760156959E-03
(PID.TID 0000.0001) %MON advcfl_vvel_max              =   6.8122349313025E-03
(PID.TID 0000.0001) %MON advcfl_wvel_max              =   2.9473515051962E-03
(PID.TID 0000.0001) %MON advcfl_W_hf_max              =   2.3021262737273E-02
(PID.TID 0000.0001) %MON pe_b_mean                    =  -1.1672862970074E+00
(PID.TID 0000.0001) %MON ke_max                       =   9.0937164390031E+00
(PID.TID 0000.0001) %MON ke_mean                      =   5.4295872940637E-01
(PID.TID 0000.0001) %MON ke_vol                       =   4.9523908919847E+19
(PID.TID 0000.0001) %MON vort_r_min                   =  -1.5265415015555E-05
(PID.TID 0000.0001) %MON vort_r_max                   =   1.7382423161605E-05
(PID.TID 0000.0001) %MON vort_a_mean                  =   6.7242814765321E-08
(PID.TID 0000.0001) %MON vort_a_sd                    =   8.4020859646867E-05
(PID.TID 0000.0001) %MON vort_p_mean                  =   6.8939480841045E-08
(PID.TID 0000.0001) %MON vort_p_sd                    =   9.1614960813671E-05
(PID.TID 0000.0001) %MON surfExpan_theta_mean         =  -1.8942887609625E-02
(PID.TID 0000.0001) %MON surfExpan_salt_mean          =  -1.8235171769629E-03
(PID.TID 0000.0001) %MON surfExpan_Heat_mean          =   1.4128694021993E+00
(PID.TID 0000.0001) %MON En_Budget_T2PE_mean          =  -2.8503152671406E+00
(PID.TID 0000.0001) // =======================================================
(PID.TID 0000.0001) // End MONITOR dynamic field statistics
(PID.TID 0000.0001) // =======================================================
(PID.TID 0000.0001) // =======================================================
(PID.TID 0000.0001) // Begin MONITOR Land statistics
(PID.TID 0000.0001) // =======================================================
(PID.TID 0000.0001) %MON land_time_sec                =   1.7550000000000E+04
(PID.TID 0000.0001) %MON land_SnwH_ave_G              =   1.5321052726585E-01
(PID.TID 0000.0001) %MON land_SnwH_ave_S              =   5.5902923547378E-01
(PID.TID 0000.0001) %MON land_SnwH_ave_T              =   0.0000000000000E+00
(PID.TID 0000.0001) %MON land_SnwH_ave_N              =   1.2387489527916E-01
(PID.TID 0000.0001) %MON land_SnwH_max_S              =   9.9997849751557E-01
(PID.TID 0000.0001) %MON land_SnwH_max_T              =   0.0000000000000E+00
(PID.TID 0000.0001) %MON land_SnwH_max_N              =   9.9999744492410E-01
(PID.TID 0000.0001) %MON land_TotEnerg_G              =  -6.3658357349109E+21
(PID.TID 0000.0001) %MON land_TotEnerg_S              =  -5.0024555067625E+21
(PID.TID 0000.0001) %MON land_TotEnerg_T              =   7.2710207793638E+21
(PID.TID 0000.0001) %MON land_TotEnerg_N              =  -8.6344010075122E+21
(PID.TID 0000.0001) %MON land_Tsrf_ave_G              =  -8.7147805255572E+00
(PID.TID 0000.0001) %MON land_Tsrf_ave_S              =  -7.3472711128016E+00
(PID.TID 0000.0001) %MON land_Tsrf_ave_T              =   9.5843313702401E+00
(PID.TID 0000.0001) %MON land_Tsrf_ave_N              =  -2.1378001003029E+01
(PID.TID 0000.0001) %MON land_Tsrf_min_S              =  -3.3368462436526E+01
(PID.TID 0000.0001) %MON land_Tsrf_min_T              =  -3.2359532673309E+00
(PID.TID 0000.0001) %MON land_Tsrf_min_N              =  -5.1976878353394E+01
(PID.TID 0000.0001) %MON land_Tsrf_max_S              =   1.9932704743162E+01
(PID.TID 0000.0001) %MON land_Tsrf_max_T              =   1.9637881294005E+01
(PID.TID 0000.0001) %MON land_Tsrf_max_N              =   7.4037344510972E+00
(PID.TID 0000.0001) %MON land_Tgr1_ave_G              =  -7.5520889235217E+00
(PID.TID 0000.0001) %MON land_Tgr1_ave_S              =  -7.3188433709621E+00
(PID.TID 0000.0001) %MON land_Tgr1_ave_T              =   9.5843313702401E+00
(PID.TID 0000.0001) %MON land_Tgr1_ave_N              =  -1.9070949858260E+01
(PID.TID 0000.0001) %MON land_Tgr1_min_S              =  -3.9423863512636E+01
(PID.TID 0000.0001) %MON land_Tgr1_min_T              =  -3.2359532673309E+00
(PID.TID 0000.0001) %MON land_Tgr1_min_N              =  -5.4521689600514E+01
(PID.TID 0000.0001) %MON land_Tgr1_max_S              =   1.9932704743162E+01
(PID.TID 0000.0001) %MON land_Tgr1_max_T              =   1.9637881294005E+01
(PID.TID 0000.0001) %MON land_Tgr1_max_N              =   7.4037344510972E+00
(PID.TID 0000.0001) %MON land_Tgr2_ave_G              =   4.2012502003674E+00
(PID.TID 0000.0001) %MON land_Tgr2_ave_S              =  -1.8723962459954E+01
(PID.TID 0000.0001) %MON land_Tgr2_ave_T              =   2.2006687109516E+01
(PID.TID 0000.0001) %MON land_Tgr2_ave_N              =  -2.5189761713477E-01
(PID.TID 0000.0001) %MON land_Tgr2_min_S              =  -6.4745505007305E+01
(PID.TID 0000.0001) %MON land_Tgr2_min_T              =  -9.7025385801832E+00
(PID.TID 0000.0001) %MON land_Tgr2_min_N              =  -4.0202853140922E+01
(PID.TID 0000.0001) %MON land_Tgr2_max_S              =   2.3359014320192E+01
(PID.TID 0000.0001) %MON land_Tgr2_max_T              =   3.1345541184586E+01
(PID.TID 0000.0001) %MON land_Tgr2_max_N              =   2.9813838199410E+01
(PID.TID 0000.0001) %MON land_grdW_ave_G              =   4.8665667054915E-01
(PID.TID 0000.0001) %MON land_grdW_ave_S              =   3.0842106894828E-01
(PID.TID 0000.0001) %MON land_grdW_ave_T              =   5.6393628974169E-01
(PID.TID 0000.0001) %MON land_grdW_ave_N              =   4.9287015675977E-01
(PID.TID 0000.0001) %MON land_grdW_min_S              =   2.8699316584404E-02
(PID.TID 0000.0001) %MON land_grdW_min_T              =   0.0000000000000E+00
(PID.TID 0000.0001) %MON land_grdW_min_N              =   0.0000000000000E+00
(PID.TID 0000.0001) // =======================================================
(PID.TID 0000.0001) // End MONITOR Land statistics
(PID.TID 0000.0001) // =======================================================
(PID.TID 0000.0001) // =======================================================
(PID.TID 0000.0001) // Begin MONITOR Therm.SeaIce statistics
(PID.TID 0000.0001) // =======================================================
(PID.TID 0000.0001) %MON thSI_time_sec                =   1.7550000000000E+04
(PID.TID 0000.0001) %MON thSI_Ice_Area_G              =   1.8800659837816E+11
(PID.TID 0000.0001) %MON thSI_Ice_Area_S              =   0.0000000000000E+00
(PID.TID 0000.0001) %MON thSI_Ice_Area_N              =   1.8800659837816E+11
(PID.TID 0000.0001) %MON thSI_IceH_ave_G              =   1.3833348706958E-01
(PID.TID 0000.0001) %MON thSI_IceH_ave_S              =   0.0000000000000E+00
(PID.TID 0000.0001) %MON thSI_IceH_ave_N              =   1.3833348706958E-01
(PID.TID 0000.0001) %MON thSI_IceH_max_S              =   0.0000000000000E+00
(PID.TID 0000.0001) %MON thSI_IceH_max_N              =   1.5028214304006E-01
(PID.TID 0000.0001) %MON thSI_SnwH_ave_G              =   0.0000000000000E+00
(PID.TID 0000.0001) %MON thSI_SnwH_ave_S              =   0.0000000000000E+00
(PID.TID 0000.0001) %MON thSI_SnwH_ave_N              =   0.0000000000000E+00
(PID.TID 0000.0001) %MON thSI_SnwH_max_S              =   0.0000000000000E+00
(PID.TID 0000.0001) %MON thSI_SnwH_max_N              =   0.0000000000000E+00
(PID.TID 0000.0001) %MON thSI_TotEnerg_G              =  -8.0483570353561E+18
(PID.TID 0000.0001) %MON thSI_Tsrf_ave_G              =  -9.1587450579994E+00
(PID.TID 0000.0001) %MON thSI_Tsrf_ave_S              =   0.0000000000000E+00
(PID.TID 0000.0001) %MON thSI_Tsrf_ave_N              =  -9.1587450579994E+00
(PID.TID 0000.0001) %MON thSI_Tsrf_min_S              =   0.0000000000000E+00
(PID.TID 0000.0001) %MON thSI_Tsrf_min_N              =  -9.7471420375196E+00
(PID.TID 0000.0001) %MON thSI_Tsrf_max_S              =   0.0000000000000E+00
(PID.TID 0000.0001) %MON thSI_Tsrf_max_N              =  -5.0359896793183E+00
(PID.TID 0000.0001) %MON thSI_Tic1_ave_G              =  -7.1395245382712E+00
(PID.TID 0000.0001) %MON thSI_Tic1_ave_S              =   0.0000000000000E+00
(PID.TID 0000.0001) %MON thSI_Tic1_ave_N              =  -7.1395245382712E+00
(PID.TID 0000.0001) %MON thSI_Tic1_min_S              =   0.0000000000000E+00
(PID.TID 0000.0001) %MON thSI_Tic1_min_N              =  -7.5040189145114E+00
(PID.TID 0000.0001) %MON thSI_Tic1_max_S              =   0.0000000000000E+00
(PID.TID 0000.0001) %MON thSI_Tic1_max_N              =  -3.1126865775610E+00
(PID.TID 0000.0001) %MON thSI_Tic2_ave_G              =  -3.4246396740523E+00
(PID.TID 0000.0001) %MON thSI_Tic2_ave_S              =   0.0000000000000E+00
(PID.TID 0000.0001) %MON thSI_Tic2_ave_N              =  -3.4246396740523E+00
(PID.TID 0000.0001) %MON thSI_Tic2_min_S              =   0.0000000000000E+00
(PID.TID 0000.0001) %MON thSI_Tic2_min_N              =  -3.5611961779298E+00
(PID.TID 0000.0001) %MON thSI_Tic2_max_S              =   0.0000000000000E+00
(PID.TID 0000.0001) %MON thSI_Tic2_max_N              =  -2.0073513589366E+00
(PID.TID 0000.0001) // =======================================================
(PID.TID 0000.0001) // End MONITOR Therm.SeaIce statistics
(PID.TID 0000.0001) // =======================================================
 cg2d: Sum(rhs),rhsMax =   2.56113708019257E-09  1.72801455627039E+04
(PID.TID 0000.0001)                    cg2d_init_res =    9.37354816923152E+03
(PID.TID 0000.0001)                       cg2d_iters =    16
(PID.TID 0000.0001)                         cg2d_res =    5.38517894689925E-11
(PID.TID 0000.0001) // =======================================================
(PID.TID 0000.0001) // Begin MONITOR dynamic field statistics
(PID.TID 0000.0001) // =======================================================
(PID.TID 0000.0001) %MON time_tsnumber                =                    40
(PID.TID 0000.0001) %MON time_secondsf                =   1.8000000000000E+04
(PID.TID 0000.0001) %MON dynstat_eta_max              =   3.0797153045666E+03
(PID.TID 0000.0001) %MON dynstat_eta_min              =  -9.8482833083202E+02
(PID.TID 0000.0001) %MON dynstat_eta_mean             =  -6.4263031124062E-15
(PID.TID 0000.0001) %MON dynstat_eta_sd               =   4.2415300524236E+02
(PID.TID 0000.0001) %MON dynstat_eta_del2             =   3.6338666696869E+01
(PID.TID 0000.0001) %MON dynstat_uvel_max             =   4.5705463703577E+00
(PID.TID 0000.0001) %MON dynstat_uvel_min             =  -3.2738654449349E+00
(PID.TID 0000.0001) %MON dynstat_uvel_mean            =   1.0115995217681E-01
(PID.TID 0000.0001) %MON dynstat_uvel_sd              =   7.1300312874148E-01
(PID.TID 0000.0001) %MON dynstat_uvel_del2            =   3.4642200485144E-02
(PID.TID 0000.0001) %MON dynstat_vvel_max             =   3.6405244485604E+00
(PID.TID 0000.0001) %MON dynstat_vvel_min             =  -4.1230249008741E+00
(PID.TID 0000.0001) %MON dynstat_vvel_mean            =   3.2467440616200E-02
(PID.TID 0000.0001) %MON dynstat_vvel_sd              =   7.4041391700582E-01
(PID.TID 0000.0001) %MON dynstat_vvel_del2            =   3.4246047506216E-02
(PID.TID 0000.0001) %MON dynstat_wvel_max             =   1.1856481447314E-01
(PID.TID 0000.0001) %MON dynstat_wvel_min             =  -1.0419487923343E-01
(PID.TID 0000.0001) %MON dynstat_wvel_mean            =   1.6009914429604E-04
(PID.TID 0000.0001) %MON dynstat_wvel_sd              =   9.1020160779122E-03
(PID.TID 0000.0001) %MON dynstat_wvel_del2            =   2.3223162063688E-03
(PID.TID 0000.0001) %MON dynstat_theta_max            =   4.3848436800413E+02
(PID.TID 0000.0001) %MON dynstat_theta_min            =   2.8044798456490E+02
(PID.TID 0000.0001) %MON dynstat_theta_mean           =   3.3165156658457E+02
(PID.TID 0000.0001) %MON dynstat_theta_sd             =   4.7484554669694E+01
(PID.TID 0000.0001) %MON dynstat_theta_del2           =   3.9307734724981E-02
(PID.TID 0000.0001) %MON dynstat_salt_max             =   5.0472743920092E+00
(PID.TID 0000.0001) %MON dynstat_salt_min             =  -4.7002397089255E-02
(PID.TID 0000.0001) %MON dynstat_salt_mean            =   1.3998686197229E-01
(PID.TID 0000.0001) %MON dynstat_salt_sd              =   5.2691412142517E-01
(PID.TID 0000.0001) %MON dynstat_salt_del2            =   1.5662643222321E-02
(PID.TID 0000.0001) %MON advcfl_uvel_max              =   6.9764183559372E-03
(PID.TID 0000.0001) %MON advcfl_vvel_max              =   6.2038531608470E-03
(PID.TID 0000.0001) %MON advcfl_wvel_max              =   3.0488095150237E-03
(PID.TID 0000.0001) %MON advcfl_W_hf_max              =   2.4041535214670E-02
(PID.TID 0000.0001) %MON pe_b_mean                    =  -1.1594332236070E+00
(PID.TID 0000.0001) %MON ke_max                       =   8.9844476242936E+00
(PID.TID 0000.0001) %MON ke_mean                      =   5.3073171126422E-01
(PID.TID 0000.0001) %MON ke_vol                       =   4.9523908919847E+19
(PID.TID 0000.0001) %MON vort_r_min                   =  -1.6194549891004E-05
(PID.TID 0000.0001) %MON vort_r_max                   =   1.7992743303842E-05
(PID.TID 0000.0001) %MON vort_a_mean                  =   6.7242814765380E-08
(PID.TID 0000.0001) %MON vort_a_sd                    =   8.4022271106575E-05
(PID.TID 0000.0001) %MON vort_p_mean                  =   6.8939479651801E-08
(PID.TID 0000.0001) %MON vort_p_sd                    =   9.1609129655727E-05
(PID.TID 0000.0001) %MON surfExpan_theta_mean         =  -1.5364938424029E-02
(PID.TID 0000.0001) %MON surfExpan_salt_mean          =  -1.7955602586515E-03
(PID.TID 0000.0001) %MON surfExpan_Heat_mean          =   1.1196599634727E+00
(PID.TID 0000.0001) %MON En_Budget_T2PE_mean          =  -2.2908116072898E+00
(PID.TID 0000.0001) // =======================================================
(PID.TID 0000.0001) // End MONITOR dynamic field statistics
(PID.TID 0000.0001) // =======================================================
(PID.TID 0000.0001) // =======================================================
(PID.TID 0000.0001) // Begin MONITOR Land statistics
(PID.TID 0000.0001) // =======================================================
(PID.TID 0000.0001) %MON land_time_sec                =   1.8000000000000E+04
(PID.TID 0000.0001) %MON land_SnwH_ave_G              =   1.5320961221504E-01
(PID.TID 0000.0001) %MON land_SnwH_ave_S              =   5.5902840321885E-01
(PID.TID 0000.0001) %MON land_SnwH_ave_T              =   0.0000000000000E+00
(PID.TID 0000.0001) %MON land_SnwH_ave_N              =   1.2387334232586E-01
(PID.TID 0000.0001) %MON land_SnwH_max_S              =   9.9997791971394E-01
(PID.TID 0000.0001) %MON land_SnwH_max_T              =   0.0000000000000E+00
(PID.TID 0000.0001) %MON land_SnwH_max_N              =   9.9999738059824E-01
(PID.TID 0000.0001) %MON land_TotEnerg_G              =  -6.3665714553819E+21
(PID.TID 0000.0001) %MON land_TotEnerg_S              =  -5.0024423416392E+21
(PID.TID 0000.0001) %MON land_TotEnerg_T              =   7.2707441754146E+21
(PID.TID 0000.0001) %MON land_TotEnerg_N              =  -8.6348732891573E+21
(PID.TID 0000.0001) %MON land_Tsrf_ave_G              =  -8.7239538300467E+00
(PID.TID 0000.0001) %MON land_Tsrf_ave_S              =  -7.3280057705695E+00
(PID.TID 0000.0001) %MON land_Tsrf_ave_T              =   9.5583949764821E+00
(PID.TID 0000.0001) %MON land_Tsrf_ave_N              =  -2.1385205733216E+01
(PID.TID 0000.0001) %MON land_Tsrf_min_S              =  -3.3334092408827E+01
(PID.TID 0000.0001) %MON land_Tsrf_min_T              =  -3.3723776506526E+00
(PID.TID 0000.0001) %MON land_Tsrf_min_N              =  -5.1969610452068E+01
(PID.TID 0000.0001) %MON land_Tsrf_max_S              =   1.9932056373335E+01
(PID.TID 0000.0001) %MON land_Tsrf_max_T              =   1.9617707416160E+01
(PID.TID 0000.0001) %MON land_Tsrf_max_N              =   7.3701462858516E+00
(PID.TID 0000.0001) %MON land_Tgr1_ave_G              =  -7.5671817528855E+00
(PID.TID 0000.0001) %MON land_Tgr1_ave_S              =  -7.3213031803677E+00
(PID.TID 0000.0001) %MON land_Tgr1_ave_T              =   9.5583949764821E+00
(PID.TID 0000.0001) %MON land_Tgr1_ave_N              =  -1.9082899748926E+01
(PID.TID 0000.0001) %MON land_Tgr1_min_S              =  -3.9434190531806E+01
(PID.TID 0000.0001) %MON land_Tgr1_min_T              =  -3.3723776506526E+00
(PID.TID 0000.0001) %MON land_Tgr1_min_N              =  -5.4509434954058E+01
(PID.TID 0000.0001) %MON land_Tgr1_max_S              =   1.9932056373335E+01
(PID.TID 0000.0001) %MON land_Tgr1_max_T              =   1.9617707416160E+01
(PID.TID 0000.0001) %MON land_Tgr1_max_N              =   7.3701462858516E+00
(PID.TID 0000.0001) %MON land_Tgr2_ave_G              =   4.2010707299056E+00
(PID.TID 0000.0001) %MON land_Tgr2_ave_S              =  -1.8723771184257E+01
(PID.TID 0000.0001) %MON land_Tgr2_ave_T              =   2.2006488037211E+01
(PID.TID 0000.0001) %MON land_Tgr2_ave_N              =  -2.5218426585772E-01
(PID.TID 0000.0001) %MON land_Tgr2_min_S              =  -6.4745078586524E+01
(PID.TID 0000.0001) %MON land_Tgr2_min_T              =  -9.7024441927922E+00
(PID.TID 0000.0001) %MON land_Tgr2_min_N              =  -4.0203085214251E+01
(PID.TID 0000.0001) %MON land_Tgr2_max_S              =   2.3358937631535E+01
(PID.TID 0000.0001) %MON land_Tgr2_max_T              =   3.1345085434836E+01
(PID.TID 0000.0001) %MON land_Tgr2_max_N              =   2.9813255805215E+01
(PID.TID 0000.0001) %MON land_grdW_ave_G              =   4.8664972278981E-01
(PID.TID 0000.0001) %MON land_grdW_ave_S              =   3.0841385824788E-01
(PID.TID 0000.0001) %MON land_grdW_ave_T              =   5.6391950904570E-01
(PID.TID 0000.0001) %MON land_grdW_ave_N              =   4.9286986044283E-01
(PID.TID 0000.0001) %MON land_grdW_min_S              =   2.8780154646908E-02
(PID.TID 0000.0001) %MON land_grdW_min_T              =   0.0000000000000E+00
(PID.TID 0000.0001) %MON land_grdW_min_N              =   0.0000000000000E+00
(PID.TID 0000.0001) // =======================================================
(PID.TID 0000.0001) // End MONITOR Land statistics
(PID.TID 0000.0001) // =======================================================
(PID.TID 0000.0001) // =======================================================
(PID.TID 0000.0001) // Begin MONITOR Therm.SeaIce statistics
(PID.TID 0000.0001) // =======================================================
(PID.TID 0000.0001) %MON thSI_time_sec                =   1.8000000000000E+04
(PID.TID 0000.0001) %MON thSI_Ice_Area_G              =   1.8998506648834E+11
(PID.TID 0000.0001) %MON thSI_Ice_Area_S              =   0.0000000000000E+00
(PID.TID 0000.0001) %MON thSI_Ice_Area_N              =   1.8998506648834E+11
(PID.TID 0000.0001) %MON thSI_IceH_ave_G              =   1.3824826379835E-01
(PID.TID 0000.0001) %MON thSI_IceH_ave_S              =   0.0000000000000E+00
(PID.TID 0000.0001) %MON thSI_IceH_ave_N              =   1.3824826379835E-01
(PID.TID 0000.0001) %MON thSI_IceH_max_S              =   0.0000000000000E+00
(PID.TID 0000.0001) %MON thSI_IceH_max_N              =   1.5042684285328E-01
(PID.TID 0000.0001) %MON thSI_SnwH_ave_G              =   0.0000000000000E+00
(PID.TID 0000.0001) %MON thSI_SnwH_ave_S              =   0.0000000000000E+00
(PID.TID 0000.0001) %MON thSI_SnwH_ave_N              =   0.0000000000000E+00
(PID.TID 0000.0001) %MON thSI_SnwH_max_S              =   0.0000000000000E+00
(PID.TID 0000.0001) %MON thSI_SnwH_max_N              =   0.0000000000000E+00
(PID.TID 0000.0001) %MON thSI_TotEnerg_G              =  -8.1283705845030E+18
(PID.TID 0000.0001) %MON thSI_Tsrf_ave_G              =  -9.1485462166007E+00
(PID.TID 0000.0001) %MON thSI_Tsrf_ave_S              =   0.0000000000000E+00
(PID.TID 0000.0001) %MON thSI_Tsrf_ave_N              =  -9.1485462166007E+00
(PID.TID 0000.0001) %MON thSI_Tsrf_min_S              =   0.0000000000000E+00
(PID.TID 0000.0001) %MON thSI_Tsrf_min_N              =  -9.7657607941516E+00
(PID.TID 0000.0001) %MON thSI_Tsrf_max_S              =   0.0000000000000E+00
(PID.TID 0000.0001) %MON thSI_Tsrf_max_N              =  -5.2717583913627E+00
(PID.TID 0000.0001) %MON thSI_Tic1_ave_G              =  -7.1441831253199E+00
(PID.TID 0000.0001) %MON thSI_Tic1_ave_S              =   0.0000000000000E+00
(PID.TID 0000.0001) %MON thSI_Tic1_ave_N              =  -7.1441831253199E+00
(PID.TID 0000.0001) %MON thSI_Tic1_min_S              =   0.0000000000000E+00
(PID.TID 0000.0001) %MON thSI_Tic1_min_N              =  -7.5332720011037E+00
(PID.TID 0000.0001) %MON thSI_Tic1_max_S              =   0.0000000000000E+00
(PID.TID 0000.0001) %MON thSI_Tic1_max_N              =  -3.3599305706135E+00
(PID.TID 0000.0001) %MON thSI_Tic2_ave_G              =  -3.4287638242793E+00
(PID.TID 0000.0001) %MON thSI_Tic2_ave_S              =   0.0000000000000E+00
(PID.TID 0000.0001) %MON thSI_Tic2_ave_N              =  -3.4287638242793E+00
(PID.TID 0000.0001) %MON thSI_Tic2_min_S              =   0.0000000000000E+00
(PID.TID 0000.0001) %MON thSI_Tic2_min_N              =  -3.5739771732639E+00
(PID.TID 0000.0001) %MON thSI_Tic2_max_S              =   0.0000000000000E+00
(PID.TID 0000.0001) %MON thSI_Tic2_max_N              =  -2.0807070566588E+00
(PID.TID 0000.0001) // =======================================================
(PID.TID 0000.0001) // End MONITOR Therm.SeaIce statistics
(PID.TID 0000.0001) // =======================================================
(PID.TID 0000.0001) %CHECKPOINT        40 ckptA
(PID.TID 0000.0001)   Seconds in section "ALL                    [THE_MODEL_MAIN]":
(PID.TID 0000.0001)           User time:   26.6599998474121
(PID.TID 0000.0001)         System time:  0.579999973997474
(PID.TID 0000.0001)     Wall clock time:   41.4745550155640
(PID.TID 0000.0001)          No. starts:           1
(PID.TID 0000.0001)           No. stops:           1
(PID.TID 0000.0001)   Seconds in section "INITIALISE_FIXED       [THE_MODEL_MAIN]":
(PID.TID 0000.0001)           User time:  0.349999994039536
(PID.TID 0000.0001)         System time:  0.140000006183982
(PID.TID 0000.0001)     Wall clock time:   3.94236803054810
(PID.TID 0000.0001)          No. starts:           1
(PID.TID 0000.0001)           No. stops:           1
(PID.TID 0000.0001)   Seconds in section "THE_MAIN_LOOP          [THE_MODEL_MAIN]":
(PID.TID 0000.0001)           User time:   26.2400001585484
(PID.TID 0000.0001)         System time:  0.340000003576279
(PID.TID 0000.0001)     Wall clock time:   33.0157079696655
(PID.TID 0000.0001)          No. starts:           1
(PID.TID 0000.0001)           No. stops:           1
(PID.TID 0000.0001)   Seconds in section "INITIALISE_VARIA    [THE_MAIN_LOOP]":
(PID.TID 0000.0001)           User time:  0.320000022649765
(PID.TID 0000.0001)         System time:  0.139999985694885
(PID.TID 0000.0001)     Wall clock time:   3.06504583358765
(PID.TID 0000.0001)          No. starts:           1
(PID.TID 0000.0001)           No. stops:           1
(PID.TID 0000.0001)   Seconds in section "MAIN LOOP           [THE_MAIN_LOOP]":
(PID.TID 0000.0001)           User time:   25.9200001358986
(PID.TID 0000.0001)         System time:  0.200000017881393
(PID.TID 0000.0001)     Wall clock time:   29.9506008625031
(PID.TID 0000.0001)          No. starts:           1
(PID.TID 0000.0001)           No. stops:           1
(PID.TID 0000.0001)   Seconds in section "FORWARD_STEP        [THE_MAIN_LOOP]":
(PID.TID 0000.0001)           User time:   25.9100001454353
(PID.TID 0000.0001)         System time:  0.200000017881393
(PID.TID 0000.0001)     Wall clock time:   29.9497909545898
(PID.TID 0000.0001)          No. starts:          40
(PID.TID 0000.0001)           No. stops:          40
(PID.TID 0000.0001)   Seconds in section "LOAD_FIELDS_DRIVER  [FORWARD_STEP]":
(PID.TID 0000.0001)           User time:  1.999998092651367E-002
(PID.TID 0000.0001)         System time:  1.000002026557922E-002
(PID.TID 0000.0001)     Wall clock time:  4.063940048217773E-002
(PID.TID 0000.0001)          No. starts:          40
(PID.TID 0000.0001)           No. stops:          40
(PID.TID 0000.0001)   Seconds in section "EXTERNAL_FLDS_LOAD [LOAD_FLDS_DRIVER]":
(PID.TID 0000.0001)           User time:  0.000000000000000E+000
(PID.TID 0000.0001)         System time:  0.000000000000000E+000
(PID.TID 0000.0001)     Wall clock time:  7.941722869873047E-004
(PID.TID 0000.0001)          No. starts:          40
(PID.TID 0000.0001)           No. stops:          40
(PID.TID 0000.0001)   Seconds in section "CPL_EXPORT-IMPORT  [FORWARD_STEP]":
(PID.TID 0000.0001)           User time:  4.000067710876465E-002
(PID.TID 0000.0001)         System time:  9.999990463256836E-003
(PID.TID 0000.0001)     Wall clock time:  5.950665473937988E-002
(PID.TID 0000.0001)          No. starts:          40
(PID.TID 0000.0001)           No. stops:          40
(PID.TID 0000.0001)   Seconds in section "DO_ATMOSPHERIC_PHYS [FORWARD_STEP]":
(PID.TID 0000.0001)           User time:   4.00999951362610
(PID.TID 0000.0001)         System time:  2.000001072883606E-002
(PID.TID 0000.0001)     Wall clock time:   4.15285205841064
(PID.TID 0000.0001)          No. starts:          40
(PID.TID 0000.0001)           No. stops:          40
(PID.TID 0000.0001)   Seconds in section "AIM_DO_PHYSICS [DO_ATMOSPHERIC_PHYS]":
(PID.TID 0000.0001)           User time:   3.95999860763550
(PID.TID 0000.0001)         System time:  2.000001072883606E-002
(PID.TID 0000.0001)     Wall clock time:   4.08882689476013
(PID.TID 0000.0001)          No. starts:         240
(PID.TID 0000.0001)           No. stops:         240
(PID.TID 0000.0001)   Seconds in section "DO_OCEANIC_PHYS     [FORWARD_STEP]":
(PID.TID 0000.0001)           User time:  0.000000000000000E+000
(PID.TID 0000.0001)         System time:  9.999990463256836E-003
(PID.TID 0000.0001)     Wall clock time:  8.335113525390625E-004
(PID.TID 0000.0001)          No. starts:          40
(PID.TID 0000.0001)           No. stops:          40
(PID.TID 0000.0001)   Seconds in section "DYNAMICS            [FORWARD_STEP]":
(PID.TID 0000.0001)           User time:   4.68999826908112
(PID.TID 0000.0001)         System time:  0.000000000000000E+000
(PID.TID 0000.0001)     Wall clock time:   4.67873263359070
(PID.TID 0000.0001)          No. starts:          40
(PID.TID 0000.0001)           No. stops:          40
(PID.TID 0000.0001)   Seconds in section "UPDATE_R_STAR       [FORWARD_STEP]":
(PID.TID 0000.0001)           User time:  0.370000958442688
(PID.TID 0000.0001)         System time:  0.000000000000000E+000
(PID.TID 0000.0001)     Wall clock time:  0.365234851837158
(PID.TID 0000.0001)          No. starts:          40
(PID.TID 0000.0001)           No. stops:          40
(PID.TID 0000.0001)   Seconds in section "UPDATE_CG2D         [FORWARD_STEP]":
(PID.TID 0000.0001)           User time:  0.199999332427979
(PID.TID 0000.0001)         System time:  0.000000000000000E+000
(PID.TID 0000.0001)     Wall clock time:  0.178962707519531
(PID.TID 0000.0001)          No. starts:          40
(PID.TID 0000.0001)           No. stops:          40
(PID.TID 0000.0001)   Seconds in section "SOLVE_FOR_PRESSURE  [FORWARD_STEP]":
(PID.TID 0000.0001)           User time:   1.76999956369400
(PID.TID 0000.0001)         System time:  0.000000000000000E+000
(PID.TID 0000.0001)     Wall clock time:   1.80679726600647
(PID.TID 0000.0001)          No. starts:          40
(PID.TID 0000.0001)           No. stops:          40
(PID.TID 0000.0001)   Seconds in section "MOM_CORRECTION_STEP [FORWARD_STEP]":
(PID.TID 0000.0001)           User time:   3.17000067234039
(PID.TID 0000.0001)         System time:  0.000000000000000E+000
(PID.TID 0000.0001)     Wall clock time:   3.17921376228333
(PID.TID 0000.0001)          No. starts:          40
(PID.TID 0000.0001)           No. stops:          40
(PID.TID 0000.0001)   Seconds in section "SHAP_FILT_UV       [MOM_CORR_STEP]":
(PID.TID 0000.0001)           User time:   2.71000158786774
(PID.TID 0000.0001)         System time:  0.000000000000000E+000
(PID.TID 0000.0001)     Wall clock time:   2.70172142982483
(PID.TID 0000.0001)          No. starts:          40
(PID.TID 0000.0001)           No. stops:          40
(PID.TID 0000.0001)   Seconds in section "UPDATE_ETAH         [FORWARD_STEP]":
(PID.TID 0000.0001)           User time:  2.000021934509277E-002
(PID.TID 0000.0001)         System time:  0.000000000000000E+000
(PID.TID 0000.0001)     Wall clock time:  1.113533973693848E-002
(PID.TID 0000.0001)          No. starts:          40
(PID.TID 0000.0001)           No. stops:          40
(PID.TID 0000.0001)   Seconds in section "CALC_R_STAR         [FORWARD_STEP]":
(PID.TID 0000.0001)           User time:  0.249998092651367
(PID.TID 0000.0001)         System time:  0.000000000000000E+000
(PID.TID 0000.0001)     Wall clock time:  0.215059041976929
(PID.TID 0000.0001)          No. starts:          40
(PID.TID 0000.0001)           No. stops:          40
(PID.TID 0000.0001)   Seconds in section "BLOCKING_EXCHANGES  [FORWARD_STEP]":
(PID.TID 0000.0001)           User time:  0.510002255439758
(PID.TID 0000.0001)         System time:  0.000000000000000E+000
(PID.TID 0000.0001)     Wall clock time:  0.531513929367065
(PID.TID 0000.0001)          No. starts:          80
(PID.TID 0000.0001)           No. stops:          80
(PID.TID 0000.0001)   Seconds in section "THERMODYNAMICS      [FORWARD_STEP]":
(PID.TID 0000.0001)           User time:   2.21000277996063
(PID.TID 0000.0001)         System time:  0.000000000000000E+000
(PID.TID 0000.0001)     Wall clock time:   2.23719763755798
(PID.TID 0000.0001)          No. starts:          40
(PID.TID 0000.0001)           No. stops:          40
(PID.TID 0000.0001)   Seconds in section "TRC_CORRECTION_STEP [FORWARD_STEP]":
(PID.TID 0000.0001)           User time:   2.30999839305878
(PID.TID 0000.0001)         System time:  0.000000000000000E+000
(PID.TID 0000.0001)     Wall clock time:   2.31087994575500
(PID.TID 0000.0001)          No. starts:          40
(PID.TID 0000.0001)           No. stops:          40
(PID.TID 0000.0001)   Seconds in section "SHAP_FILT_TS       [TRC_CORR_STEP]":
(PID.TID 0000.0001)           User time:   2.26999962329865
(PID.TID 0000.0001)         System time:  0.000000000000000E+000
(PID.TID 0000.0001)     Wall clock time:   2.24034595489502
(PID.TID 0000.0001)          No. starts:          40
(PID.TID 0000.0001)           No. stops:          40
(PID.TID 0000.0001)   Seconds in section "DO_STATEVARS_TAVE   [FORWARD_STEP]":
(PID.TID 0000.0001)           User time:   1.78999972343445
(PID.TID 0000.0001)         System time:  0.000000000000000E+000
(PID.TID 0000.0001)     Wall clock time:   1.75927591323853
(PID.TID 0000.0001)          No. starts:          40
(PID.TID 0000.0001)           No. stops:          40
(PID.TID 0000.0001)   Seconds in section "MONITOR             [FORWARD_STEP]":
(PID.TID 0000.0001)           User time:   4.00999999046326
(PID.TID 0000.0001)         System time:  1.999998092651367E-002
(PID.TID 0000.0001)     Wall clock time:   4.02408409118652
(PID.TID 0000.0001)          No. starts:          40
(PID.TID 0000.0001)           No. stops:          40
(PID.TID 0000.0001)   Seconds in section "DO_THE_MODEL_IO     [FORWARD_STEP]":
(PID.TID 0000.0001)           User time:  0.519999742507935
(PID.TID 0000.0001)         System time:  0.130000025033951
(PID.TID 0000.0001)     Wall clock time:   4.38048100471497
(PID.TID 0000.0001)          No. starts:          40
(PID.TID 0000.0001)           No. stops:          40
(PID.TID 0000.0001)   Seconds in section "DO_WRITE_PICKUP     [FORWARD_STEP]":
(PID.TID 0000.0001)           User time:  0.000000000000000E+000
(PID.TID 0000.0001)         System time:  0.000000000000000E+000
(PID.TID 0000.0001)     Wall clock time:  8.747577667236328E-004
(PID.TID 0000.0001)          No. starts:          40
(PID.TID 0000.0001)           No. stops:          40
(PID.TID 0000.0001)   Seconds in section "DO_WRITE_PICKUP        [THE_MODEL_MAIN]":
(PID.TID 0000.0001)           User time:  6.999969482421875E-002
(PID.TID 0000.0001)         System time:  9.999996423721313E-002
(PID.TID 0000.0001)     Wall clock time:   4.51639103889465
(PID.TID 0000.0001)          No. starts:           1
(PID.TID 0000.0001)           No. stops:           1
(PID.TID 0000.0001) // ======================================================
(PID.TID 0000.0001) // Tile <-> Tile communication statistics
(PID.TID 0000.0001) // ======================================================
(PID.TID 0000.0001) // o Tile number: 000001
(PID.TID 0000.0001) //         No. X exchanges =              0
(PID.TID 0000.0001) //            Max. X spins =              0
(PID.TID 0000.0001) //            Min. X spins =     1000000000
(PID.TID 0000.0001) //          Total. X spins =              0
(PID.TID 0000.0001) //            Avg. X spins =       0.00E+00
(PID.TID 0000.0001) //         No. Y exchanges =              0
(PID.TID 0000.0001) //            Max. Y spins =              0
(PID.TID 0000.0001) //            Min. Y spins =     1000000000
(PID.TID 0000.0001) //          Total. Y spins =              0
(PID.TID 0000.0001) //            Avg. Y spins =       0.00E+00
(PID.TID 0000.0001) // o Tile number: 000002
(PID.TID 0000.0001) //         No. X exchanges =              0
(PID.TID 0000.0001) //            Max. X spins =              0
(PID.TID 0000.0001) //            Min. X spins =     1000000000
(PID.TID 0000.0001) //          Total. X spins =              0
(PID.TID 0000.0001) //            Avg. X spins =       0.00E+00
(PID.TID 0000.0001) //         No. Y exchanges =              0
(PID.TID 0000.0001) //            Max. Y spins =              0
(PID.TID 0000.0001) //            Min. Y spins =     1000000000
(PID.TID 0000.0001) //          Total. Y spins =              0
(PID.TID 0000.0001) //            Avg. Y spins =       0.00E+00
(PID.TID 0000.0001) // o Tile number: 000003
(PID.TID 0000.0001) //         No. X exchanges =              0
(PID.TID 0000.0001) //            Max. X spins =              0
(PID.TID 0000.0001) //            Min. X spins =     1000000000
(PID.TID 0000.0001) //          Total. X spins =              0
(PID.TID 0000.0001) //            Avg. X spins =       0.00E+00
(PID.TID 0000.0001) //         No. Y exchanges =              0
(PID.TID 0000.0001) //            Max. Y spins =              0
(PID.TID 0000.0001) //            Min. Y spins =     1000000000
(PID.TID 0000.0001) //          Total. Y spins =              0
(PID.TID 0000.0001) //            Avg. Y spins =       0.00E+00
(PID.TID 0000.0001) // o Tile number: 000004
(PID.TID 0000.0001) //         No. X exchanges =              0
(PID.TID 0000.0001) //            Max. X spins =              0
(PID.TID 0000.0001) //            Min. X spins =     1000000000
(PID.TID 0000.0001) //          Total. X spins =              0
(PID.TID 0000.0001) //            Avg. X spins =       0.00E+00
(PID.TID 0000.0001) //         No. Y exchanges =              0
(PID.TID 0000.0001) //            Max. Y spins =              0
(PID.TID 0000.0001) //            Min. Y spins =     1000000000
(PID.TID 0000.0001) //          Total. Y spins =              0
(PID.TID 0000.0001) //            Avg. Y spins =       0.00E+00
(PID.TID 0000.0001) // o Tile number: 000005
(PID.TID 0000.0001) //         No. X exchanges =              0
(PID.TID 0000.0001) //            Max. X spins =              0
(PID.TID 0000.0001) //            Min. X spins =     1000000000
(PID.TID 0000.0001) //          Total. X spins =              0
(PID.TID 0000.0001) //            Avg. X spins =       0.00E+00
(PID.TID 0000.0001) //         No. Y exchanges =              0
(PID.TID 0000.0001) //            Max. Y spins =              0
(PID.TID 0000.0001) //            Min. Y spins =     1000000000
(PID.TID 0000.0001) //          Total. Y spins =              0
(PID.TID 0000.0001) //            Avg. Y spins =       0.00E+00
(PID.TID 0000.0001) // o Tile number: 000006
(PID.TID 0000.0001) //         No. X exchanges =              0
(PID.TID 0000.0001) //            Max. X spins =              0
(PID.TID 0000.0001) //            Min. X spins =     1000000000
(PID.TID 0000.0001) //          Total. X spins =              0
(PID.TID 0000.0001) //            Avg. X spins =       0.00E+00
(PID.TID 0000.0001) //         No. Y exchanges =              0
(PID.TID 0000.0001) //            Max. Y spins =              0
(PID.TID 0000.0001) //            Min. Y spins =     1000000000
(PID.TID 0000.0001) //          Total. Y spins =              0
(PID.TID 0000.0001) //            Avg. Y spins =       0.00E+00
(PID.TID 0000.0001) // o Thread number: 000001
(PID.TID 0000.0001) //            No. barriers =          58902
(PID.TID 0000.0001) //      Max. barrier spins =              1
(PID.TID 0000.0001) //      Min. barrier spins =              1
(PID.TID 0000.0001) //     Total barrier spins =          58902
(PID.TID 0000.0001) //      Avg. barrier spins =       1.00E+00
