(PID.TID 0000.0001) 
(PID.TID 0000.0001) // ======================================================
(PID.TID 0000.0001) //                      MITgcm UV
(PID.TID 0000.0001) //                      =========
(PID.TID 0000.0001) // ======================================================
(PID.TID 0000.0001) // execution environment starting up...
(PID.TID 0000.0001) 
(PID.TID 0000.0001) // MITgcmUV version:  checkpoint57i_post
(PID.TID 0000.0001) // Build user:        jmc
(PID.TID 0000.0001) // Build host:        myrinet-3-20
(PID.TID 0000.0001) // Build date:        Sun Jun 19 20:16:36 EDT 2005
(PID.TID 0000.0001) 
(PID.TID 0000.0001) // =======================================================
(PID.TID 0000.0001) // Execution Environment parameter file "eedata"
(PID.TID 0000.0001) // =======================================================
(PID.TID 0000.0001) ># Example "eedata" file
(PID.TID 0000.0001) ># Lines beginning "#" are comments
(PID.TID 0000.0001) ># nTx - No. threads per process in X
(PID.TID 0000.0001) ># nTy - No. threads per process in Y
(PID.TID 0000.0001) > &EEPARMS
(PID.TID 0000.0001) > useCoupler=.TRUE.,
(PID.TID 0000.0001) > useCubedSphereExchange=.TRUE.,
(PID.TID 0000.0001) ># Activate one line below to support 2, 3 or 6 way multi-threading
(PID.TID 0000.0001) > nTx=1,
(PID.TID 0000.0001) >#nTx=2,
(PID.TID 0000.0001) >#nTx=3,
(PID.TID 0000.0001) >#nTx=6,
(PID.TID 0000.0001) > &
(PID.TID 0000.0001) ># Note: Some systems use & as the
(PID.TID 0000.0001) ># namelist terminator. Other systems
(PID.TID 0000.0001) ># use a / character (as shown here).
(PID.TID 0000.0001) 
(PID.TID 0000.0001) // =======================================================
(PID.TID 0000.0001) // Computational Grid Specification ( see files "SIZE.h" )
(PID.TID 0000.0001) //                                  ( and "eedata"       )
(PID.TID 0000.0001) // =======================================================
(PID.TID 0000.0001)      nPx =    1 ; /* No. processes in X */
(PID.TID 0000.0001)      nPy =    1 ; /* No. processes in Y */
(PID.TID 0000.0001)      nSx =    6 ; /* No. tiles in X per process */
(PID.TID 0000.0001)      nSy =    1 ; /* No. tiles in Y per process */
(PID.TID 0000.0001)      sNx =   32 ; /* Tile size in X */
(PID.TID 0000.0001)      sNy =   32 ; /* Tile size in Y */
(PID.TID 0000.0001)      OLx =    2 ; /* Tile overlap distance in X */
(PID.TID 0000.0001)      OLy =    2 ; /* Tile overlap distance in Y */
(PID.TID 0000.0001)      nTx =    1 ; /* No. threads in X per process */
(PID.TID 0000.0001)      nTy =    1 ; /* No. threads in Y per process */
(PID.TID 0000.0001)       Nr =    5 ; /* No. levels in the vertical   */
(PID.TID 0000.0001)       nX =  192 ; /* Total domain size in X ( = nPx*nSx*sNx ) */
(PID.TID 0000.0001)       nY =   32 ; /* Total domain size in Y ( = nPy*nSy*sNy ) */
(PID.TID 0000.0001)   nTiles =    6 ; /* Total no. tiles per process ( = nSx*nSy ) */
(PID.TID 0000.0001)   nProcs =    1 ; /* Total no. processes ( = nPx*nPy ) */
(PID.TID 0000.0001) nThreads =    1 ; /* Total no. threads per process ( = nTx*nTy ) */
(PID.TID 0000.0001) usingMPI =    F ; /* Flag used to control whether MPI is in use */
(PID.TID 0000.0001)                   /*  note: To execute a program with MPI calls */
(PID.TID 0000.0001)                   /*  it must be launched appropriately e.g     */
(PID.TID 0000.0001)                   /*  "mpirun -np 64 ......"                    */
(PID.TID 0000.0001) useCoupler=   T ; /* Flag used to control communications with */
(PID.TID 0000.0001)                   /*  other model components, through a coupler */
(PID.TID 0000.0001) 
(PID.TID 0000.0001) ======= Starting MPI parallel Run =========
(PID.TID 0000.0001)  My Processor Name =                                                     myrinet-3-04
(PID.TID 0000.0001)  Located at (  0,  0) on processor grid (0:  0,0:  0)
(PID.TID 0000.0001)  Origin at  (   1,   1) on global grid (1: 192,1:  32)
(PID.TID 0000.0001)  North neighbor = processor 0000
(PID.TID 0000.0001)  South neighbor = processor 0000
(PID.TID 0000.0001)   East neighbor = processor 0000
(PID.TID 0000.0001)   West neighbor = processor 0000
(PID.TID 0000.0001) // ======================================================
(PID.TID 0000.0001) // Mapping of tiles to threads
(PID.TID 0000.0001) // ======================================================
(PID.TID 0000.0001) // -o- Thread   1, tiles (   1:   6,   1:   1)
(PID.TID 0000.0001) 
(PID.TID 0000.0001) // ======================================================
(PID.TID 0000.0001) // Tile <-> Tile connectvity table
(PID.TID 0000.0001) // ======================================================
(PID.TID 0000.0001) // Tile number: 000001 (process no. = 000000)
(PID.TID 0000.0001) //        WEST: Tile = 000006, Process = 000000, Comm = put
(PID.TID 0000.0001) //                bi = 000006, bj = 000001
(PID.TID 0000.0001) //        EAST: Tile = 000002, Process = 000000, Comm = put
(PID.TID 0000.0001) //                bi = 000002, bj = 000001
(PID.TID 0000.0001) //       SOUTH: Tile = 000001, Process = 000000, Comm = put
(PID.TID 0000.0001) //                bi = 000001, bj = 000001
(PID.TID 0000.0001) //       NORTH: Tile = 000001, Process = 000000, Comm = put
(PID.TID 0000.0001) //                bi = 000001, bj = 000001
(PID.TID 0000.0001) // Tile number: 000002 (process no. = 000000)
(PID.TID 0000.0001) //        WEST: Tile = 000001, Process = 000000, Comm = put
(PID.TID 0000.0001) //                bi = 000001, bj = 000001
(PID.TID 0000.0001) //        EAST: Tile = 000003, Process = 000000, Comm = put
(PID.TID 0000.0001) //                bi = 000003, bj = 000001
(PID.TID 0000.0001) //       SOUTH: Tile = 000002, Process = 000000, Comm = put
(PID.TID 0000.0001) //                bi = 000002, bj = 000001
(PID.TID 0000.0001) //       NORTH: Tile = 000002, Process = 000000, Comm = put
(PID.TID 0000.0001) //                bi = 000002, bj = 000001
(PID.TID 0000.0001) // Tile number: 000003 (process no. = 000000)
(PID.TID 0000.0001) //        WEST: Tile = 000002, Process = 000000, Comm = put
(PID.TID 0000.0001) //                bi = 000002, bj = 000001
(PID.TID 0000.0001) //        EAST: Tile = 000004, Process = 000000, Comm = put
(PID.TID 0000.0001) //                bi = 000004, bj = 000001
(PID.TID 0000.0001) //       SOUTH: Tile = 000003, Process = 000000, Comm = put
(PID.TID 0000.0001) //                bi = 000003, bj = 000001
(PID.TID 0000.0001) //       NORTH: Tile = 000003, Process = 000000, Comm = put
(PID.TID 0000.0001) //                bi = 000003, bj = 000001
(PID.TID 0000.0001) // Tile number: 000004 (process no. = 000000)
(PID.TID 0000.0001) //        WEST: Tile = 000003, Process = 000000, Comm = put
(PID.TID 0000.0001) //                bi = 000003, bj = 000001
(PID.TID 0000.0001) //        EAST: Tile = 000005, Process = 000000, Comm = put
(PID.TID 0000.0001) //                bi = 000005, bj = 000001
(PID.TID 0000.0001) //       SOUTH: Tile = 000004, Process = 000000, Comm = put
(PID.TID 0000.0001) //                bi = 000004, bj = 000001
(PID.TID 0000.0001) //       NORTH: Tile = 000004, Process = 000000, Comm = put
(PID.TID 0000.0001) //                bi = 000004, bj = 000001
(PID.TID 0000.0001) // Tile number: 000005 (process no. = 000000)
(PID.TID 0000.0001) //        WEST: Tile = 000004, Process = 000000, Comm = put
(PID.TID 0000.0001) //                bi = 000004, bj = 000001
(PID.TID 0000.0001) //        EAST: Tile = 000006, Process = 000000, Comm = put
(PID.TID 0000.0001) //                bi = 000006, bj = 000001
(PID.TID 0000.0001) //       SOUTH: Tile = 000005, Process = 000000, Comm = put
(PID.TID 0000.0001) //                bi = 000005, bj = 000001
(PID.TID 0000.0001) //       NORTH: Tile = 000005, Process = 000000, Comm = put
(PID.TID 0000.0001) //                bi = 000005, bj = 000001
(PID.TID 0000.0001) // Tile number: 000006 (process no. = 000000)
(PID.TID 0000.0001) //        WEST: Tile = 000005, Process = 000000, Comm = put
(PID.TID 0000.0001) //                bi = 000005, bj = 000001
(PID.TID 0000.0001) //        EAST: Tile = 000001, Process = 000000, Comm = put
(PID.TID 0000.0001) //                bi = 000001, bj = 000001
(PID.TID 0000.0001) //       SOUTH: Tile = 000006, Process = 000000, Comm = put
(PID.TID 0000.0001) //                bi = 000006, bj = 000001
(PID.TID 0000.0001) //       NORTH: Tile = 000006, Process = 000000, Comm = put
(PID.TID 0000.0001) //                bi = 000006, bj = 000001
(PID.TID 0000.0001) 
(PID.TID 0000.0001) ===== W2 TILE TOPLOGY =====
(PID.TID 0000.0001)  TILE:    1
(PID.TID 0000.0001)       NEIGHBOUR    1 = TILE    3 Comm = PUT ( PROC =    1)
(PID.TID 0000.0001)       NEIGHBOUR    2 = TILE    6 Comm = PUT ( PROC =    1)
(PID.TID 0000.0001)       NEIGHBOUR    3 = TILE    2 Comm = PUT ( PROC =    1)
(PID.TID 0000.0001)       NEIGHBOUR    4 = TILE    5 Comm = PUT ( PROC =    1)
(PID.TID 0000.0001)  TILE:    2
(PID.TID 0000.0001)       NEIGHBOUR    1 = TILE    3 Comm = PUT ( PROC =    1)
(PID.TID 0000.0001)       NEIGHBOUR    2 = TILE    6 Comm = PUT ( PROC =    1)
(PID.TID 0000.0001)       NEIGHBOUR    3 = TILE    4 Comm = PUT ( PROC =    1)
(PID.TID 0000.0001)       NEIGHBOUR    4 = TILE    1 Comm = PUT ( PROC =    1)
(PID.TID 0000.0001)  TILE:    3
(PID.TID 0000.0001)       NEIGHBOUR    1 = TILE    5 Comm = PUT ( PROC =    1)
(PID.TID 0000.0001)       NEIGHBOUR    2 = TILE    2 Comm = PUT ( PROC =    1)
(PID.TID 0000.0001)       NEIGHBOUR    3 = TILE    4 Comm = PUT ( PROC =    1)
(PID.TID 0000.0001)       NEIGHBOUR    4 = TILE    1 Comm = PUT ( PROC =    1)
(PID.TID 0000.0001)  TILE:    4
(PID.TID 0000.0001)       NEIGHBOUR    1 = TILE    5 Comm = PUT ( PROC =    1)
(PID.TID 0000.0001)       NEIGHBOUR    2 = TILE    2 Comm = PUT ( PROC =    1)
(PID.TID 0000.0001)       NEIGHBOUR    3 = TILE    6 Comm = PUT ( PROC =    1)
(PID.TID 0000.0001)       NEIGHBOUR    4 = TILE    3 Comm = PUT ( PROC =    1)
(PID.TID 0000.0001)  TILE:    5
(PID.TID 0000.0001)       NEIGHBOUR    1 = TILE    1 Comm = PUT ( PROC =    1)
(PID.TID 0000.0001)       NEIGHBOUR    2 = TILE    4 Comm = PUT ( PROC =    1)
(PID.TID 0000.0001)       NEIGHBOUR    3 = TILE    6 Comm = PUT ( PROC =    1)
(PID.TID 0000.0001)       NEIGHBOUR    4 = TILE    3 Comm = PUT ( PROC =    1)
(PID.TID 0000.0001)  TILE:    6
(PID.TID 0000.0001)       NEIGHBOUR    1 = TILE    1 Comm = PUT ( PROC =    1)
(PID.TID 0000.0001)       NEIGHBOUR    2 = TILE    4 Comm = PUT ( PROC =    1)
(PID.TID 0000.0001)       NEIGHBOUR    3 = TILE    2 Comm = PUT ( PROC =    1)
(PID.TID 0000.0001)       NEIGHBOUR    4 = TILE    5 Comm = PUT ( PROC =    1)
(PID.TID 0000.0001) Tile    1(proc =   1) sends points i=  34:  -1, j=  31:  32
(PID.TID 0000.0001)                          to points i=  -1:   0, j=  -1:  34 in tile    3(proc =   1)
(PID.TID 0000.0001) Tile    1(proc =   1) sends points i=  -1:  34, j=   1:   2
(PID.TID 0000.0001)                          to points i=  -1:  34, j=  33:  34 in tile    6(proc =   1)
(PID.TID 0000.0001) Tile    1(proc =   1) sends points i=  31:  32, j=  -1:  34
(PID.TID 0000.0001)                          to points i=  -1:   0, j=  -1:  34 in tile    2(proc =   1)
(PID.TID 0000.0001) Tile    1(proc =   1) sends points i=   1:   2, j=  34:  -1
(PID.TID 0000.0001)                          to points i=  -1:  34, j=  33:  34 in tile    5(proc =   1)
(PID.TID 0000.0001) Tile    2(proc =   1) sends points i=  -1:  34, j=  31:  32
(PID.TID 0000.0001)                          to points i=  -1:  34, j=  -1:   0 in tile    3(proc =   1)
(PID.TID 0000.0001) Tile    2(proc =   1) sends points i=  34:  -1, j=   1:   2
(PID.TID 0000.0001)                          to points i=  33:  34, j=  -1:  34 in tile    6(proc =   1)
(PID.TID 0000.0001) Tile    2(proc =   1) sends points i=  31:  32, j=  34:  -1
(PID.TID 0000.0001)                          to points i=  -1:  34, j=  -1:   0 in tile    4(proc =   1)
(PID.TID 0000.0001) Tile    2(proc =   1) sends points i=   1:   2, j=  -1:  34
(PID.TID 0000.0001)                          to points i=  33:  34, j=  -1:  34 in tile    1(proc =   1)
(PID.TID 0000.0001) Tile    3(proc =   1) sends points i=  34:  -1, j=  31:  32
(PID.TID 0000.0001)                          to points i=  -1:   0, j=  -1:  34 in tile    5(proc =   1)
(PID.TID 0000.0001) Tile    3(proc =   1) sends points i=  -1:  34, j=   1:   2
(PID.TID 0000.0001)                          to points i=  -1:  34, j=  33:  34 in tile    2(proc =   1)
(PID.TID 0000.0001) Tile    3(proc =   1) sends points i=  31:  32, j=  -1:  34
(PID.TID 0000.0001)                          to points i=  -1:   0, j=  -1:  34 in tile    4(proc =   1)
(PID.TID 0000.0001) Tile    3(proc =   1) sends points i=   1:   2, j=  34:  -1
(PID.TID 0000.0001)                          to points i=  -1:  34, j=  33:  34 in tile    1(proc =   1)
(PID.TID 0000.0001) Tile    4(proc =   1) sends points i=  -1:  34, j=  31:  32
(PID.TID 0000.0001)                          to points i=  -1:  34, j=  -1:   0 in tile    5(proc =   1)
(PID.TID 0000.0001) Tile    4(proc =   1) sends points i=  34:  -1, j=   1:   2
(PID.TID 0000.0001)                          to points i=  33:  34, j=  -1:  34 in tile    2(proc =   1)
(PID.TID 0000.0001) Tile    4(proc =   1) sends points i=  31:  32, j=  34:  -1
(PID.TID 0000.0001)                          to points i=  -1:  34, j=  -1:   0 in tile    6(proc =   1)
(PID.TID 0000.0001) Tile    4(proc =   1) sends points i=   1:   2, j=  -1:  34
(PID.TID 0000.0001)                          to points i=  33:  34, j=  -1:  34 in tile    3(proc =   1)
(PID.TID 0000.0001) Tile    5(proc =   1) sends points i=  34:  -1, j=  31:  32
(PID.TID 0000.0001)                          to points i=  -1:   0, j=  -1:  34 in tile    1(proc =   1)
(PID.TID 0000.0001) Tile    5(proc =   1) sends points i=  -1:  34, j=   1:   2
(PID.TID 0000.0001)                          to points i=  -1:  34, j=  33:  34 in tile    4(proc =   1)
(PID.TID 0000.0001) Tile    5(proc =   1) sends points i=  31:  32, j=  -1:  34
(PID.TID 0000.0001)                          to points i=  -1:   0, j=  -1:  34 in tile    6(proc =   1)
(PID.TID 0000.0001) Tile    5(proc =   1) sends points i=   1:   2, j=  34:  -1
(PID.TID 0000.0001)                          to points i=  -1:  34, j=  33:  34 in tile    3(proc =   1)
(PID.TID 0000.0001) Tile    6(proc =   1) sends points i=  -1:  34, j=  31:  32
(PID.TID 0000.0001)                          to points i=  -1:  34, j=  -1:   0 in tile    1(proc =   1)
(PID.TID 0000.0001) Tile    6(proc =   1) sends points i=  34:  -1, j=   1:   2
(PID.TID 0000.0001)                          to points i=  33:  34, j=  -1:  34 in tile    4(proc =   1)
(PID.TID 0000.0001) Tile    6(proc =   1) sends points i=  31:  32, j=  34:  -1
(PID.TID 0000.0001)                          to points i=  -1:  34, j=  -1:   0 in tile    2(proc =   1)
(PID.TID 0000.0001) Tile    6(proc =   1) sends points i=   1:   2, j=  -1:  34
(PID.TID 0000.0001)                          to points i=  33:  34, j=  -1:  34 in tile    5(proc =   1)
(PID.TID 0000.0001) Tile    1(proc =   1)recv to points i=  -1:  34, j=  33:  34from tile   3(proc =   1)
(PID.TID 0000.0001) Tile    1(proc =   1)recv to points i=  -1:  34, j=  -1:   0from tile   6(proc =   1)
(PID.TID 0000.0001) Tile    1(proc =   1)recv to points i=  33:  34, j=  -1:  34from tile   2(proc =   1)
(PID.TID 0000.0001) Tile    1(proc =   1)recv to points i=  -1:   0, j=  -1:  34from tile   5(proc =   1)
(PID.TID 0000.0001) Tile    2(proc =   1)recv to points i=  -1:  34, j=  33:  34from tile   3(proc =   1)
(PID.TID 0000.0001) Tile    2(proc =   1)recv to points i=  -1:  34, j=  -1:   0from tile   6(proc =   1)
(PID.TID 0000.0001) Tile    2(proc =   1)recv to points i=  33:  34, j=  -1:  34from tile   4(proc =   1)
(PID.TID 0000.0001) Tile    2(proc =   1)recv to points i=  -1:   0, j=  -1:  34from tile   1(proc =   1)
(PID.TID 0000.0001) Tile    3(proc =   1)recv to points i=  -1:  34, j=  33:  34from tile   5(proc =   1)
(PID.TID 0000.0001) Tile    3(proc =   1)recv to points i=  -1:  34, j=  -1:   0from tile   2(proc =   1)
(PID.TID 0000.0001) Tile    3(proc =   1)recv to points i=  33:  34, j=  -1:  34from tile   4(proc =   1)
(PID.TID 0000.0001) Tile    3(proc =   1)recv to points i=  -1:   0, j=  -1:  34from tile   1(proc =   1)
(PID.TID 0000.0001) Tile    4(proc =   1)recv to points i=  -1:  34, j=  33:  34from tile   5(proc =   1)
(PID.TID 0000.0001) Tile    4(proc =   1)recv to points i=  -1:  34, j=  -1:   0from tile   2(proc =   1)
(PID.TID 0000.0001) Tile    4(proc =   1)recv to points i=  33:  34, j=  -1:  34from tile   6(proc =   1)
(PID.TID 0000.0001) Tile    4(proc =   1)recv to points i=  -1:   0, j=  -1:  34from tile   3(proc =   1)
(PID.TID 0000.0001) Tile    5(proc =   1)recv to points i=  -1:  34, j=  33:  34from tile   1(proc =   1)
(PID.TID 0000.0001) Tile    5(proc =   1)recv to points i=  -1:  34, j=  -1:   0from tile   4(proc =   1)
(PID.TID 0000.0001) Tile    5(proc =   1)recv to points i=  33:  34, j=  -1:  34from tile   6(proc =   1)
(PID.TID 0000.0001) Tile    5(proc =   1)recv to points i=  -1:   0, j=  -1:  34from tile   3(proc =   1)
(PID.TID 0000.0001) Tile    6(proc =   1)recv to points i=  -1:  34, j=  33:  34from tile   1(proc =   1)
(PID.TID 0000.0001) Tile    6(proc =   1)recv to points i=  -1:  34, j=  -1:   0from tile   4(proc =   1)
(PID.TID 0000.0001) Tile    6(proc =   1)recv to points i=  33:  34, j=  -1:  34from tile   2(proc =   1)
(PID.TID 0000.0001) Tile    6(proc =   1)recv to points i=  -1:   0, j=  -1:  34from tile   5(proc =   1)
(PID.TID 0000.0001) // =======================================================
(PID.TID 0000.0001) // Model parameter file "data"
(PID.TID 0000.0001) // =======================================================
(PID.TID 0000.0001) ># ====================
(PID.TID 0000.0001) ># | Model parameters |
(PID.TID 0000.0001) ># ====================
(PID.TID 0000.0001) >#
(PID.TID 0000.0001) ># Continuous equation parameters
(PID.TID 0000.0001) > &PARM01
(PID.TID 0000.0001) > tRef=289.6, 298.1, 314.5, 335.8, 437.4,
(PID.TID 0000.0001) > sRef=5*0.,
(PID.TID 0000.0001) > no_slip_sides=.FALSE.,
(PID.TID 0000.0001) > no_slip_bottom=.FALSE.,
(PID.TID 0000.0001) > buoyancyRelation='ATMOSPHERIC',
(PID.TID 0000.0001) > eosType='IDEALGAS',
(PID.TID 0000.0001) > atm_Rq=0.6078E-3,
(PID.TID 0000.0001) > Integr_GeoPot=2,
(PID.TID 0000.0001) > selectFindRoSurf=1,
(PID.TID 0000.0001) > gravity=9.81,
(PID.TID 0000.0001) > rhonil=1.0,
(PID.TID 0000.0001) > rhoConst=1.0,
(PID.TID 0000.0001) > rhoConstFresh=1000.,
(PID.TID 0000.0001) > implicitFreeSurface=.TRUE.,
(PID.TID 0000.0001) > exactConserv=.TRUE.,
(PID.TID 0000.0001) > select_rStar=2,
(PID.TID 0000.0001) > nonlinFreeSurf=4,
(PID.TID 0000.0001) > hFacInf=0.2,
(PID.TID 0000.0001) > hFacSup=2.0,
(PID.TID 0000.0001) > uniformLin_PhiSurf=.FALSE.,
(PID.TID 0000.0001) > hFacMin=0.2,
(PID.TID 0000.0001) > saltAdvScheme=3,
(PID.TID 0000.0001) > vectorInvariantMomentum=.TRUE.,
(PID.TID 0000.0001) > useJamartWetPoints=.TRUE.,
(PID.TID 0000.0001) > staggerTimeStep=.TRUE.,
(PID.TID 0000.0001) > readBinaryPrec=64,
(PID.TID 0000.0001) > writeBinaryPrec=64,
(PID.TID 0000.0001) > &
(PID.TID 0000.0001) >
(PID.TID 0000.0001) ># Elliptic solver parameters
(PID.TID 0000.0001) > &PARM02
(PID.TID 0000.0001) > cg2dMaxIters=200,
(PID.TID 0000.0001) >#cg2dTargetResidual=1.E-12,
(PID.TID 0000.0001) > cg2dTargetResWunit=1.E-17,
(PID.TID 0000.0001) > &
(PID.TID 0000.0001) >
(PID.TID 0000.0001) ># Time stepping parameters
(PID.TID 0000.0001) > &PARM03
(PID.TID 0000.0001) > nIter0=0,
(PID.TID 0000.0001) > nTimeSteps=40,
(PID.TID 0000.0001) ># 10yr:
(PID.TID 0000.0001) >#endTime=311040000.,
(PID.TID 0000.0001) > deltaT=450.0,
(PID.TID 0000.0001) > abEps=0.1,
(PID.TID 0000.0001) > forcing_In_AB=.FALSE.,
(PID.TID 0000.0001) > cAdjFreq=0.,
(PID.TID 0000.0001) > pChkptFreq=2592000.,
(PID.TID 0000.0001) > taveFreq=2592000.,
(PID.TID 0000.0001) > dumpFreq=2592000.,
(PID.TID 0000.0001) > monitorFreq=86400.,
(PID.TID 0000.0001) > monitorFreq=1.,
(PID.TID 0000.0001) > &
(PID.TID 0000.0001) >
(PID.TID 0000.0001) ># Gridding parameters
(PID.TID 0000.0001) > &PARM04
(PID.TID 0000.0001) > usingCurvilinearGrid=.TRUE.,
(PID.TID 0000.0001) > delR=100.E2, 250.E2, 300.E2, 200.E2, 150.E2,
(PID.TID 0000.0001) > Ro_SeaLevel=1.E5,
(PID.TID 0000.0001) > groundAtK1=.TRUE.,
(PID.TID 0000.0001) > rSphere=6370.E3,
(PID.TID 0000.0001) > &
(PID.TID 0000.0001) >
(PID.TID 0000.0001) ># Input datasets
(PID.TID 0000.0001) > &PARM05
(PID.TID 0000.0001) > topoFile='topo.cpl_FM.bin',
(PID.TID 0000.0001) > &
(PID.TID 0000.0001) 
(PID.TID 0000.0001) S/R INI_PARMS ; starts to read PARM01
(PID.TID 0000.0001) S/R INI_PARMS ; read PARM01 : OK
(PID.TID 0000.0001) S/R INI_PARMS ; starts to read PARM02
(PID.TID 0000.0001) S/R INI_PARMS ; read PARM02 : OK
(PID.TID 0000.0001) S/R INI_PARMS ; starts to read PARM03
(PID.TID 0000.0001) S/R INI_PARMS ; read PARM03 : OK
(PID.TID 0000.0001) S/R INI_PARMS ; starts to read PARM04
(PID.TID 0000.0001) S/R INI_PARMS ; read PARM04 : OK
(PID.TID 0000.0001) S/R INI_PARMS ; starts to read PARM05
(PID.TID 0000.0001) S/R INI_PARMS ; read PARM05 : OK
(PID.TID 0000.0001)  PACKAGES_BOOT: opening data.pkg
(PID.TID 0000.0001)  OPEN_COPY_DATA_FILE: opening file data.pkg
(PID.TID 0000.0001) // =======================================================
(PID.TID 0000.0001) // Parameter file "data.pkg"
(PID.TID 0000.0001) // =======================================================
(PID.TID 0000.0001) ># Packages
(PID.TID 0000.0001) >#     useAIM  :: use Atmospheric Intermediate complexity Model
(PID.TID 0000.0001) >#     useLand :: use (simple) Land package to compute surf. BC over land
(PID.TID 0000.0001) >#   useThSIce :: use Therm. SeaIce package (+slab ocean)
(PID.TID 0000.0001) > &PACKAGES
(PID.TID 0000.0001) > useAIM=.TRUE.,
(PID.TID 0000.0001) > useLand=.TRUE.,
(PID.TID 0000.0001) > useThSIce=.TRUE.,
(PID.TID 0000.0001) > useSHAP_FILT=.TRUE.,
(PID.TID 0000.0001) > useMNC=.TRUE.,
(PID.TID 0000.0001) > &
(PID.TID 0000.0001) 
(PID.TID 0000.0001)  PACKAGES_BOOT: finished reading data.pkg
(PID.TID 0000.0001)  MNC_READPARMS: opening file 'data.mnc'
(PID.TID 0000.0001) // =======================================================
(PID.TID 0000.0001) // Parameter file "data.mnc"
(PID.TID 0000.0001) // =======================================================
(PID.TID 0000.0001) ># Example "data.mnc" file
(PID.TID 0000.0001) ># Lines beginning "#" are comments
(PID.TID 0000.0001) > &MNC_01
(PID.TID 0000.0001) ># mnc_echo_gvtypes=.FALSE.,
(PID.TID 0000.0001) ># mnc_use_indir=.FALSE.,
(PID.TID 0000.0001) >  mnc_use_outdir=.TRUE.,
(PID.TID 0000.0001) >  mnc_outdir_str='mnc_test_',
(PID.TID 0000.0001) ># mnc_outdir_date=.TRUE.,
(PID.TID 0000.0001) >  monitor_mnc=.FALSE.,
(PID.TID 0000.0001) ># snapshot_mnc=.FALSE.,
(PID.TID 0000.0001) ># timeave_mnc=.FALSE.,
(PID.TID 0000.0001) >  pickup_read_mnc=.FALSE.,
(PID.TID 0000.0001) >  pickup_write_mnc=.FALSE.,
(PID.TID 0000.0001) > &
(PID.TID 0000.0001) ># Note: Some systems use & as the
(PID.TID 0000.0001) ># namelist terminator. Other systems
(PID.TID 0000.0001) ># use a / character (as shown here).
(PID.TID 0000.0001) 
(PID.TID 0000.0001)  MNC_READPARMS: finished reading data.mnc
(PID.TID 0000.0001)  SHAP_FILT_READPARMS: opening data.shap
(PID.TID 0000.0001)  OPEN_COPY_DATA_FILE: opening file data.shap
(PID.TID 0000.0001) // =======================================================
(PID.TID 0000.0001) // Parameter file "data.shap"
(PID.TID 0000.0001) // =======================================================
(PID.TID 0000.0001) ># Shapiro Filter parameters
(PID.TID 0000.0001) > &SHAP_PARM01
(PID.TID 0000.0001) > shap_filt_uvStar=.FALSE.,
(PID.TID 0000.0001) > shap_filt_TrStagg=.TRUE.,
(PID.TID 0000.0001) > Shap_funct=2,
(PID.TID 0000.0001) > nShapT=4,
(PID.TID 0000.0001) > nShapUV=4,
(PID.TID 0000.0001) > nShapTrPhys=1,
(PID.TID 0000.0001) > nShapUVPhys=0,
(PID.TID 0000.0001) > Shap_TrLength=140000.,
(PID.TID 0000.0001) >#Shap_uvLength=140000.,
(PID.TID 0000.0001) > Shap_Trtau=5400.,
(PID.TID 0000.0001) > Shap_uvtau=1800.,
(PID.TID 0000.0001) >#Shap_diagFreq=2592000.,
(PID.TID 0000.0001) > &
(PID.TID 0000.0001) 
(PID.TID 0000.0001)  SHAP_FILT_READPARMS: finished reading data.shap
(PID.TID 0000.0001) Shap_funct =   /* select Shapiro filter function */
(PID.TID 0000.0001)                       2
(PID.TID 0000.0001)     ;
(PID.TID 0000.0001) nShapT =   /* power of Shapiro filter for Temperat */
(PID.TID 0000.0001)                       4
(PID.TID 0000.0001)     ;
(PID.TID 0000.0001) nShapS =   /* power of Shapiro filter for Salinity */
(PID.TID 0000.0001)                       4
(PID.TID 0000.0001)     ;
(PID.TID 0000.0001) nShapUV =   /* power of Shapiro filter for momentum */
(PID.TID 0000.0001)                       4
(PID.TID 0000.0001)     ;
(PID.TID 0000.0001) nShapTrPhys =   /* power of physical-space filter (Tracer) */
(PID.TID 0000.0001)                       1
(PID.TID 0000.0001)     ;
(PID.TID 0000.0001) nShapUVPhys =   /* power of physical-space filter (Momentum) */
(PID.TID 0000.0001)                       0
(PID.TID 0000.0001)     ;
(PID.TID 0000.0001) Shap_Trtau =   /* time scale of Shapiro filter (Tracer) */
(PID.TID 0000.0001)                 5.400000000000001E+03
(PID.TID 0000.0001)     ;
(PID.TID 0000.0001) Shap_TrLength =   /* Length scale of Shapiro filter (Tracer) */
(PID.TID 0000.0001)                 1.400000000000000E+05
(PID.TID 0000.0001)     ;
(PID.TID 0000.0001) Shap_uvtau =   /* time scale of Shapiro filter (Momentum) */
(PID.TID 0000.0001)                 1.800000000000000E+03
(PID.TID 0000.0001)     ;
(PID.TID 0000.0001) Shap_uvLength =   /* Length scale of Shapiro filter (Momentum) */
(PID.TID 0000.0001)                 0.000000000000000E+00
(PID.TID 0000.0001)     ;
(PID.TID 0000.0001) Shap_noSlip =  /* No-slip parameter (0=Free-slip ; 1=No-slip)*/
(PID.TID 0000.0001)                 0.000000000000000E+00
(PID.TID 0000.0001)     ;
(PID.TID 0000.0001) Shap_diagFreq =   /* Frequency^-1 for diagnostic output (s)*/
(PID.TID 0000.0001)                 0.000000000000000E+00
(PID.TID 0000.0001)     ;
(PID.TID 0000.0001)  THSICE_READPARMS: opening data.ice
(PID.TID 0000.0001)  OPEN_COPY_DATA_FILE: opening file data.ice
(PID.TID 0000.0001) // =======================================================
(PID.TID 0000.0001) // Parameter file "data.ice"
(PID.TID 0000.0001) // =======================================================
(PID.TID 0000.0001) > &THSICE_CONST
(PID.TID 0000.0001) > Tf0kel  = 273.15,
(PID.TID 0000.0001) > rhosw   = 1030.,
(PID.TID 0000.0001) >#- with LANL albedo:
(PID.TID 0000.0001) >#albWarmSnow=0.75,
(PID.TID 0000.0001) >#- for full ice-fraction :
(PID.TID 0000.0001) >#icemaskmin = 1.,
(PID.TID 0000.0001) >#himin0     = 0.01,
(PID.TID 0000.0001) >#frac_energy= 0.,
(PID.TID 0000.0001) >#hihig      =100.,
(PID.TID 0000.0001) >#- with fractional ice:
(PID.TID 0000.0001) > iceMaskmin = 0.01,
(PID.TID 0000.0001) > himin0     = 0.1,
(PID.TID 0000.0001) > hiMax      = 10.,
(PID.TID 0000.0001) > hsMax      = 10.,
(PID.TID 0000.0001) >#albIceMax  =0.7,
(PID.TID 0000.0001) >#albIceMin  =0.7,
(PID.TID 0000.0001) > &
(PID.TID 0000.0001) >
(PID.TID 0000.0001) > &THSICE_PARM01
(PID.TID 0000.0001) >#startIceModel=1,
(PID.TID 0000.0001) >#stepFwd_oceMxL=.TRUE.,
(PID.TID 0000.0001) > ocean_deltaT=3600.,
(PID.TID 0000.0001) >#tauRelax_MxL=5184000.,
(PID.TID 0000.0001) > stressReduction=0.,
(PID.TID 0000.0001) >#thSIce_taveFreq=2592000.,
(PID.TID 0000.0001) > thSIce_diagFreq=5184000.,
(PID.TID 0000.0001) >#thSIce_monFreq=864000.,
(PID.TID 0000.0001) >#thSIce_diagFreq=0.,
(PID.TID 0000.0001) > &
(PID.TID 0000.0001) >
(PID.TID 0000.0001) 
(PID.TID 0000.0001)  THSICE_READPARMS: read THSICE_CONST
(PID.TID 0000.0001)  THSICE_READPARMS: read THSICE_PARM01
 ThSI: rhos    =   330.000000000000     
 ThSI: rhoi    =   900.000000000000     
 ThSI: rhosw   =   1030.00000000000     
 ThSI: rhofw   =   1000.00000000000     
 ThSI: rhoiw   =   130.000000000000     
 ThSI: cpice   =   2106.00000000000     
 ThSI: cpwater =   3994.00000000000     
 ThSI: kice    =   2.03000000000000     
 ThSI: ksnow   =  0.300000000000000     
 ThSI: transcoef=   6.00000000000000D-003
 ThSI: Lfresh  =   334000.000000000     
 ThSI: qsnow   =   334000.000000000     
 ThSI: albColdSnow=  0.850000000000000     
 ThSI: albWarmSnow=  0.700000000000000     
 ThSI: albOldSnow =  0.550000000000000     
 ThSI: hNewSnowAge=   2.00000000000000D-003
 ThSI: albIceMax =  0.650000000000000     
 ThSI: albIceMin =  0.200000000000000     
 ThSI: hAlbIce   =  0.500000000000000     
 ThSI: hAlbSnow  =  0.300000000000000     
 ThSI: i0      =  0.300000000000000     
 ThSI: ksolar  =   1.50000000000000     
 ThSI: saltice =   4.00000000000000     
 ThSI: S_winton=   1.00000000000000     
 ThSI: mu_Tf   =   5.40000000000000D-002
 ThSI: Tf0kel  =   273.150000000000     
 ThSI: Tmlt1   =  -5.40000000000000D-002
 ThSI: himin   =   1.00000000000000D-002
 ThSI: Terrmax =  0.500000000000000     
 ThSI: nitMaxTsf=          20
 ThSI: hiMax   =   10.0000000000000     
 ThSI: hsMax   =   10.0000000000000     
 ThSI: iceMaskmax=   1.00000000000000     
 ThSI: iceMaskmin=   1.00000000000000D-002
 ThSI: himin0  =  0.100000000000000     
 ThSI: frac_energy  0.400000000000000     
 ThSI: hihig   =   2.50000000000000     
 ThSI: stressReduction =   0.00000000000000D+000
 ThSI: thSIce_deltaT =   450.000000000000     
 ThSI: ocean_deltaT  =   3600.00000000000     
 ThSI: stepFwd_oceMxL= F
 ThSI: tauRelax_MxL  =   0.00000000000000D+000
 ThSI: hMxL_default  =   50.0000000000000     
 ThSI: sMxL_default  =   35.0000000000000     
 ThSI: vMxL_default  =   5.00000000000000D-002
 ThSI: thSIce_taveFreq=   2592000.00000000     
 ThSI: thSIce_diagFreq=   5184000.00000000     
 ThSI: thSIce_monFreq =   1.00000000000000     
 ThSI: startIceModel =           0
(PID.TID 0000.0001)  CPL_READPARMS: opening data.cpl
(PID.TID 0000.0001)  OPEN_COPY_DATA_FILE: opening file data.cpl
(PID.TID 0000.0001) // =======================================================
(PID.TID 0000.0001) // Parameter file "data.cpl"
(PID.TID 0000.0001) // =======================================================
(PID.TID 0000.0001) ># Coupling package parameters, ATM component:
(PID.TID 0000.0001) ># cpl_earlyExpImpCall :: call coupler early in the time stepping call sequence
(PID.TID 0000.0001) >#     cpl_oldPickup  :: restart from an old pickup (= until ckpt 52m_post)
(PID.TID 0000.0001) >#     useImportMxlD  :: True => use Imported Mix.Layer Detph from coupler
(PID.TID 0000.0001) >#     useImportSST   :: True => use the Imported SST from coupler
(PID.TID 0000.0001) >#     useImportSSS   :: True => use the Imported SSS from coupler
(PID.TID 0000.0001) >#     useImportVsq   :: True => use the Imported Surf. velocity^2
(PID.TID 0000.0001) >#     cpl_atmSendFrq :: Frequency^-1 for sending data to coupler (s)
(PID.TID 0000.0001) > &CPL_ATM_PARAM
(PID.TID 0000.0001) ># cpl_earlyExpImpCall=.FALSE.,
(PID.TID 0000.0001) ># cpl_oldPickup=.TRUE.,
(PID.TID 0000.0001) ># useImportMxlD=.FALSE.,
(PID.TID 0000.0001) ># useImportSST =.FALSE.,
(PID.TID 0000.0001) ># useImportSSS =.FALSE.,
(PID.TID 0000.0001) ># useImportVsq =.FALSE.,
(PID.TID 0000.0001) >  cpl_atmSendFrq=3600.,
(PID.TID 0000.0001) > &
(PID.TID 0000.0001) >
(PID.TID 0000.0001) 
(PID.TID 0000.0001)  CPL_READPARMS: finished reading data.cpl
(PID.TID 0000.0001) 
(PID.TID 0000.0001) // ===================================
(PID.TID 0000.0001) // Coupling package parameters :
(PID.TID 0000.0001) // ===================================
(PID.TID 0000.0001) cpl_earlyExpImpCall= /* call coupler early in the time-stepping */
(PID.TID 0000.0001)                   T
(PID.TID 0000.0001)     ;
(PID.TID 0000.0001) cpl_oldPickup = /* restart from old pickup on/off flag */
(PID.TID 0000.0001)                   F
(PID.TID 0000.0001)     ;
(PID.TID 0000.0001) useImportMxlD = /* use Imported MxL. Depth from Coupler flag */
(PID.TID 0000.0001)                   T
(PID.TID 0000.0001)     ;
(PID.TID 0000.0001) useImportSST = /* use Imported SST from Coupler on/off flag */
(PID.TID 0000.0001)                   T
(PID.TID 0000.0001)     ;
(PID.TID 0000.0001) useImportSSS = /* use Imported SSS from Coupler on/off flag */
(PID.TID 0000.0001)                   T
(PID.TID 0000.0001)     ;
(PID.TID 0000.0001) useImportVsq = /* use Imported surf.Vel^2 from Coupler flag */
(PID.TID 0000.0001)                   T
(PID.TID 0000.0001)     ;
(PID.TID 0000.0001) cpl_atmSendFrq = /* Frequency^o-1 for sending data to Coupler (s) */
(PID.TID 0000.0001)                 3.600000000000000E+03
(PID.TID 0000.0001)     ;
(PID.TID 0000.0001) cplSendFrq_iter =   /* send data to coupler every "cplSendFrq" iter */
(PID.TID 0000.0001)                       8
(PID.TID 0000.0001)     ;
(PID.TID 0000.0001) tile:   1 ; Read from file tile001.mitgrid
(PID.TID 0000.0001)   => XC YC DXF DYF RA XG YG DXV DYU RAZ DXC DYC RAW RAS DXG DYG
(PID.TID 0000.0001) tile:   2 ; Read from file tile002.mitgrid
(PID.TID 0000.0001)   => XC YC DXF DYF RA XG YG DXV DYU RAZ DXC DYC RAW RAS DXG DYG
(PID.TID 0000.0001) tile:   3 ; Read from file tile003.mitgrid
(PID.TID 0000.0001)   => XC YC DXF DYF RA XG YG DXV DYU RAZ DXC DYC RAW RAS DXG DYG
(PID.TID 0000.0001) tile:   4 ; Read from file tile004.mitgrid
(PID.TID 0000.0001)   => XC YC DXF DYF RA XG YG DXV DYU RAZ DXC DYC RAW RAS DXG DYG
(PID.TID 0000.0001) tile:   5 ; Read from file tile005.mitgrid
(PID.TID 0000.0001)   => XC YC DXF DYF RA XG YG DXV DYU RAZ DXC DYC RAW RAS DXG DYG
(PID.TID 0000.0001) tile:   6 ; Read from file tile006.mitgrid
(PID.TID 0000.0001)   => XC YC DXF DYF RA XG YG DXV DYU RAZ DXC DYC RAW RAS DXG DYG
(PID.TID 0000.0001) %MON XC_max                       =   1.7854351589505E+02
(PID.TID 0000.0001) %MON XC_min                       =  -1.7854351589505E+02
(PID.TID 0000.0001) %MON XC_mean                      =  -4.6999441375798E-15
(PID.TID 0000.0001) %MON XC_sd                        =   1.0355545336287E+02
(PID.TID 0000.0001) %MON XG_max                       =   1.8000000000000E+02
(PID.TID 0000.0001) %MON XG_min                       =  -1.7708797161002E+02
(PID.TID 0000.0001) %MON XG_mean                      =   1.8796250616675E+00
(PID.TID 0000.0001) %MON XG_sd                        =   1.0410625309932E+02
(PID.TID 0000.0001) %MON DXC_max                      =   3.2375185836900E+05
(PID.TID 0000.0001) %MON DXC_min                      =   1.1142031410131E+05
(PID.TID 0000.0001) %MON DXC_mean                     =   2.8605689051214E+05
(PID.TID 0000.0001) %MON DXC_sd                       =   3.4042087138252E+04
(PID.TID 0000.0001) %MON DXF_max                      =   3.2369947500827E+05
(PID.TID 0000.0001) %MON DXF_min                      =   1.2020820513318E+05
(PID.TID 0000.0001) %MON DXF_mean                     =   2.8605437324820E+05
(PID.TID 0000.0001) %MON DXF_sd                       =   3.4050524252539E+04
(PID.TID 0000.0001) %MON DXG_max                      =   3.2375195872773E+05
(PID.TID 0000.0001) %MON DXG_min                      =   1.0098378008791E+05
(PID.TID 0000.0001) %MON DXG_mean                     =   2.8603818508931E+05
(PID.TID 0000.0001) %MON DXG_sd                       =   3.4140406908005E+04
(PID.TID 0000.0001) %MON DXV_max                      =   3.2380418162750E+05
(PID.TID 0000.0001) %MON DXV_min                      =   8.0152299824136E+04
(PID.TID 0000.0001) %MON DXV_mean                     =   2.8603970633619E+05
(PID.TID 0000.0001) %MON DXV_sd                       =   3.4145142117723E+04
(PID.TID 0000.0001) %MON YC_max                       =   8.7940663871963E+01
(PID.TID 0000.0001) %MON YC_min                       =  -8.7940663871963E+01
(PID.TID 0000.0001) %MON YC_mean                      =   0.0000000000000E+00
(PID.TID 0000.0001) %MON YC_sd                        =   3.8676242969072E+01
(PID.TID 0000.0001) %MON YG_max                       =   9.0000000000000E+01
(PID.TID 0000.0001) %MON YG_min                       =  -9.0000000000000E+01
(PID.TID 0000.0001) %MON YG_mean                      =  -1.2094344438470E-15
(PID.TID 0000.0001) %MON YG_sd                        =   3.9086186579984E+01
(PID.TID 0000.0001) %MON DYC_max                      =   3.2375185836900E+05
(PID.TID 0000.0001) %MON DYC_min                      =   1.1142031410131E+05
(PID.TID 0000.0001) %MON DYC_mean                     =   2.8605689051214E+05
(PID.TID 0000.0001) %MON DYC_sd                       =   3.4042087138252E+04
(PID.TID 0000.0001) %MON DYF_max                      =   3.2369947500827E+05
(PID.TID 0000.0001) %MON DYF_min                      =   1.2020820513318E+05
(PID.TID 0000.0001) %MON DYF_mean                     =   2.8605437324820E+05
(PID.TID 0000.0001) %MON DYF_sd                       =   3.4050524252539E+04
(PID.TID 0000.0001) %MON DYG_max                      =   3.2375195872773E+05
(PID.TID 0000.0001) %MON DYG_min                      =   1.0098378008791E+05
(PID.TID 0000.0001) %MON DYG_mean                     =   2.8603818508931E+05
(PID.TID 0000.0001) %MON DYG_sd                       =   3.4140406908005E+04
(PID.TID 0000.0001) %MON DYU_max                      =   3.2380418162750E+05
(PID.TID 0000.0001) %MON DYU_min                      =   8.0152299824136E+04
(PID.TID 0000.0001) %MON DYU_mean                     =   2.8603970633619E+05
(PID.TID 0000.0001) %MON DYU_sd                       =   3.4145142117723E+04
(PID.TID 0000.0001) %MON RA_max                       =   1.0479260248419E+11
(PID.TID 0000.0001) %MON RA_min                       =   1.4019007022556E+10
(PID.TID 0000.0001) %MON RA_mean                      =   8.2992246709265E+10
(PID.TID 0000.0001) %MON RA_sd                        =   1.7509089299457E+10
(PID.TID 0000.0001) %MON RAW_max                      =   1.0480965274559E+11
(PID.TID 0000.0001) %MON RAW_min                      =   1.2166903467143E+10
(PID.TID 0000.0001) %MON RAW_mean                     =   8.2992246709235E+10
(PID.TID 0000.0001) %MON RAW_sd                       =   1.7481917919656E+10
(PID.TID 0000.0001) %MON RAS_max                      =   1.0480965274559E+11
(PID.TID 0000.0001) %MON RAS_min                      =   1.2166903467143E+10
(PID.TID 0000.0001) %MON RAS_mean                     =   8.2992246709235E+10
(PID.TID 0000.0001) %MON RAS_sd                       =   1.7481917919656E+10
(PID.TID 0000.0001) %MON RAZ_max                      =   1.0484349334619E+11
(PID.TID 0000.0001) %MON RAZ_min                      =   8.8317900612505E+09
(PID.TID 0000.0001) %MON RAZ_mean                     =   8.2992246709235E+10
(PID.TID 0000.0001) %MON RAZ_sd                       =   1.7482297311044E+10
(PID.TID 0000.0001)  MDSREADFIELD: opening global file: topo.cpl_FM.bin
(PID.TID 0000.0001) // =======================================================
(PID.TID 0000.0001) // Field Model R_low (ini_masks_etc) at iteration          1
(PID.TID 0000.0001) // CMIN =          1.000000000000000E+32
(PID.TID 0000.0001) // CMAX =         -1.000000000000000E+32
(PID.TID 0000.0001) // CINT =          0.000000000000000E+00
(PID.TID 0000.0001) // SYMBOLS (CMIN->CMAX): -abcdefghijklmnopqrstuvwxyz+
(PID.TID 0000.0001) //                  0.0: .
(PID.TID 0000.0001) // RANGE I (Lo:Hi:Step):(  -1: 194:   1)
(PID.TID 0000.0001) // RANGE J (Lo:Hi:Step):(  34:  -1:  -1)
(PID.TID 0000.0001) // RANGE K (Lo:Hi:Step):(   1:   1:   1)
(PID.TID 0000.0001) // =======================================================
(PID.TID 0000.0001) // =======================================================
(PID.TID 0000.0001) // END OF FIELD                                          =
(PID.TID 0000.0001) // =======================================================
(PID.TID 0000.0001) 
(PID.TID 0000.0001) // =======================================================
(PID.TID 0000.0001) // Field Model Ro_surf (ini_masks_etc) at iteration          1
(PID.TID 0000.0001) // CMIN =          4.905667583685931E+04
(PID.TID 0000.0001) // CMAX =          1.000000000000000E+05
(PID.TID 0000.0001) // CINT =          1.886789783820026E+03
(PID.TID 0000.0001) // SYMBOLS (CMIN->CMAX): -abcdefghijklmnopqrstuvwxyz+
(PID.TID 0000.0001) //                  0.0: .
(PID.TID 0000.0001) // RANGE I (Lo:Hi:Step):(  -1: 194:   1)
(PID.TID 0000.0001) // RANGE J (Lo:Hi:Step):(  34:  -1:  -1)
(PID.TID 0000.0001) // RANGE K (Lo:Hi:Step):(   1:   1:   1)
(PID.TID 0000.0001) // =======================================================
(PID.TID 0000.0001) K =   1
(PID.TID 0000.0001) //                I=8       I=18      I=28      I=34      I=44      I=54      I=64      I=70      I=80      I=90      I=96      I=106     I=116     I=126     I=132     I=142     I=152     I=162     I=168     I=178     I=188
(PID.TID 0000.0001) // |--J--|*01234567|901234567|901234567|901234123|567890123|567890123|567890123|563456789|123456789|123456789|123456785|789012345|789012345|789012345|789078901|345678901|345678901|345678901|901234567|901234567|901234567|901234
(PID.TID 0000.0001) //     34 ..++++++++++++++++zxwwwwwy++++nmno....unny+zzzzzxxwwrnmmmqsuvvxxw+++++....++++++++++++xxyzyxwtmlnnoy++++++....++++++++++++++++++++++++++++++++....+++++++++++++++++yxxwwxy++++++++....++++++++++++++++++++++++++++++++..
(PID.TID 0000.0001) //     33 ..++++++++++++++++wttvwww++ywqstuu....uooy+yyzzyxwwqoomlmqtvutwyy+++++....+++++++++++xxxyyyxwunmnopx++++++....++++++++++++++++++++++++++++++++....+++++++++++++++++zyxwwwwy+++++++....++++++++++++++++++++++++++++++++..
(PID.TID 0000.0001) //     32 ++++++++++++++++++wy+y+ww+xsrtwxyxvoyxvonrywwzywommlmpppqtttsuy++yy++yyy++++++++++++yxxyyxxxxvqmnpqw+++++++++++++++++++++++++++++++++++++++++++++++++++++++++++++++zyxwwwww+++++++++++++++++++++++++++++++++++++++++++++
(PID.TID 0000.0001) //     31 ++++++++++++++++wv++++++y+yxywxxyywqyywqnotsswwphglqttrnnqssswz++++++++++++++++++++zxxxyyxxyxwuport++++++++++++++++++++++++++++++++++++++++++++++++++++++++++++++++zyyxwwwww++++++++++++++++++++++++++++++++++++++++++++
(PID.TID 0000.0001) //     30 ++++++++++++++++w+++++++++++++wwxzyuxzyumnstsspmfdhmlhgfekosuxz+++++++++++++++++++++xxxyzyyyxwwsptx+++++++++++++++++++++++++++++++++++++++++++++++++++++++++++++zzzzyyxxwxxwwy++++++++++++++++++++++++++++++++++++++++++
(PID.TID 0000.0001) //     29 ++++++++++++++++++wwx+++++++++wwxyzxxyzxrnosspllkeabbaabdhmsvyzz++++++++++++++++++zxwwx++zyyxxwtps++++++++++++++++++++++++++++++++++++++++++++++++++++++++++++++yyzzyxxxxxxxxxz+++++++++++++++++++++++++++++++++++++++++
(PID.TID 0000.0001) //     28 +++++++++++++++xsvwxxxy+zzzzywwwwxyzwxyzypnorqnrwnc--aaabelsvxyx++++++++++++++++++zxxxx+++zyxxwvpr++++++++++++++++++++++++++++++++++++++++++++++++++++++++++++++yyzzyyxxyyyyyyzz++++++++++++++++++++++++++++++++++++++++
(PID.TID 0000.0001) //     27 +++++++++++++++vvwxxxxxxzzzyxwwvvwxyvwxyz+++trrwzwkdabccbenvwxxw++++++++++++++++++++xxyz++zyxxxwst+++++++++++++++++++++++++++++++++++++++++++++++++++++++++++++ywyz+zyxxyzz++zzz++++++++++++++++++++++++++++++++++++++++
(PID.TID 0000.0001) //     26 ++++++++++++++yxxyxwwwwxyyxxyxyyvwwxvwwxz++++yyyyyxvnmmmhhnuwxxy++++++++++++++++++++++++++zyxxxwss++++++++++++++++++++++++++++++++++++++++++++++++++++++++++++ywwx++zyyyxxxz++++z+++z+++++++++++++++++++++++++++++++++++
(PID.TID 0000.0001) //     25 +++++++++++++yyyyyxvuvwwwxwxyxy+vvwxvvwxzzx++++zxxxyxywwqorwxyy+++++++++++++++++++++++x++yyyxxxwss++++++++++++++++++++++++++++++++++++++++++++++++++++++++++++ywvwz+zzzwmkmrwyyzz+++z+++++++++++++++++++++++++++++++++++
(PID.TID 0000.0001) //     24 +++++++++++++yyyyyxwwwwstwwxyxy+wswxwswxyzz+++++xxxxy++xutvx++++++++++++++++++++++++++xx+yyzyxxvst++++++++++++++++++++++++++++++++++++++++++++++++++++++++++++ywxz++zzukgfghkqvxzz++zz++++++++++++++++++++++++++++++++++
(PID.TID 0000.0001) //     23 +++++++++++++zyyyyxxwwxxwwwxxxw++pvw+pvwxz++++++yxxy+++ywwwx+++++++++++++++++++++++oq+++xxzzyyxvsr++++++++++++++++++++++++++++++++++++++++++++++z+++++++++++++trwy+++wher+yumhkrwxy+wxy+++++++++++++++ww++++++++++++++++
(PID.TID 0000.0001) //     22 +++++++++++++zyyyyxyxxyyxwwwxxvr++wy++wy++++++++yxy+++++yxxw+++++++++++++++++++++++vlr+++x++zzywusw+++++++++++++++++++++++++++++++++++++++++++++xy++++++++++++wpqvy+xrht++++++xuuvwwuvww+++++++++++++lhhknw+++++++++++++
(PID.TID 0000.0001) //     21 +++++++++++++yxxyyyyxxyyxwwwxxrnv+++v++++++++++++yy++++++zyxy++++++++++++++++++++++vkkn++++++++xuutw++++++++++++++++++++++++++++++++++++++++++++xxx++++++++++++ywqsuop++++++++++++wu++wuwy++++++++++pkhghkklw+++++++++++
(PID.TID 0000.0001) //     20 +++++++++++++yxxyyyxxwxxxwwxxxpmqvwxqvwx+++++++++y++++++++++++++++++++++++++++++++++khknwt++++++wwwx++++++++++++++++++++++++++++++++++++++++++++xxxxxz++++++++++++wuw+++++++++++++++++++++++++x+++++okhhhhklr+++++++++++
(PID.TID 0000.0001) //     19 ++++++++++++++yyyyyyxwwwxwwxxwrnqwxyqwxy+++++++++++++++++y+++++++++++++++++++++++x++qlkmxx++++++xyy+++++++++++++++++++++++++++++++++++++++++++++yyxxwxz+++++++y++++++++++++++++++++++++++++++++ws++xqkhgghlow+++++++++++
(PID.TID 0000.0001) //     18 +++++++++++++++++++++wwxxxxwwwutwxz+wxz+++++++++++++++++yy++++yy++++++++w++++z++++++++rs++++++++++++++++++++++++++++++++++++++++++++++++++++++++yyyyxxz++++++y++++++++++++++++++++++++++++++++++xv+xqlhgfghkr+++++++++++
(PID.TID 0000.0001) //     17 +++++++++++++++++++++yxxyyxwturuy+++y++++++++++++++++++++yy++ywy++++++++v+++zy++++++++++++++++++++y+++++++++++++++++++++++++++++++++++++++++++++xxyzzyz++++zw+++++++++++++++++++++++++++++++++++xuwupkhgffghkq++++++++++
(PID.TID 0000.0001) //     16 +++++++++++++++++++++zxxxxxvrtqtz+++z+++++++++++++++++++++y++yy++++++z+++wwzz++++++++++++++++++++xxy++++++++++++++++++++++++++++++++++++++++++++xxyyyzz++++yw+++++++++++++++++++++++++++++++++++xsonnkhhggghho++++++++++
(PID.TID 0000.0001) //     15 zzzy++++++++++++++++++yxxxxvsusv+++++++++++++++++++++++++++z++++++++++yw+ytxy++xw++++++++++++++++wwx++++++++++++++++++++++++++++++++++++++++y+++yxxxxyz++++y+++++++++++++++++++++++++++++++++++++uoqsvkkhhhhkp++++++++++
(PID.TID 0000.0001) //     14 yyyxxy++++++++++++++++ywwwwvtttw++++++++++++++++++++++++++++++++++++++++++twxzzxwwwx++++++++++++zxwx+++++++++++++++++++++++++++++++++++++++++yy+xxwwxxxyz++v+++++++++++++++++++++++++++++++++++++woux+xmkhhklv++++++++++
(PID.TID 0000.0001) //     13 yxxxx++++++++++++++++++vvvvutsux+++++++++++++++++++++++++++++++++++++++++yvwxz++zzyy+++++++++++zyxwxx+++++++++++++++++++++++++++++++++++++++++++wvuttvwwvqot++++++++++++++++++++++++++++++++++++++vwy++plkkko+++++++++++
(PID.TID 0000.0001) //     12 xwwwy+++++++++++++++++xsuvuuuuwx++++++++++++++++++++++++++++++++++++++++++wwxzzzzzyy+++++++z+++xwwv++x++++++++++++++++++++++++++++++++++++++++++uqnmlossqoq++++++++++++++++++++++++++++++++++++++++++++qlkklw+++++++++++
(PID.TID 0000.0001) //     11 wwww++++++++++++++++++wtvvvvvvwy+++y+++y++++++++++++++++++++++++++zzzz+++wwwxyzzzzzz+++++zzyzywvtrv+++++++++++++++++++++++++++++++++++++++++++++pmmllnqpqw+++++++++++++++++++++++++++++++++++++++++++++qmmmq++++++++++++
(PID.TID 0000.0001) //     10 wwwx++++++++++++++++++xuvwwvuwy+++xw++xw+++++++++++++++++++++++++zyyyyzzywwwxyzzzzzzzzy++zxxxywvtsx+++++++++++++++++++++++++++++++++++++++++++++onnnoquw++++++++++++++++++++++++++++++++++++++++++++++++ww++++++++++++++
(PID.TID 0000.0001) //      9 wwwy+++++++++++++++++++tuvwvvw++++w+++w+++++++++++++++++++++++++zzyxyyyy+++yzzzzzzzzyxxzzywwxxyxxwx+++++++++++++++++++++++++++++++++++++++++++++rponrwy+++++++++++++++++++++++++++++++++++++++++++++++++++++++++++++++++
(PID.TID 0000.0001) //      8 wwy++++++++++++++++++++tuvvvwy++++x+++x+++++++++++++++++++++++yxxyxxxxyyyx+++zzzzzzyxyz+zzwwxxyxxwwxy+++++++++++++++++++++++++++++++++++++++++++tqposx++++++++++++++++++++++++++++++++++++++++++++++++++++++++++++++++++
(PID.TID 0000.0001) //      7 w++++++++++++++++++++++wvvusuz++++y+++y+++++++++++++++++++++++yxxxxxxxyzxsy++zzzzzzyyzzzzzxxxxwwwvvvxx+++++++++++++++++++++++++++++++++yxxxyy++++wxyy+++++++++++++++++++++++++++++++++++++++++++++++++++++++++++++++++++
(PID.TID 0000.0001) //      6 +++++++++++++++++++++++ywusqw+++++++++++++++++++++++++++++++++yxxxxxxxz+yrw++wzzzzyxyzzzzzxxxwuuwwxwxx++++++++++++++++++++++++++++++++zyyyyxxy++++++++++++++++++++++++++++++++++++++++++++++++++++++++++++++++++++++++++
(PID.TID 0000.0001) //      5 ++++++++++++++++++++++++vtrv++++++++++++++++++++++++++++++++++yxxyyyyyzzwtq++py++zyxzzzzzyxxxwsuwwxxxx+++++++++++++++++++++++++++++++yyxyzzzyy++++++++++++++++++++++++++++++++++++++++++++++++++++++++++++++++++++++++++
(PID.TID 0000.0001) //      4 ++++++++++++++++++++++++yyy+++++++++++++++++++++++++++++++++++yyyzzzzzzyxwsnnny++zyyyyzzywvtuvtvwwxxwx+++y+++y++++++++++++++++++w+++xxyyzzzzzz++++++++++++++++++++++++++++++++++++++++++++++++++++++++++++++++++++++++++
(PID.TID 0000.0001) //      3 +++++++++++++++++++++++++++++++++++++++++++++++++++++++++++++++++++++zzyxxtmnvz+zzzyxxxxwqpnotsuvwyxwy++++y+++y++++++++++++++++wv+++zyzzzzzyz+++++++++++++++++++++++++++++++++++++++++++++++++++++++++++++++++++++++++++
(PID.TID 0000.0001) //      2 ++++++++++++++++++++++++++++++++++++++++++++++++++++++++++++++++++++++zyyyunny+zzzzzxxwwrnmmmqsuvvxxw+++++y+++y++++++++++++++++w++++zyyz+zyyy+++++++++++++++++++++++++++++++++++++++++++++++++++++++++++++++++++++++++++
(PID.TID 0000.0001) //      1 ++++++++++++++++++++++++++++++++++++++++++++++++++++++++++++++++++++++++yxuooy+yyzzyxwwqoomlmqtvutwyy+++++y+++y++++++++++++++++y++++zyyyzzzzz+++++++++++++++++++++++++++++++++++++++++++++++++++++++++++y+++++++++++++++
(PID.TID 0000.0001) //      0 ..++++++++++++++++++++++++++++++++....++++++++++++++++++++++++++++++++....vonrywwzywommlmpppqtttsuy++yy++y....y+++++++++++++++z++++zyyxxxyzz++....++++++++++++++++++++++++++++++++....++++++++++++++++++y+++++++yyz+++..
(PID.TID 0000.0001) //     -1 ..++++++++++++++++++++++++++++++++....++++++++++++++++++++++++++++++++....wqnotsswwphglqttrnnqssswz+++++++....+++++++++++++++++++++zyyxxxyz+++....++++++++++++++++++++++++++++++++....+++++++++++++++++y+++++++yxyzzyz..
(PID.TID 0000.0001) // =======================================================
(PID.TID 0000.0001) // END OF FIELD                                          =
(PID.TID 0000.0001) // =======================================================
(PID.TID 0000.0001) 
(PID.TID 0000.0001) // =======================================================
(PID.TID 0000.0001) // Field hFacC at iteration          1
(PID.TID 0000.0001) // CMIN =          2.000000000000000E-01
(PID.TID 0000.0001) // CMAX =          1.000000000000000E+00
(PID.TID 0000.0001) // CINT =          2.962962962962963E-02
(PID.TID 0000.0001) // SYMBOLS (CMIN->CMAX): -abcdefghijklmnopqrstuvwxyz+
(PID.TID 0000.0001) //                  0.0: .
(PID.TID 0000.0001) // RANGE I (Lo:Hi:Step):(  -1: 194:   1)
(PID.TID 0000.0001) // RANGE J (Lo:Hi:Step):(  34:  -1:  -1)
(PID.TID 0000.0001) // RANGE K (Lo:Hi:Step):(   1:   1:   1)
(PID.TID 0000.0001) // =======================================================
(PID.TID 0000.0001) K =   1
(PID.TID 0000.0001) //                I=8       I=18      I=28      I=34      I=44      I=54      I=64      I=70      I=80      I=90      I=96      I=106     I=116     I=126     I=132     I=142     I=152     I=162     I=168     I=178     I=188
(PID.TID 0000.0001) // |--J--|*01234567|901234567|901234567|901234123|567890123|567890123|567890123|563456789|123456789|123456789|123456785|789012345|789012345|789012345|789078901|345678901|345678901|345678901|901234567|901234567|901234567|901234
(PID.TID 0000.0001) //     34 ..++++++++++++++++qe--bbap++++...........k+vtutskgc-..........hj-+++++....++++++++++++hiorojd......k++++++....++++++++++++++++++++++++++++++++....+++++++++++++++++mgecdel++++++++....++++++++++++++++++++++++++++++++..
(PID.TID 0000.0001) //     33 ..++++++++++++++++b...bac++k-............k+pqvspec-...........elk+++++....+++++++++++ihknomid......e++++++....++++++++++++++++++++++++++++++++....+++++++++++++++++tnhdc--l+++++++....++++++++++++++++++++++++++++++++..
(PID.TID 0000.0001) //     32 ++++++++++++++++++ak+k+c-+e...bilg..lg....kaaro-..............k++kl++kkk++++++++++++mgillkije......d++++++++++++++++++++++++++++++++++++++++++++++++++++++++++++++ysnheba--+++++++++++++++++++++++++++++++++++++++++++++
(PID.TID 0000.0001) //     31 ++++++++++++++++-.++++++k+kfkdeipp-.pp-......db..............ar++++++++++++++++++++vkfilljikga.....+++++++++++++++++++++++++++++++++++++++++++++++++++++++++++++++yspmhbadcc++++++++++++++++++++++++++++++++++++++++++++
(PID.TID 0000.0001) //     30 ++++++++++++++++c+++++++++++++-citk.itk......................ju+++++++++++++++++++++hfipsnkmhc-...k+++++++++++++++++++++++++++++++++++++++++++++++++++++++++++++wuvrmlkgdhha-l++++++++++++++++++++++++++++++++++++++++++
(PID.TID 0000.0001) //     29 ++++++++++++++++++baf+++++++++-bfmvkfmvk.....................ouw++++++++++++++++++rkddi++tpoifa...++++++++++++++++++++++++++++++++++++++++++++++++++++++++++++++qoutnjjgfijgfhr+++++++++++++++++++++++++++++++++++++++++
(PID.TID 0000.0001) //     28 +++++++++++++++e..-fhjm+uuvtl---bfnwbfnwl.......-............kki++++++++++++++++++rjeej+++uoigc...++++++++++++++++++++++++++++++++++++++++++++++++++++++++++++++lovwolkjnpooqqrv++++++++++++++++++++++++++++++++++++++++
(PID.TID 0000.0001) //     27 +++++++++++++++..egiifekstspjd-..beo.beot+++...bta..........bjhd++++++++++++++++++++kint++xpige-..+++++++++++++++++++++++++++++++++++++++++++++++++++++++++++++ldmwytniiouwxxxvw++++++++++++++++++++++++++++++++++++++++
(PID.TID 0000.0001) //     26 ++++++++++++++kfimidbcdgkmiknill.-bj.-bjw++++llpmpe.........bfgl++++++++++++++++++++++++++vpjiga..++++++++++++++++++++++++++++++++++++++++++++++++++++++++++++m--iyzvnmnffiszxxxv+++v+++++++++++++++++++++++++++++++++++
(PID.TID 0000.0001) //     25 +++++++++++++qmmonf...b-agcgnil+..bj..bjutg++++vhhknhkc-...-ill+++++++++++++++++++++++j++qopkih-..++++++++++++++++++++++++++++++++++++++++++++++++++++++++++++l-.euzwtr-....dlpus+++s+++++++++++++++++++++++++++++++++++
(PID.TID 0000.0001) //     24 ++++++++++++xplmnng--a-..achmil+-.-i-.-inus+++++ighho++e...h++++++++++++++++++++++++++jh+pqslih...++++++++++++++++++++++++++++++++++++++++++++++++++++++++++++lbkrxxxu.........isw++sw++++++++++++++++++++++++++++++++++
(PID.TID 0000.0001) //     23 ++++++++++++ysnmmlhf-bifdcbgijc++..c+..cht++++++lgil+++ob-bg+++++++++++++++++++++++..+++jjrwpli...++++++++++++++++++++++++++++++++++++++++++++++v+++++++++++++..-qyyxc...+l.....afm+afm+++++++++++++++-c++++++++++++++++
(PID.TID 0000.0001) //     22 ++++++++++++ysonmmjkfhmnia-cfi..++al++al++++++++ofk+++++nigc+++++++++++++++++++++++...+++h++rrna..a+++++++++++++++++++++++++++++++++++++++++++++km++++++++++++e...nxi...++++++e...-d..-d+++++++++++++.....-+++++++++++++
(PID.TID 0000.0001) //     21 ++++++++++++yojkmnmlhjmmha-cfe...+++.++++++++++++ll++++++spjl++++++++++++++++++++++....++++++++j...a++++++++++++++++++++++++++++++++++++++++++++fgi++++++++++++l-.....++++++++++++e.++e.-l++++++++++........-+++++++++++
(PID.TID 0000.0001) //     20 +++++++++++++lfhlnljecfiidbgie....af..af+++++++++l+++++++++y++++++++++++++++++++++++....-.++++++-cej++++++++++++++++++++++++++++++++++++++++++++iihhjr++++++++++++-.c+++++++++++++++++++++++++j+++++.........+++++++++++
(PID.TID 0000.0001) //     19 ++++++++++++++lkoqpqi--bfdcegd...-fm.-fm+++++++++++++++++q+++++++++++++++++++++++j++....jj++++++kmp+++++++++++++++++++++++++++++++++++++++++++++llkidfsz++++++l++++++++++++++++++++++++++++++++b.++j........a+++++++++++
(PID.TID 0000.0001) //     18 +++++++++++++++++++++bbehgeb--..-kr+-kr+++++++++++++++++ll++++ll++++++++-++++t++++++++..++++++++++++++++++++++++++++++++++++++++++++++++++++++++llnoihr++++++l++++++++++++++++++++++++++++++++++j.+j.........+++++++++++
(PID.TID 0000.0001) //     17 +++++++++++++++++++++lghlkh-....lx++lx+++++++++++++++++++lp++lal++++++++.+++ro++++++++++++++++++++o+++++++++++++++++++++++++++++++++++++++++++++jkorrqv++++tc+++++++++++++++++++++++++++++++++++j.a...........++++++++++
(PID.TID 0000.0001) //     16 yy+++++++++++++++++++rhhkkg.....r+++r+++++++++++++++++++++l++pl++++++r+++abqw++++++++++++++++++++fim++++++++++++++++++++++++++++++++++++++++++++iimoorwz+++n-+++++++++++++++++++++++++++++++++++j.............++++++++++
(PID.TID 0000.0001) //     15 sstm++++++++++++++++++lfghe.....+++++++++++++++++++++++++++s++++++++++l-+k.eq++fc++++++++++++++++dbj++++++++++++++++++++++++++++++++++++++++o+++kjijkntx+++l+++++++++++++++++++++++++++++++++++++.............++++++++++
(PID.TID 0000.0001) //     14 pnnghl++++++++++++++++l--aa....a++++++++++++++++++++++++++++++++++++++++++.-kxwjccbj++++++++++++ufah+++++++++++++++++++++++++++++++++++++++++kl+geddegins++.+++++++++++++++++++++++++++++++++++++a..i+j.......++++++++++
(PID.TID 0000.0001) //     13 mhhei++++++++++++++++++........e+++++++++++++++++++++++++++++++++++++++++k.-guy+vsll+++++++++++uqe-jj+++++++++++++++++++++++++++++++++++++++++++a.....--....++++++++++++++++++++++++++++++++++++++.cn++......+++++++++++
(PID.TID 0000.0001) //     12 hedcn+++++++++++++++++g.......-g+++++++++++++++++++++++++++++++++++++x++++bbgsvwwuqp+++++++r+++gb-.++k++++++++++++++++++++++++++++++++++++++++++...........++++++++++++++++++++++++++++++++++++++++++++.....a+++++++++++
(PID.TID 0000.0001) //     11 bbcd++++++++++++++++++c.......al+++l+++l++++++++++++++++++++++++++sttt+++cabfqstuutu+++++wsqtna....+++++++++++++++++++++++++++++++++++++++++++++.........b+++++++++++++++++++++++++++++++++++++++++++++.....++++++++++++
(PID.TID 0000.0001) //     10 aa-e++++++++++++++++++e..--..-k+++gd++gd+++++++++++++++++++++++++vkknpswk-cafqsrrttuusqxytiijkb...j+++++++++++++++++++++++++++++++++++++++++++++.......-++++++++++++++++++++++++++++++++++++++++++++++++-a++++++++++++++
(PID.TID 0000.0001) //      9 d--l+++++++++++++++++++...-..c++++a+++a+++++++++++++++++++++++++urlkkmoq+++prtsrsuttmghtxnabejljh-j+++++++++++++++++++++++++++++++++++++++++++++.....-l+++++++++++++++++++++++++++++++++++++++++++++++++++++++++++++++++
(PID.TID 0000.0001) //      8 c-l++++++++++++++++++++.....-o++++f+++f+++++++++++++++++++++++ohilkihhmpke++yvsstutqjnsxxrddfikie--ko+++++++++++++++++++++++++++++++++++++++++++.....f++++++++++++++++++++++++++++++++++++++++++++++++++++++++++++++++++
(PID.TID 0000.0001) //      7 c++++++++++++++++++++++a.....s++++l+++l+++++++++++++++++++++++nggiigfhouf.k++rvtstsnmuxwvshghgc--...ek+++++++++++++++++++++++++++++++++piffkk++++dekk+++++++++++++++++++++++++++++++++++++++++++++++++++++++++++++++++++
(PID.TID 0000.0001) //      6 +++++++++++++++++++++++l-...a+++++++++++++++++++++++++++++++++nhhiiggjtyk.-++-swwumhowxwwtiihb..-bfafk++++++++++++++++++++++++++++++++sklnlifm++++++++++++++++++++++++++++++++++++++++++++++++++++++++++++++++++++++++++
(PID.TID 0000.0001) //      5 ++++++++++++++++++++++++....++++++++++++++++++++++++++++++++++oijlnmnqvxd..++.l+zuliquvxwqkhe-..-bjgge+++++++++++++++++++++++++++++++nmjottuqp++++++++++++++++++++++++++++++++++++++++++++++++++++++++++++++++++++++++++
(PID.TID 0000.0001) //      4 ++++++++++++++++++++++++kkk+++++++++++++++++++++++++++++++++++qmosuutttqeb....m++toooorul-......--jgck+++k+++k++++++++++++++++++-+++jglpsuuvvu++++++++++++++++++++++++++++++++++++++++++++++++++++++++++++++++++++++++++
(PID.TID 0000.0001) //      3 +++++++++++++++++++++++++++++++++++++++++++++++++++++++++++++++++++++vrnii....tyvtrqjhhh-........-kjak++++k+++k++++++++++++++++-.++xtprtvwtpr+++++++++++++++++++++++++++++++++++++++++++++++++++++++++++++++++++++++++++
(PID.TID 0000.0001) //      2 ++++++++++++++++++++++++++++++++++++++++++++++++++++++++++++++++++++++sppl...k+vtutskgc-..........hj-+++++k+++k++++++++++++++++-++++wqpuyxqnp+++++++++++++++++++++++++++++++++++++++++++++++++++++++++++++++++++++++++++
(PID.TID 0000.0001) //      1 ++++++++++++++++++++++++++++++++++++++++++++++++++++++++++++++++++++++++pg...k+pqvspec-...........elk+++++k+++k++++++++++++++++l++++somotvtrs+++++++++++++++++++++++++++++++++++++++++++++++++++++++++++l+++++++++++++++
(PID.TID 0000.0001) //      0 ..++++++++++++++++++++++++++++++++....++++++++++++++++++++++++++++++++........kaaro-..............k++kl++k....k+++++++++++++++r+++xtpmhhjqtv++....++++++++++++++++++++++++++++++++....++++++++++++++++++k+++++++mpu+++..
(PID.TID 0000.0001) //     -1 ..++++++++++++++++++++++++++++++++....++++++++++++++++++++++++++++++++....-......db..............ar+++++++....+++++++++++++++++++++tnkhfgnt+++....++++++++++++++++++++++++++++++++....+++++++++++++++++o+++++++kfqvrps..
(PID.TID 0000.0001) // =======================================================
(PID.TID 0000.0001) // END OF FIELD                                          =
(PID.TID 0000.0001) // =======================================================
(PID.TID 0000.0001) 
(PID.TID 0000.0001) // =======================================================
(PID.TID 0000.0001) // Field hFacW at iteration          1
(PID.TID 0000.0001) // CMIN =          2.000000000000000E-01
(PID.TID 0000.0001) // CMAX =          1.000000000000000E+00
(PID.TID 0000.0001) // CINT =          2.962962962962963E-02
(PID.TID 0000.0001) // SYMBOLS (CMIN->CMAX): -abcdefghijklmnopqrstuvwxyz+
(PID.TID 0000.0001) //                  0.0: .
(PID.TID 0000.0001) // RANGE I (Lo:Hi:Step):(  -1: 194:   1)
(PID.TID 0000.0001) // RANGE J (Lo:Hi:Step):(  34:  -1:  -1)
(PID.TID 0000.0001) // RANGE K (Lo:Hi:Step):(   1:   1:   1)
(PID.TID 0000.0001) // =======================================================
(PID.TID 0000.0001) K =   1
(PID.TID 0000.0001) //                I=8       I=18      I=28      I=34      I=44      I=54      I=64      I=70      I=80      I=90      I=96      I=106     I=116     I=126     I=132     I=142     I=152     I=162     I=168     I=178     I=188
(PID.TID 0000.0001) // |--J--|*01234567|901234567|901234567|901234123|567890123|567890123|567890123|563456789|123456789|123456789|123456785|789012345|789012345|789012345|789078901|345678901|345678901|345678901|901234567|901234567|901234567|901234
(PID.TID 0000.0001) //     34 ..++++++++++++++++qe---baap+++............kvtttskgc-...........h--++++k...++++++++++++hhioojd.......k++++++...+++++++++++++++++++++++++++++++++...+++++++++++++++++mgeccdel++++++++...+++++++++++++++++++++++++++++++++.
(PID.TID 0000.0001) //     33 .+++++++++++++++++b....aac+k-.............kppqspec-............ekk++++k+.++++++++++++ihhknmid.......e+++++++.+++++++++++++++++++++++++++++++++++.++++++++++++++++++tnhdc---l++++++++.+++++++++++++++++++++++++++++++++++
(PID.TID 0000.0001) //     32 ++++++++++++++++++aakkkc--e....big..ig.....aaao-...............k+kkl+kkk++++++++++++mggilkiie.......d+++++++++++++++++++++++++++++++++++++++++++++++++++++++++++++ysnheba---++++++++++++++++++++++++++++++++++++++++++++
(PID.TID 0000.0001) //     31 ++++++++++++++++-..+++++kkkffddeip-.ip-.......b...............ar+++++++++++++++++++vkffiljiiga......++++++++++++++++++++++++++++++++++++++++++++++++++++++++++++++yspmhbaaccc+++++++++++++++++++++++++++++++++++++++++++
(PID.TID 0000.0001) //     30 ++++++++++++++++cc++++++++++++--cik.cik.......................ju++++++++++++++++++++hffipnkkhc-....k++++++++++++++++++++++++++++++++++++++++++++++++++++++++++++wuurmlkgddha--l+++++++++++++++++++++++++++++++++++++++++
(PID.TID 0000.0001) //     29 ++++++++++++++++++baaf++++++++--bfmkbfmk......................ouw+++++++++++++++++rkdddi+tpoifa....+++++++++++++++++++++++++++++++++++++++++++++++++++++++++++++qootnjjgffigffhr++++++++++++++++++++++++++++++++++++++++
(PID.TID 0000.0001) //     28 +++++++++++++++e...-fhjmuuutl----bfn-bfnl.....................kii+++++++++++++++++rjeeej++uoigc....+++++++++++++++++++++++++++++++++++++++++++++++++++++++++++++llovolkjjnoooqqrv+++v+++++++++++++++++++++++++++++++++++
(PID.TID 0000.0001) //     27 +++++++++++++++...egifeeksspjd-...be..beot++....ba...........bhdd+++++++++++++++++++kiint+xpige-...++++++++++++++++++++++++++++++++++++++++++++++++++++++++++++lddmwtniiiouwxxvvw+++w+++++++++++++++++++++++++++++++++++
(PID.TID 0000.0001) //     26 ++++++++++++++kffiidbbcdgkiikiil..-b..-bjw+++lllmme..........bfgl+++++++++++++++++++++++++vpjiga...+++++++++++++++++++++++++++++++++++++++++++++++++++++++++++m---iyvnmmfffisxxxvv++vv++++++++++++++++++++++++++++++++++
(PID.TID 0000.0001) //     25 +++++++++++++qmmmnf....--accgiil...b...bjtgg+++vhhhkhhc-....-ill++++++++++++++++++++++jj+qookih-...+++++++++++++++++++++++++++++++++++++++++++++++++++++++++++l-..euwtr-.....dlpss++ss++++++++++++++++++++++++++++++++++
(PID.TID 0000.0001) //     24 ++++++++++++xpllmng----...achiil-..--..-inss++++igghho+e....h+++++++++++++++++++++++++jhhppqlih....+++++++++++++++++++++++++++++++++++++++++++++++++++++++++++lbbkrxxu..........isw+isw+++++++++++++++++++++++++++++++++
(PID.TID 0000.0001) //     23 ++++++++++++ysnmmlhf--bfdcbbgicc+...+...cht+++++lggil++ob--bg++++++++++++++++++++++...++jjjrpli....+++++++++++++++++++++++++++++++++++++++++++++vv++++++++++++...-qyxc....l......afm.afm++++++++++++++--c+++++++++++++++
(PID.TID 0000.0001) //     22 ++++++++++++ysonmmjjffhmia--cf...+aa.+aal+++++++offk++++nigcc++++++++++++++++++++++....++hh+rrna...a++++++++++++++++++++++++++++++++++++++++++++hkm+++++++++++e....ni....+++++e....-...-d++++++++++++......-++++++++++++
(PID.TID 0000.0001) //     21 ++++++++++++yojjkmmlhhjmha--ce....++..+++++++++++lll+++++spjjl+++++++++++++++++++++.....+++++++j....a+++++++++++++++++++++++++++++++++++++++++++ffgi+++++++++++l-......+++++++++++e.++e..-l+++++++++.........-++++++++++
(PID.TID 0000.0001) //     20 +++++++++++++lffhlljeccfidbbge.....a...af++++++++ll++++++++yy+++++++++++++++++++++++.......+++++--cej+++++++++++++++++++++++++++++++++++++++++++iihhhjr+++++++++++-..c++++++++++++++++++++++++jj++++..........++++++++++
(PID.TID 0000.0001) //     19 ++++++++++++++lkkoppi---bdcced....-f..-fm++++++++++++++++qq++++++++++++++++++++++jj+.....jj+++++kkmp++++++++++++++++++++++++++++++++++++++++++++llkiddfsz+++++ll+++++++++++++++++++++++++++++++b..+j.........a++++++++++
(PID.TID 0000.0001) //     18 w++++++++++++++++++++bbbegeb--...-kr.-kr++++++++++++++++lll+++lll+++++++--+++tt+++++++...+++++++++++++++++++++++++++++++++++++++++++++++++++++++lllnihhr+++++ll+++++++++++++++++++++++++++++++++j..j..........++++++++++
(PID.TID 0000.0001) //     17 u++++++++++++++++++++lgghkh-.....lx+.lx++++++++++++++++++llp+laal+++++++..++roo+++++++++++++++++++oo++++++++++++++++++++++++++++++++++++++++++++jjkorqqv+++tcc++++++++++++++++++++++++++++++++++j..............+++++++++
(PID.TID 0000.0001) //     16 vyy++++++++++++++++++rhhhkg......r++.r++++++++++++++++++++ll+pll+++++rr++aabqw+++++++++++++++++++ffim+++++++++++++++++++++++++++++++++++++++++++iiimoorwz++n--++++++++++++++++++++++++++++++++++j..............+++++++++
(PID.TID 0000.0001) //     15 rssmm+++++++++++++++++lffge......+++.++++++++++++++++++++++ss+++++++++l-+k..eq+fcc+++++++++++++++dbbj+++++++++++++++++++++++++++++++++++++++oo++kjiijkntx++ll++++++++++++++++++++++++++++++++++++..............+++++++++
(PID.TID 0000.0001) //     14 mnngghl+++++++++++++++l---a.....a+++a+++++++++++++++++++++++++++++++++++++..-kwjccbbj+++++++++++ufaah++++++++++++++++++++++++++++++++++++++++kklgedddegins+..++++++++++++++++++++++++++++++++++++a...ij........+++++++++
(PID.TID 0000.0001) //     13 lhheei+++++++++++++++++.........e+++e++++++++++++++++++++++++++++++++++++k..-guyvslll++++++++++uqe--jj++++++++++++++++++++++++++++++++++++++++++a......-.....+++++++++++++++++++++++++++++++++++++..cn+.......++++++++++
(PID.TID 0000.0001) //     12 hedccn++++++++++++++++g........-g+++g++++++++++++++++++++++++++++++++xx+++bbbgsvwuqpp++++++rr++gb-..+kk+++++++++++++++++++++++++++++++++++++++++............+++++++++++++++++++++++++++++++++++++++++++......a++++++++++
(PID.TID 0000.0001) //     11 bbbcd+++++++++++++++++c........al++ll++ll+++++++++++++++++++++++++ssttt++caabfqstuttu++++wsqqna.....++++++++++++++++++++++++++++++++++++++++++++..........b++++++++++++++++++++++++++++++++++++++++++++......+++++++++++
(PID.TID 0000.0001) //     10 aa--e+++++++++++++++++e...-...-k++gd++gdd++++++++++++++++++++++++vkkknpsk--aafqrrrttusqqxtiiijb....j++++++++++++++++++++++++++++++++++++++++++++........-+++++++++++++++++++++++++++++++++++++++++++++++--a+++++++++++++
(PID.TID 0000.0001) //      9 d---l++++++++++++++++++.......c+++aa++aa++++++++++++++++++++++++urlkkkmo+++pprsrrsttmgghtnaabejjh--j++++++++++++++++++++++++++++++++++++++++++++......-l++++++++++++++++++++++++++++++++++++++++++++++++++++++++++++++++
(PID.TID 0000.0001) //      8 c--l+++++++++++++++++++......-o+++ff++ff++++++++++++++++++++++ohhikihhhmkee+yvsssttqjjnsxrdddfiie---ko++++++++++++++++++++++++++++++++++++++++++......f+++++++++++++++++++++++++++++++++++++++++++++++++++++++++++++++++
(PID.TID 0000.0001) //      7 ac+++++++++++++++++++++a......s+++ll++ll++++++++++++++++++++++ngggigffhof..k+rrtsssnmmuwvshgggc--....ek++++++++++++++++++++++++++++++++pifffkk+++ddekk++++++++++++++++++++++++++++++++++++++++++++++++++++++++++++++++++
(PID.TID 0000.0001) //      6 -++++++++++++++++++++++l-....a++++++++++++++++++++++++++++++++nhhhigggjtk..-+--swumhhowwwtiihb...-baafk+++++++++++++++++++++++++++++++skklliffm+++++++++++++++++++++++++++++++++++++++++++++++++++++++++++++++++++++++++
(PID.TID 0000.0001) //      5 l+++++++++++++++++++++++.....+++++++++++++++++++++++++++++++++oiijlmmnqvd...+..lzuliiquvwqkhe-...-bggee++++++++++++++++++++++++++++++nmjjottqpp+++++++++++++++++++++++++++++++++++++++++++++++++++++++++++++++++++++++++
(PID.TID 0000.0001) //      4 ++++++++++++++++++++++++kkkk++++++++++++++++++++++++++++++++++qmmosutttq-b.....m+tooooorl-.......--gcck++kk++kk+++++++++++++++++--++jgglpsuuvuu+++++++++++++++++++++++++++++++++++++++++++++++++++++++++++++++++++++++++
(PID.TID 0000.0001) //      3 +++++++++++++++++++++++++++++++++++++++++++++++++++++++++++++++++++++vrnci.....tvtrqjhhh-.........-jaak+++kk++kk+++++++++++++++-..+xtpprtvtppr++++++++++++++++++++++++++++++++++++++++++++++++++++++++++++++++++++++++++
(PID.TID 0000.0001) //      2 ++++++++++++++++++++++++++++++++++++++++++++++++++++++++++++++++++++++spil....kvtttskgc-...........h--++++kk++kk+++++++++++++++--+++wqppuxqnnp++++++++++++++++++++++++++++++++++++++++++++++++++++++++++++++++++++++++++
(PID.TID 0000.0001) //      1 ++++++++++++++++++++++++++++++++++++++++++++++++++++++++++++++++++++++++pg....kppqspec-............ekk++++kk++kk+++++++++++++++ll+++sommottrrs++++++++++++++++++++++++++++++++++++++++++++++++++++++++++ll++++++++++++++
(PID.TID 0000.0001) //      0 .+++++++++++++++++++++++++++++++++++.+++++++++++++++++++++++++++++++++++.......aaao-...............k+kkl+kkk.kkk++++++++++++++rr++xtpmhhhjqtv+++.+++++++++++++++++++++++++++++++++++.+++++++++++++++++++kk++++++mmpu+++s
(PID.TID 0000.0001) //     -1 ..+++++++++++++++++++++++++++++++++...+++++++++++++++++++++++++++++++++...-.......b...............ar+++++++...+++++++++++++++++++++tnkhffgnt+++...+++++++++++++++++++++++++++++++++...+++++++++++++++++oo++++++kffqrpps.
(PID.TID 0000.0001) // =======================================================
(PID.TID 0000.0001) // END OF FIELD                                          =
(PID.TID 0000.0001) // =======================================================
(PID.TID 0000.0001) 
(PID.TID 0000.0001) // =======================================================
(PID.TID 0000.0001) // Field hFacS at iteration          1
(PID.TID 0000.0001) // CMIN =          2.000000000000000E-01
(PID.TID 0000.0001) // CMAX =          1.000000000000000E+00
(PID.TID 0000.0001) // CINT =          2.962962962962963E-02
(PID.TID 0000.0001) // SYMBOLS (CMIN->CMAX): -abcdefghijklmnopqrstuvwxyz+
(PID.TID 0000.0001) //                  0.0: .
(PID.TID 0000.0001) // RANGE I (Lo:Hi:Step):(  -1: 194:   1)
(PID.TID 0000.0001) // RANGE J (Lo:Hi:Step):(  34:  -1:  -1)
(PID.TID 0000.0001) // RANGE K (Lo:Hi:Step):(   1:   1:   1)
(PID.TID 0000.0001) // =======================================================
(PID.TID 0000.0001) K =   1
(PID.TID 0000.0001) //                I=8       I=18      I=28      I=34      I=44      I=54      I=64      I=70      I=80      I=90      I=96      I=106     I=116     I=126     I=132     I=142     I=152     I=162     I=168     I=178     I=188
(PID.TID 0000.0001) // |--J--|*01234567|901234567|901234567|901234123|567890123|567890123|567890123|563456789|123456789|123456789|123456785|789012345|789012345|789012345|789078901|345678901|345678901|345678901|901234567|901234567|901234567|901234
(PID.TID 0000.0001) //     34 .+++++++++++++++++b...baap+k-........g...k+pquspec-...........ej-+++++k..++++++++++++ihinomid......e+++++++..++++++++++++++++++++++++++++++++++..++++++++++++++++++mgecc--l++++++++..++++++++++++++++++++++++++++++++++.
(PID.TID 0000.0001) //     33 ++++++++++++++++++a...ba-+e...............kaaro-..............elkkl++kkk++++++++++++mghklkiid......d++++++++++++++++++++++++++++++++++++++++++++++++++++++++++++++ysnhdb---+++++++++++++++++++++++++++++++++++++++++++++
(PID.TID 0000.0001) //     32 ++++++++++++++++-.ak+k+c-+e...bilg..lg.......db...............k++kl++kkk+++++++++++vkfilljije......d++++++++++++++++++++++++++++++++++++++++++++++++++++++++++++++ysnheba--c++++++++++++++++++++++++++++++++++++++++++++
(PID.TID 0000.0001) //     31 ++++++++++++++++-.++++++k+kfkd-cip-.ip-......................ar++++++++++++++++++++vhfilljikga.....+++++++++++++++++++++++++++++++++++++++++++++++++++++++++++++wuvrmlhbadca-l++++++++++++++++++++++++++++++++++++++++++
(PID.TID 0000.0001) //     30 ++++++++++++++++c+baf+++++++++-bfmk.fmk......................juw++++++++++++++++++rkddipsnkmhc-...k+++++++++++++++++++++++++++++++++++++++++++++++++++++++++++++qourmjjgdhha-hr+++++++++++++++++++++++++++++++++++++++++
(PID.TID 0000.0001) //     29 +++++++++++++++e..-afjm+uuvtl---bfnkbfnk.....................kki++++++++++++++++++rjddi++tpoifa...++++++++++++++++++++++++++++++++++++++++++++++++++++++++++++++loutnjjgfijgfhrv++++++++++++++++++++++++++++++++++++++++
(PID.TID 0000.0001) //     28 +++++++++++++++...-fhfekstspj--..beo.beol.......-............jhd++++++++++++++++++rjeejt++uoigc...+++++++++++++++++++++++++++++++++++++++++++++++++++++++++++++ldmvwoliinpooqqrv++++++++++++++++++++++++++++++++++++++++
(PID.TID 0000.0001) //     27 ++++++++++++++k..egdbcdgkmikjd-..-bj.-bjt+++...bma..........bfgd++++++++++++++++++++kint++vpige-..++++++++++++++++++++++++++++++++++++++++++++++++++++++++++++m--iwytniiffisxxvwv+++v+++++++++++++++++++++++++++++++++++
(PID.TID 0000.0001) //     26 +++++++++++++qkfimf...b-agcgnill..bj..bjutg++llphhe.........bfgl++++++++++++++++++++++j++qopjig-..++++++++++++++++++++++++++++++++++++++++++++++++++++++++++++l-.euzvnm-....dlpus+++s+++++++++++++++++++++++++++++++++++
(PID.TID 0000.0001) //     25 ++++++++++++xplmnnf...-..acgmil+..-i..-intg++++vhghhhkc-...-ill+++++++++++++++++++++++jh+popkih...++++++++++++++++++++++++++++++++++++++++++++++++++++++++++++l-.euxwt.........isw++sw++++++++++++++++++++++++++++++++++
(PID.TID 0000.0001) //     24 ++++++++++++xplmmlg--a-..abgiic+-..c-..chts+++++ighho++e...g+++++++++++++++++++++++..+jhjjqslih...++++++++++++++++++++++++++++++++++++++++++++++v+++++++++++++..-qxxxc..........afm+afm+++++++++++++++-c++++++++++++++++
(PID.TID 0000.0001) //     23 ++++++++++++ysnmmlhf-bifda-cfi..+..c+..cht++++++lfil+++ob-bc+++++++++++++++++++++++...++jhrwpli...a+++++++++++++++++++++++++++++++++++++++++++++km++++++++++++....nxi....+l.......-d..-d+++++++++++++.....-+++++++++++++
(PID.TID 0000.0001) //     22 ++++++++++++yojkmmjkfhmmha-cfe...+al.+al++++++++ofk+++++nigcl++++++++++++++++++++++....++h++rrna...a++++++++++++++++++++++++++++++++++++++++++++fgi+++++++++++e.........++++++e...-...-.-l++++++++++........-+++++++++++
(PID.TID 0000.0001) //     21 ++++++++++++ylfhlnljecfiha-cfe....af..af+++++++++ll++++++spjl++++++++++++++++++++++.....-.+++++j...a++++++++++++++++++++++++++++++++++++++++++++fghhjr+++++++++l-.....++++++++++++e.++e.-l++++j+++++.........+++++++++++
(PID.TID 0000.0001) //     20 +++++++++++++lfhlnlje--bfdbegd....af..af+++++++++l+++++++q+y+++++++++++++++++++++j++....-.++++++-cej++++++++++++++++++++++++++++++++++++++++++++iihhdfsz++++++l+++-.c+++++++++++++++++++++++++jb.++j.........+++++++++++
(PID.TID 0000.0001) //     19 ++++++++++++++lkoqpqi--bfdcb--...-fm.-fm++++++++++++++++ll++++ll++++++++-++++t+++j++....jj++++++kmp+++++++++++++++++++++++++++++++++++++++++++++llkidfrz+++++ll++++++++++++++++++++++++++++++++b..+j.........+++++++++++
(PID.TID 0000.0001) //     18 +++++++++++++++++++++bbehge-....-kr+-kr+++++++++++++++++llp++lal++++++++.+++ro++++++++..++++++++++o+++++++++++++++++++++++++++++++++++++++++++++jknoihr++++tcl++++++++++++++++++++++++++++++++++j.a...........++++++++++
(PID.TID 0000.0001) //     17 yy+++++++++++++++++++lghkkg.....lx++lx+++++++++++++++++++ll++lal+++++r++.abqro+++++++++++++++++++fim++++++++++++++++++++++++++++++++++++++++++++iimooqvz+++n-+++++++++++++++++++++++++++++++++++j.............++++++++++
(PID.TID 0000.0001) //     16 sstm+++++++++++++++++rhfghe.....r+++r+++++++++++++++++++++ls+pl++++++rl-+a.eq++fc++++++++++++++++dbj++++++++++++++++++++++++++++++++++++++++o+++iiijkntx+++l-+++++++++++++++++++++++++++++++++++j.............++++++++++
(PID.TID 0000.0001) //     15 pnnghl++++++++++++++++l--aa.....+++++++++++++++++++++++++++s++++++++++l-+k.-kxwfccbj++++++++++++udah++++++++++++++++++++++++++++++++++++++++okl+geddegins++.+++++++++++++++++++++++++++++++++++++.............++++++++++
(PID.TID 0000.0001) //     14 mhhehl++++++++++++++++l........a+++++++++++++++++++++++++++++++++++++++++k.-guwjccbj+++++++++++uqe-hj++++++++++++++++++++++++++++++++++++++++kl+a.....--....+++++++++++++++++++++++++++++++++++++a..i+j.......++++++++++
(PID.TID 0000.0001) //     13 hedci+++++++++++++++++g........e+++++++++++++++++++++++++++++++++++++x+++k.-gsvwvsll+++++++r+++gb-.jjk++++++++++++++++++++++++++++++++++++++++++............++++++++++++++++++++++++++++++++++++++.cn++......+++++++++++
(PID.TID 0000.0001) //     12 bbccn+++++++++++++++++c.......-g+++l+++l++++++++++++++++++++++++++sttt+++cabfqstuuqp+++++wsqtna....++k++++++++++++++++++++++++++++++++++++++++++...........++++++++++++++++++++++++++++++++++++++++++++.....a+++++++++++
(PID.TID 0000.0001) //     11 aa-d++++++++++++++++++c.......al++gd++gd+++++++++++++++++++++++++vkknpswk-aafqsrrttuusqxytiijka....+++++++++++++++++++++++++++++++++++++++++++++.........b+++++++++++++++++++++++++++++++++++++++++++++.....++++++++++++
(PID.TID 0000.0001) //     10 a--e++++++++++++++++++e...-..-k+++ad++ad++++++++++++++++++++++++urkkkmoqk-cafqsrrtttmghtxnabejb...j+++++++++++++++++++++++++++++++++++++++++++++.......-++++++++++++++++++++++++++++++++++++++++++++++++-a++++++++++++++
(PID.TID 0000.0001) //      9 c--l+++++++++++++++++++......c++++a+++a+++++++++++++++++++++++ohilkihhmpke+prtsrsutqjghtxnabeikie--ko+++++++++++++++++++++++++++++++++++++++++++.....-l+++++++++++++++++++++++++++++++++++++++++++++++++++++++++++++++++
(PID.TID 0000.0001) //      8 c-l++++++++++++++++++++......o++++f+++f+++++++++++++++++++++++nggiigfhmpf.k+yrssstsnjnswvrddfgc--...ek+++++++++++++++++++++++++++++++++piffkk+++.....f++++++++++++++++++++++++++++++++++++++++++++++++++++++++++++++++++
(PID.TID 0000.0001) //      7 c++++++++++++++++++++++a.....s++++l+++l+++++++++++++++++++++++nggiigfhouf.-++-ststmhmuxwvshghb..-...ek++++++++++++++++++++++++++++++++skiffifm+++dekk+++++++++++++++++++++++++++++++++++++++++++++++++++++++++++++++++++
(PID.TID 0000.0001) //      6 +++++++++++++++++++++++l....a+++++++++++++++++++++++++++++++++nhhiiggjtxd..++.lwwulhouvwwqihe-..-bfafe+++++++++++++++++++++++++++++++nmjlnlifm++++++++++++++++++++++++++++++++++++++++++++++++++++++++++++++++++++++++++
(PID.TID 0000.0001) //      5 ++++++++++++++++++++++++....++++++++++++++++++++++++++++++++++oijlnmnqtqd.....l+ztlioorul-......--jgce+++k+++k++++++++++++++++++-+++jgljottuqp++++++++++++++++++++++++++++++++++++++++++++++++++++++++++++++++++++++++++
(PID.TID 0000.0001) //      4 ++++++++++++++++++++++++kkk+++++++++++++++++++++++++++++++++++qmosuuttrneb....myvtoojhhh-........-jgak+++kk++kk++++++++++++++++-.++xjglpsutpru++++++++++++++++++++++++++++++++++++++++++++++++++++++++++++++++++++++++++
(PID.TID 0000.0001) //      3 +++++++++++++++++++++++++++++++++++++++++++++++++++++++++++++++++++++vrnii....tvttrqjgc-..........hj-k++++k+++k++++++++++++++++-.++xtpptvwqnp+++++++++++++++++++++++++++++++++++++++++++++++++++++++++++++++++++++++++++
(PID.TID 0000.0001) //      2 ++++++++++++++++++++++++++++++++++++++++++++++++++++++++++++++++++++++sppg...k+pquspec-...........ej-+++++k+++k++++++++++++++++-++++somotvqnp+++++++++++++++++++++++++++++++++++++++++++++++++++++++++++l+++++++++++++++
(PID.TID 0000.0001) //      1 ++++++++++++++++++++++++++++++++++++++++++++++++++++++++++++++++++++++++-.....kaaro-..............elkkl++kk++kk+++++++++++++++rl++xtpmhhjqtrs+++++++++++++++++++++++++++++++++++++++++++++++++++++++++++k+++++++mpu++++s
(PID.TID 0000.0001) //      0 .++++++++++++++++++++++++++++++++++..++++++++++++++++++++++++++++++++++..g.......db...............k++kl++kk..+k+++++++++++++++r+++xtnkhfgntv+++..++++++++++++++++++++++++++++++++++..++++++++++++++++++ok++++++kfpurps+.
(PID.TID 0000.0001) //     -1 ..++++++++++++++++++++++++++++++++....++++++++++++++++++++++++++++++++....-......................ar+++++++....+++++++++++++++++++++tkkhfgmt+++....++++++++++++++++++++++++++++++++....+++++++++++++++++o+++++++kfqvpnr..
(PID.TID 0000.0001) // =======================================================
(PID.TID 0000.0001) // END OF FIELD                                          =
(PID.TID 0000.0001) // =======================================================
(PID.TID 0000.0001) 
(PID.TID 0000.0001) 
(PID.TID 0000.0001) // ===================================
(PID.TID 0000.0001) // GAD parameters :
(PID.TID 0000.0001) // ===================================
(PID.TID 0000.0001) tempAdvScheme =   /* Temp. Horiz.Advection scheme selector */
(PID.TID 0000.0001)                       2
(PID.TID 0000.0001)     ;
(PID.TID 0000.0001) tempVertAdvScheme =   /* Temp. Vert. Advection scheme selector */
(PID.TID 0000.0001)                       2
(PID.TID 0000.0001)     ;
(PID.TID 0000.0001) tempMultiDimAdvec =   /* use Muti-Dim Advec method for Temp */
(PID.TID 0000.0001)                   F
(PID.TID 0000.0001)     ;
(PID.TID 0000.0001) tempAdamsBashforth =   /* use Adams-Bashforth time-stepping for Temp */
(PID.TID 0000.0001)                   T
(PID.TID 0000.0001)     ;
(PID.TID 0000.0001) saltAdvScheme =   /* Salt. Horiz.advection scheme selector */
(PID.TID 0000.0001)                       3
(PID.TID 0000.0001)     ;
(PID.TID 0000.0001) saltVertAdvScheme =   /* Salt. Vert. Advection scheme selector */
(PID.TID 0000.0001)                       3
(PID.TID 0000.0001)     ;
(PID.TID 0000.0001) saltMultiDimAdvec =   /* use Muti-Dim Advec method for Salt */
(PID.TID 0000.0001)                   F
(PID.TID 0000.0001)     ;
(PID.TID 0000.0001) saltAdamsBashforth =   /* use Adams-Bashforth time-stepping for Salt */
(PID.TID 0000.0001)                   T
(PID.TID 0000.0001)     ;
(PID.TID 0000.0001) // ===================================
- INPHYS: k,SIG, SIGH,   SIGL,   WVI(1),  WVI(2):
  1   0.0750   0.1500  -2.5903   0.8306   0.5757
  2   0.2500   0.3500  -1.3863   1.4427   0.4854
  3   0.5000   0.6500  -0.6931   2.2818   0.5987
  4   0.7750   0.9000  -0.2549   4.9116   0.7344
  5   0.9500   1.0000  -0.0513   0.0000   0.0377
- INPHYS: end setup WVI.
(PID.TID 0000.0001)  AIM_READ_PHYSPARMS: opening data.aimphys
(PID.TID 0000.0001)  OPEN_COPY_DATA_FILE: opening file data.aimphys
(PID.TID 0000.0001) // =======================================================
(PID.TID 0000.0001) // Parameter file "data.aimphys"
(PID.TID 0000.0001) // =======================================================
(PID.TID 0000.0001) ># AIM physics package parameters:
(PID.TID 0000.0001) >
(PID.TID 0000.0001) >C--   AIM interface parameter (namelist AIM_PARAMS):
(PID.TID 0000.0001) >#     aim_useFMsurfBC :: select surface B.C. from Franco Molteni
(PID.TID 0000.0001) >#     aim_useMMsurfFc :: select Monthly Mean surface forcing (e.g., NCEP)
(PID.TID 0000.0001) >#     aim_surfPotTemp :: surf.Temp input file is in Pot.Temp (aim_useMMsurfFc)
(PID.TID 0000.0001) >#     aim_energPrecip :: account for energy of precipitation (snow & rain temp)
(PID.TID 0000.0001) >#     aim_splitSIOsFx :: compute separately Sea-Ice & Ocean surf. Flux
(PID.TID 0000.0001) >#     aim_LandFile :: file name for Land fraction [0-1]
(PID.TID 0000.0001) >#     aim_MMsufx   :: sufix for all Monthly Mean surface forcing files
(PID.TID 0000.0001) >#     aim_MMsufxLength :: Length of sufix (Monthly Mean surf. forc. files)
(PID.TID 0000.0001) >#     aim_albFile  :: file name for Albedo input file   (F.M. surfBC)
(PID.TID 0000.0001) >#     aim_vegFile  :: file name for vegetation fraction (F.M. surfBC)
(PID.TID 0000.0001) >#     aim_sstFile  :: file name for  Sea.Surf.Temp      (F.M. surfBC)
(PID.TID 0000.0001) >#     aim_lstFile  :: file name for Land.Surf.Temp      (F.M. surfBC)
(PID.TID 0000.0001) >#     aim_oiceFile :: file name for Sea Ice fraction    (F.M. surfBC)
(PID.TID 0000.0001) >#     aim_snowFile :: file name for Snow depth          (F.M. surfBC)
(PID.TID 0000.0001) >#     aim_swcFile  :: file name for Soil Water content  (F.M. surfBC)
(PID.TID 0000.0001) >#     aim_dragStrato :: stratospheric-drag damping time scale (s)
(PID.TID 0000.0001) >#     aim_clrSkyDiag :: compute clear-sky radiation for diagnostics
(PID.TID 0000.0001) >#     aim_taveFreq :: Frequency^-1 for time-average output (s)
(PID.TID 0000.0001) >#     aim_diagFreq :: Frequency^-1 for diagnostic output (s)
(PID.TID 0000.0001) >#     aim_tendFreq :: Frequency^-1 for tendencies output (s)
(PID.TID 0000.0001) > &AIM_PARAMS
(PID.TID 0000.0001) >#  aim_useFMsurfBC=.FALSE.,
(PID.TID 0000.0001) >#  aim_useMMsurfFc=.TRUE.,
(PID.TID 0000.0001) >#  aim_surfPotTemp=.TRUE.,
(PID.TID 0000.0001) >   aim_energPrecip=.TRUE.,
(PID.TID 0000.0001) >   aim_splitSIOsFx=.TRUE.,
(PID.TID 0000.0001) >   aim_LandFile= 'landFrc.cpl_FM.bin',
(PID.TID 0000.0001) >   aim_albFile = 'albedo_cs32.bin',
(PID.TID 0000.0001) >   aim_vegFile = 'vegetFrc.cpl_FM.bin',
(PID.TID 0000.0001) >   aim_sstFile = 'seaSurfT.cpl_FM.bin',
(PID.TID 0000.0001) >   aim_lstFile = 'lndSurfT.cpl_FM.bin',
(PID.TID 0000.0001) >   aim_oiceFile= 'seaIce.cpl3FM.bin',
(PID.TID 0000.0001) >   aim_snowFile= 'snowDepth.cpl_FM.bin',
(PID.TID 0000.0001) >   aim_swcFile = 'soilMoist.cpl_FM.bin',
(PID.TID 0000.0001) >   aim_dragStrato= 2592000.,
(PID.TID 0000.0001) >#  aim_clrSkyDiag=.TRUE.,
(PID.TID 0000.0001) >#  aim_diagFreq=3600.,
(PID.TID 0000.0001) > &
(PID.TID 0000.0001) >
(PID.TID 0000.0001) >#--   Physical constants
(PID.TID 0000.0001) >#       P0    = reference pressure                 [Pa=N/m2]
(PID.TID 0000.0001) >#       GG    = gravity accel.                     [m/s2]
(PID.TID 0000.0001) >#       RD    = gas constant for dry air           [J/kg/K]
(PID.TID 0000.0001) >#       CP    = specific heat at constant pressure [J/kg/K]
(PID.TID 0000.0001) >#       ALHC  = latent heat of condensation        [J/g]
(PID.TID 0000.0001) >#       ALHF  = latent heat of freezing            [J/g]
(PID.TID 0000.0001) >#       SBC   = Stefan-Boltzmann constant
(PID.TID 0000.0001) >#     rainCP  = heat capacity of liquid water      [J/g/K]
(PID.TID 0000.0001) >#     tFreeze = freezing temperature of pure water [K]
(PID.TID 0000.0001) >
(PID.TID 0000.0001) >#--   Constants for forcing fields (namelist AIM_PAR_FOR):
(PID.TID 0000.0001) >#      SOLC   = Solar constant (area averaged) in W/m^2
(PID.TID 0000.0001) >#      ALBSEA = Albedo over sea
(PID.TID 0000.0001) >#      ALBICE = Albedo over sea ice (for ice fraction = 1)
(PID.TID 0000.0001) >#      ALBSN  = Albedo over snow (for snow depth > SDALB)
(PID.TID 0000.0001) >#      SDALB  = Snow depth (mm water) corresponding to maximum albedo
(PID.TID 0000.0001) >#      SWCAP  = Soil wetness at field capacity (volume fraction)
(PID.TID 0000.0001) >#      SWWIL  = Soil wetness at wilting point  (volume fraction)
(PID.TID 0000.0001) >#      hSnowWetness :: snow depth (m) corresponding to maximum wetness
(PID.TID 0000.0001) > &AIM_PAR_FOR
(PID.TID 0000.0001) > &
(PID.TID 0000.0001) >
(PID.TID 0000.0001) >#--   Constants for surface fluxes (namelist AIM_PAR_SFL):
(PID.TID 0000.0001) >#      FWIND0 = ratio of near-sfc wind to lowest-level wind
(PID.TID 0000.0001) >#      FTEMP0 = weight for near-sfc temperature extrapolation (0-1) :
(PID.TID 0000.0001) >#               1 : linear extrapolation from two lowest levels
(PID.TID 0000.0001) >#               0 : constant potential temperature ( = lowest level)
(PID.TID 0000.0001) >#      FHUM0  = weight for near-sfc specific humidity extrapolation (0-1) :
(PID.TID 0000.0001) >#               1 : extrap. with constant relative hum. ( = lowest level)
(PID.TID 0000.0001) >#               0 : constant specific hum. ( = lowest level)
(PID.TID 0000.0001) >#      CDL    = drag coefficient for momentum over land
(PID.TID 0000.0001) >#      CDS    = drag coefficient for momentum over sea
(PID.TID 0000.0001) >#      CHL    = heat exchange coefficient over land
(PID.TID 0000.0001) >#      CHS    = heat exchange coefficient over sea
(PID.TID 0000.0001) >#      VGUST  = wind speed for sub-grid-scale gusts
(PID.TID 0000.0001) >#      CTDAY  = daily-cycle correction (dTskin/dSSRad)
(PID.TID 0000.0001) >#      DTHETA = Potential temp. gradient for stability correction
(PID.TID 0000.0001) >#      dTstab = potential temp. increment for stability function derivative
(PID.TID 0000.0001) >#      FSTAB  = Amplitude of stability correction (fraction)
(PID.TID 0000.0001) >#      HDRAG  = Height scale for orographic correction
(PID.TID 0000.0001) >#      FHDRAG = Amplitude of orographic correction (fraction)
(PID.TID 0000.0001) > &AIM_PAR_SFL
(PID.TID 0000.0001) >#  FTEMP0 = 0.,
(PID.TID 0000.0001) >#  FHUM0  = 0.,
(PID.TID 0000.0001) >#  dTstab = 0.,
(PID.TID 0000.0001) > &
(PID.TID 0000.0001) >
(PID.TID 0000.0001) >#--   Convection constants (namelist AIM_PAR_CNV):
(PID.TID 0000.0001) >#      PSMIN  = minimum (norm.) sfc. pressure for the occurrence of convection
(PID.TID 0000.0001) >#      TRCNV  = time of relaxation (in hours) towards reference state
(PID.TID 0000.0001) >#      QBL    = specific hum. threshold in the boundary layer
(PID.TID 0000.0001) >#      RHBL   = relative hum. threshold in the boundary layer
(PID.TID 0000.0001) >#      RHIL   = rel. hum. threshold in intermed. layers for secondary mass flux
(PID.TID 0000.0001) >#      ENTMAX = max. entrainment as a fraction of cloud-base mass flux
(PID.TID 0000.0001) >#      SMF    = ratio between secondary and primary mass flux at cloud-base
(PID.TID 0000.0001) > &AIM_PAR_CNV
(PID.TID 0000.0001) > &
(PID.TID 0000.0001) >
(PID.TID 0000.0001) >#--   Constants for large-scale condensation (namelist AIM_PAR_LSC):
(PID.TID 0000.0001) >#      TRLSC  = Relaxation time (in hours) for specific humidity
(PID.TID 0000.0001) >#      RHLSC  = Maximum relative humidity threshold (at sigma=1)
(PID.TID 0000.0001) >#      DRHLSC = Vertical range of relative humidity threshold
(PID.TID 0000.0001) >#      QSMAX  = used to define the maximum latent heat release
(PID.TID 0000.0001) > &AIM_PAR_LSC
(PID.TID 0000.0001) > &
(PID.TID 0000.0001) >
(PID.TID 0000.0001) >#--   Radiation constants (namelist AIM_PAR_RAD):
(PID.TID 0000.0001) >#      RHCL1  = relative hum. corresponding to cloud cover = 0
(PID.TID 0000.0001) >#      RHCL2  = relative hum. corresponding to cloud cover = 1
(PID.TID 0000.0001) >#      QACL1  = specific hum. threshold for cloud cover in the upper troposphere
(PID.TID 0000.0001) >#      QACL2  = specific hum. threshold for cloud cover in the upper troposphere
(PID.TID 0000.0001) >#      ALBCL  = cloud albedo (for cloud cover = 1)
(PID.TID 0000.0001) >#      EPSSW  = fraction of incoming solar radiation absorbed by ozone
(PID.TID 0000.0001) >#      EPSLW  = fraction of surface LW radiation emitted directly to space
(PID.TID 0000.0001) >#      EMISFC = longwave surface emissivity
(PID.TID 0000.0001) >#--:            shortwave absorptivities (for dp = 10^5 Pa) :
(PID.TID 0000.0001) >#      ABSDRY = abs. of dry air      (visible band)
(PID.TID 0000.0001) >#      ABSAER = abs. of aerosols     (visible band)
(PID.TID 0000.0001) >#      ABSWV1 = abs. of water vapour (visible band, for dq = 1 g/kg)
(PID.TID 0000.0001) >#      ABSWV2 = abs. of water vapour (near IR band, for dq = 1 g/kg)
(PID.TID 0000.0001) >#      ABSCL1 = abs. of clouds       (visible band, constant term)
(PID.TID 0000.0001) >#      ABSCL2 = abs. of clouds       (visible band, for dw = 1 g/kg)
(PID.TID 0000.0001) >#--:            longwave absorptivities (per dp = 10^5 Pa) :
(PID.TID 0000.0001) >#      ABLWIN = abs. of air in "window" band
(PID.TID 0000.0001) >#      ABLCO2 = abs. of air in CO2 band
(PID.TID 0000.0001) >#      ABLWV1 = abs. of water vapour in H2O band 1 (weak),   for dq = 1 g/kg
(PID.TID 0000.0001) >#      ABLWV2 = abs. of water vapour in H2O band 2 (strong), for dq = 1 g/kg
(PID.TID 0000.0001) >#      ABLCL1 = abs. of clouds       in "window" band,       constant term
(PID.TID 0000.0001) >#      ABLCL2 = abs. of clouds       in "window" band,       for dw = 1 g/kg
(PID.TID 0000.0001) > &AIM_PAR_RAD
(PID.TID 0000.0001) > &
(PID.TID 0000.0001) >
(PID.TID 0000.0001) >#--   Constants for vertical dif. and sh. conv. (namelist AIM_PAR_VDI):
(PID.TID 0000.0001) >#      TRSHC  = relaxation time (in hours) for shallow convection
(PID.TID 0000.0001) >#      TRVDI  = relaxation time (in hours) for moisture diffusion
(PID.TID 0000.0001) >#      TRVDS  = relaxation time (in hours) for super-adiab. conditions
(PID.TID 0000.0001) >#      RHGRAD = maximum gradient of relative humidity (d_RH/d_sigma)
(PID.TID 0000.0001) >#      SEGRAD = minimum gradient of dry static energy (d_DSE/d_phi)
(PID.TID 0000.0001) > &AIM_PAR_VDI
(PID.TID 0000.0001) > &
(PID.TID 0000.0001) >
(PID.TID 0000.0001) 
(PID.TID 0000.0001)  AIM_READ_PHYSPARMS: finished reading data.aimphys
(PID.TID 0000.0001) 
(PID.TID 0000.0001) // ===================================
(PID.TID 0000.0001) // AIM physics parameters :
(PID.TID 0000.0001) // ===================================
(PID.TID 0000.0001) useLand =   /* use Land package for surf.BC over land  */
(PID.TID 0000.0001)                   T
(PID.TID 0000.0001)     ;
(PID.TID 0000.0001) aim_useFMsurfBC =   /* F.Molteni surf. BC scheme on/off flag */
(PID.TID 0000.0001)                   T
(PID.TID 0000.0001)     ;
(PID.TID 0000.0001) aim_useMMsurfFc =   /* Monthly Mean surf. Forcing on/off flag */
(PID.TID 0000.0001)                   F
(PID.TID 0000.0001)     ;
(PID.TID 0000.0001) aim_surfPotTemp =   /* Surf Temp file in Pot.Temp on/off flag */
(PID.TID 0000.0001)                   F
(PID.TID 0000.0001)     ;
(PID.TID 0000.0001) aim_energPrecip = /* account for energy of precip. on/off flag */
(PID.TID 0000.0001)                   T
(PID.TID 0000.0001)     ;
(PID.TID 0000.0001) aim_splitSIOsFx = /* separate Sea-Ice & Ocean Flux on/off flag */
(PID.TID 0000.0001)                   T
(PID.TID 0000.0001)     ;
(PID.TID 0000.0001) aim_dragStrato= /* stratospheric-drag damping time scale (s) */
(PID.TID 0000.0001)                 2.592000000000000E+06
(PID.TID 0000.0001)     ;
(PID.TID 0000.0001) aim_clrSkyDiag = /* do clear-sky radiation diagnostics */
(PID.TID 0000.0001)                   F
(PID.TID 0000.0001)     ;
(PID.TID 0000.0001) aim_taveFreq =   /* Frequency^-1 for time-Aver. output (s) */
(PID.TID 0000.0001)                 2.592000000000000E+06
(PID.TID 0000.0001)     ;
(PID.TID 0000.0001) aim_diagFreq =   /* Frequency^-1 for diagnostic output (s) */
(PID.TID 0000.0001)                 2.592000000000000E+06
(PID.TID 0000.0001)     ;
(PID.TID 0000.0001) aim_tendFreq =   /* Frequency^-1 for tendencies output (s) */
(PID.TID 0000.0001)                 0.000000000000000E+00
(PID.TID 0000.0001)     ;
(PID.TID 0000.0001) AIM_FOR:   SOLC =   /* Solar constant (area averaged) in W/m2 */
(PID.TID 0000.0001)                 3.420000000000000E+02
(PID.TID 0000.0001)     ;
(PID.TID 0000.0001) AIM_FOR: ALBSEA =   /* Albedo over sea [0-1]      */
(PID.TID 0000.0001)                 7.000000000000001E-02
(PID.TID 0000.0001)     ;
(PID.TID 0000.0001) AIM_FOR: ALBICE =   /* Albedo over sea ice (for ice fraction =1) */
(PID.TID 0000.0001)                 6.000000000000000E-01
(PID.TID 0000.0001)     ;
(PID.TID 0000.0001) AIM_FOR:  ALBSN =   /* Albedo over snow (for snow depth > SDALB) */
(PID.TID 0000.0001)                 6.000000000000000E-01
(PID.TID 0000.0001)     ;
(PID.TID 0000.0001) AIM_FOR:  SDALB =   /* Snow depth (mm H2O) corresp. maximum albedo */
(PID.TID 0000.0001)                 6.000000000000000E+01
(PID.TID 0000.0001)     ;
(PID.TID 0000.0001) AIM_FOR:  SWCAP =   /* Soil wetness at field capacity (Vol.fract.) */
(PID.TID 0000.0001)                 3.000000000000000E-01
(PID.TID 0000.0001)     ;
(PID.TID 0000.0001) AIM_FOR:  SWWIL =   /* Soil wetness at wilting point  (Vol.fract.) */
(PID.TID 0000.0001)                 1.700000000000000E-01
(PID.TID 0000.0001)     ;
(PID.TID 0000.0001) AIM_FOR: hSnowWetness=   /* snow depth corresp. maximum wetness (m) */
(PID.TID 0000.0001)                 1.000000000000000E-02
(PID.TID 0000.0001)     ;
(PID.TID 0000.0001) AIM_SFL: FWIND0 =   /* ratio of near-sfc wind to lowest-level wind */
(PID.TID 0000.0001)                 6.000000000000000E-01
(PID.TID 0000.0001)     ;
(PID.TID 0000.0001) AIM_SFL: FTEMP0 =  /* weight for near-sfc temp. extrapolation (0-1)*/
(PID.TID 0000.0001)                 1.000000000000000E+00
(PID.TID 0000.0001)     ;
(PID.TID 0000.0001) AIM_SFL:  FHUM0 =  /* weight for near-sfc spec.humid. extrap. (0-1)*/
(PID.TID 0000.0001)                 1.000000000000000E+00
(PID.TID 0000.0001)     ;
(PID.TID 0000.0001) AIM_SFL:    CDL =   /* drag coefficient for momentum over land */
(PID.TID 0000.0001)                 1.800000000000000E-03
(PID.TID 0000.0001)     ;
(PID.TID 0000.0001) AIM_SFL:    CDS =   /* drag coefficient for momentum over sea  */
(PID.TID 0000.0001)                 8.000000000000000E-04
(PID.TID 0000.0001)     ;
(PID.TID 0000.0001) AIM_SFL:    CHL =   /* heat exchange coefficient over land */
(PID.TID 0000.0001)                 1.200000000000000E-03
(PID.TID 0000.0001)     ;
(PID.TID 0000.0001) AIM_SFL:    CHS =   /* heat exchange coefficient over sea  */
(PID.TID 0000.0001)                 8.000000000000000E-04
(PID.TID 0000.0001)     ;
(PID.TID 0000.0001) AIM_SFL:  VGUST =   /* wind speed [m/s] for sub-grid-scale gusts */
(PID.TID 0000.0001)                 5.000000000000000E+00
(PID.TID 0000.0001)     ;
(PID.TID 0000.0001) AIM_SFL:  CTDAY =   /* daily-cycle correction (dTskin/dSSRad) */
(PID.TID 0000.0001)                 1.000000000000000E-02
(PID.TID 0000.0001)     ;
(PID.TID 0000.0001) AIM_SFL: DTHETA =   /* Pot.Temp. gradient for stability correction */
(PID.TID 0000.0001)                 3.000000000000000E+00
(PID.TID 0000.0001)     ;
(PID.TID 0000.0001) AIM_SFL: dTstab =   /* Pot.Temp. increment for stab.funct. derivative */
(PID.TID 0000.0001)                 1.000000000000000E+00
(PID.TID 0000.0001)     ;
(PID.TID 0000.0001) AIM_SFL:  FSTAB =   /* Amplitude of stability correction (fract.) */
(PID.TID 0000.0001)                 6.700000000000001E-01
(PID.TID 0000.0001)     ;
(PID.TID 0000.0001) AIM_SFL:  HDRAG =   /* Height scale for orographic correction */
(PID.TID 0000.0001)                 2.000000000000000E+03
(PID.TID 0000.0001)     ;
(PID.TID 0000.0001) AIM_SFL: FHDRAG =   /* Amplitude of orographic correction (fract.)*/
(PID.TID 0000.0001)                 8.000000000000000E-01
(PID.TID 0000.0001)     ;
(PID.TID 0000.0001) AIM_CNV:  PSMIN =   /* min norm.sfc.P. for occurrence of convect. */
(PID.TID 0000.0001)                 7.000000000000000E-01
(PID.TID 0000.0001)     ;
(PID.TID 0000.0001) AIM_CNV:  TRCNV =   /* time of relaxation [h] towards ref state */
(PID.TID 0000.0001)                 6.000000000000000E+00
(PID.TID 0000.0001)     ;
(PID.TID 0000.0001) AIM_CNV:    QBL =   /* specific hum. threshold in the Bound.layer */
(PID.TID 0000.0001)                 1.500000000000000E+01
(PID.TID 0000.0001)     ;
(PID.TID 0000.0001) AIM_CNV:   RHBL =   /* relative hum. threshold in the Bound.layer */
(PID.TID 0000.0001)                 8.000000000000000E-01
(PID.TID 0000.0001)     ;
(PID.TID 0000.0001) AIM_CNV:   RHIL =   /* rel.hum. threshold (intern) for 2nd mass.Flx*/
(PID.TID 0000.0001)                 7.000000000000000E-01
(PID.TID 0000.0001)     ;
(PID.TID 0000.0001) AIM_CNV: ENTMAX =   /* time of relaxation [h] towards neutral eq. */
(PID.TID 0000.0001)                 5.000000000000000E-01
(PID.TID 0000.0001)     ;
(PID.TID 0000.0001) AIM_CNV:    SMF =   /* ratio 2ndary/primary mass.Flx at cloud-base*/
(PID.TID 0000.0001)                 5.000000000000000E-01
(PID.TID 0000.0001)     ;
(PID.TID 0000.0001) AIM_LSC:  TRLSC =   /* relaxation time [h] for supersat. spec.hum. */
(PID.TID 0000.0001)                 4.000000000000000E+00
(PID.TID 0000.0001)     ;
(PID.TID 0000.0001) AIM_LSC:  RHLSC =   /* Max rel.humidity threshold (at sigma=1) */
(PID.TID 0000.0001)                 9.000000000000000E-01
(PID.TID 0000.0001)     ;
(PID.TID 0000.0001) AIM_LSC: DRHLSC =   /* Vertical range of rel.humidity threshold */
(PID.TID 0000.0001)                 1.000000000000000E-01
(PID.TID 0000.0001)     ;
(PID.TID 0000.0001) AIM_LSC:  QSMAX =   /* Define the maximum latent heat release */
(PID.TID 0000.0001)                 5.000000000000000E+01
(PID.TID 0000.0001)     ;
(PID.TID 0000.0001) AIM_RAD:  RHCL1 =   /*  rel.hum. corresponding to cloud cover = 0 */
(PID.TID 0000.0001)                 4.500000000000000E-01
(PID.TID 0000.0001)     ;
(PID.TID 0000.0001) AIM_RAD:  RHCL2 =   /*  rel.hum. corresponding to cloud cover = 1 */
(PID.TID 0000.0001)                 8.500000000000000E-01
(PID.TID 0000.0001)     ;
(PID.TID 0000.0001) AIM_RAD:  QACL1 =   /* spec.hum. threshold for cloud, upper trop. */
(PID.TID 0000.0001)                 1.000000000000000E-01
(PID.TID 0000.0001)     ;
(PID.TID 0000.0001) AIM_RAD:  QACL2 =   /* spec.hum. threshold for cloud, upper trop. */
(PID.TID 0000.0001)                 1.000000000000000E+00
(PID.TID 0000.0001)     ;
(PID.TID 0000.0001) AIM_RAD:  ALBCL =   /*  cloud albedo (for cloud cover = 1) */
(PID.TID 0000.0001)                 4.000000000000000E-01
(PID.TID 0000.0001)     ;
(PID.TID 0000.0001) AIM_RAD:  EPSSW =   /*  fract. of inc.solar rad. absorbed by ozone */
(PID.TID 0000.0001)                 1.500000000000000E-02
(PID.TID 0000.0001)     ;
(PID.TID 0000.0001) AIM_RAD:  EPSLW =   /*  fract. of sfc LW emitted directly to space */
(PID.TID 0000.0001)                 0.000000000000000E+00
(PID.TID 0000.0001)     ;
(PID.TID 0000.0001) AIM_RAD: EMISFC =   /*  longwave surface emissivity */
(PID.TID 0000.0001)                 9.800000000000000E-01
(PID.TID 0000.0001)     ;
(PID.TID 0000.0001)  AIM_RAD : ShortWave absorptivities (for dp = 10^5 Pa) :
(PID.TID 0000.0001) AIM_RAD: ABSDRY =   /* abs. of dry air (visible band) */
(PID.TID 0000.0001)                 3.300000000000000E-02
(PID.TID 0000.0001)     ;
(PID.TID 0000.0001) AIM_RAD: ABSAER =   /* abs. of aerosols (visible band) */
(PID.TID 0000.0001)                 3.300000000000000E-02
(PID.TID 0000.0001)     ;
(PID.TID 0000.0001) AIM_RAD: ABSWV1 =   /* abs. of water vap. (vis. band)(/dq, 1g/kg) */
(PID.TID 0000.0001)                 2.200000000000000E-02
(PID.TID 0000.0001)     ;
(PID.TID 0000.0001) AIM_RAD: ABSWV2 =   /* abs. of water vap.(near IR bd)(/dq, 1g/kg) */
(PID.TID 0000.0001)                 1.500000000000000E+01
(PID.TID 0000.0001)     ;
(PID.TID 0000.0001) AIM_RAD: ABSCL1 =   /* abs. of clouds (vis.band)(constant term) */
(PID.TID 0000.0001)                 0.000000000000000E+00
(PID.TID 0000.0001)     ;
(PID.TID 0000.0001) AIM_RAD: ABSCL2 =   /* abs. of clouds (vis.band) (/dw, 1g/kg) */
(PID.TID 0000.0001)                 1.000000000000000E-02
(PID.TID 0000.0001)     ;
(PID.TID 0000.0001) AIM_RAD: ABLWIN =   /* abs. of air in "window" band */
(PID.TID 0000.0001)                 7.000000000000000E-01
(PID.TID 0000.0001)     ;
(PID.TID 0000.0001) AIM_RAD: ABLCO2 =   /* abs. of air in CO2 band */
(PID.TID 0000.0001)                 4.000000000000000E+00
(PID.TID 0000.0001)     ;
(PID.TID 0000.0001) AIM_RAD: ABLWV1 =   /* abs. of Water vap. H2O bd-1(weak)(/dq,1g/kg)*/
(PID.TID 0000.0001)                 7.000000000000000E-01
(PID.TID 0000.0001)     ;
(PID.TID 0000.0001) AIM_RAD: ABLWV2 =   /* abs. of W. vap., H2O bd-2(strong)(/dq,1g/kg)*/
(PID.TID 0000.0001)                 5.000000000000000E+01
(PID.TID 0000.0001)     ;
(PID.TID 0000.0001) AIM_RAD: ABLCL1 =   /* abs. of clouds in window band (const term) */
(PID.TID 0000.0001)                 1.200000000000000E+01
(PID.TID 0000.0001)     ;
(PID.TID 0000.0001) AIM_RAD: ABLCL2 =   /* abs. of clouds in window band (/dw, 1g/kg) */
(PID.TID 0000.0001)                 0.000000000000000E+00
(PID.TID 0000.0001)     ;
(PID.TID 0000.0001) AIM_VDI:  TRSHC =   /* relaxation time [h] for shallow convection */
(PID.TID 0000.0001)                 2.400000000000000E+01
(PID.TID 0000.0001)     ;
(PID.TID 0000.0001) AIM_VDI:  TRVDI =   /* relaxation time [h] for moisture diffusion */
(PID.TID 0000.0001)                 4.000000000000000E+01
(PID.TID 0000.0001)     ;
(PID.TID 0000.0001) AIM_VDI:  TRVDS =   /* relaxation time [h] for super-adiab. cond. */
(PID.TID 0000.0001)                 5.000000000000000E+00
(PID.TID 0000.0001)     ;
(PID.TID 0000.0001) AIM_VDI: RHGRAD =   /* max gradient of rel.humidity (d_RH/d_sigma)*/
(PID.TID 0000.0001)                 5.000000000000000E-01
(PID.TID 0000.0001)     ;
(PID.TID 0000.0001) AIM_VDI: RHGRAD =   /* max grad. of dry static Energy(d_DSE/d_phi)*/
(PID.TID 0000.0001)                 5.000000000000000E-01
(PID.TID 0000.0001)     ;
(PID.TID 0000.0001)  MDSREADFIELD: opening global file: landFrc.cpl_FM.bin
(PID.TID 0000.0001)  LAND_READPARMS: opening data.land
(PID.TID 0000.0001)  OPEN_COPY_DATA_FILE: opening file data.land
(PID.TID 0000.0001) // =======================================================
(PID.TID 0000.0001) // Parameter file "data.land"
(PID.TID 0000.0001) // =======================================================
(PID.TID 0000.0001) ># Land package parameters:
(PID.TID 0000.0001) >
(PID.TID 0000.0001) >#--  Land model parameter (namelist LAND_MODEL_PAR):
(PID.TID 0000.0001) >#     land_calc_grT  :: step forward ground Temperature
(PID.TID 0000.0001) >#     land_calc_grW  :: step forward soil moiture
(PID.TID 0000.0001) >#     land_impl_grT  :: solve ground Temperature implicitly
(PID.TID 0000.0001) >#     land_calc_snow :: step forward snow thickness
(PID.TID 0000.0001) >#     land_calc_alb  :: compute albedo of snow over land
(PID.TID 0000.0001) >#     land_oldPickup :: restart from an old pickup (=before checkpoint 52l)
(PID.TID 0000.0001) >#     land_grT_iniFile  :: File containing initial ground Temp.
(PID.TID 0000.0001) >#     land_grW_iniFile  :: File containing initial ground Water.
(PID.TID 0000.0001) >#     land_snow_iniFile :: File containing initial snow thickness.
(PID.TID 0000.0001) >#     land_deltaT   :: land model time-step
(PID.TID 0000.0001) >#     land_taveFreq :: Frequency^-1 for time-Aver. output (s)
(PID.TID 0000.0001) >#     land_diagFreq :: Frequency^-1 for diagnostic output (s)
(PID.TID 0000.0001) >#     land_monFreq  :: Frequency^-1 for monitor    output (s)
(PID.TID 0000.0001) >#     land_dzF      :: layer thickness
(PID.TID 0000.0001) > &LAND_MODEL_PAR
(PID.TID 0000.0001) ># land_calc_grT =.FALSE.,
(PID.TID 0000.0001) ># land_calc_grW =.FALSE.,
(PID.TID 0000.0001) ># land_impl_grT =.FALSE.,
(PID.TID 0000.0001) ># land_calc_snow=.FALSE.,
(PID.TID 0000.0001) ># land_calc_alb =.FALSE.,
(PID.TID 0000.0001) >  land_grT_iniFile='land_grT_ini.cpl.bin',
(PID.TID 0000.0001) >  land_grW_iniFile='land_grW_ini.mn.bin',
(PID.TID 0000.0001) >  land_snow_iniFile='land_snw_ini.cpl.bin',
(PID.TID 0000.0001) ># land_oldPickup=.TRUE.,
(PID.TID 0000.0001) >  land_dzF= 0.1, 4.0,
(PID.TID 0000.0001) ># land_diagFreq=2592000.,
(PID.TID 0000.0001) > &
(PID.TID 0000.0001) >
(PID.TID 0000.0001) >#--  Physical constants (namelist LAND_PHYS_PAR):
(PID.TID 0000.0001) >#     land_grdLambda  :: Thermal conductivity of the ground (W/m/K)
(PID.TID 0000.0001) >#     land_heatCs     :: Heat capacity of dry soil (J/m3/K)
(PID.TID 0000.0001) >#     land_CpWater    :: Heat capacity of water    (J/kg/K)
(PID.TID 0000.0001) >#     land_wTauDiff   :: soil moisture diffusion time scale
(PID.TID 0000.0001) >#     land_waterCap   :: field capacity per meter of soil
(PID.TID 0000.0001) >#     land_fractRunOff:: fraction of water in excess which run-off
(PID.TID 0000.0001) >#     land_rhoLiqW    :: density of liquid water (kg/m3)
(PID.TID 0000.0001) >#     land_rhoSnow    :: density of snow (kg/m3)
(PID.TID 0000.0001) >#     land_Lfreez     :: Latent heat of freezing (J/kg)
(PID.TID 0000.0001) >#     land_hMaxSnow   :: Maximum snow-thickness  (m)
(PID.TID 0000.0001) >#     diffKsnow       :: thermal conductivity of snow (W/m/K)
(PID.TID 0000.0001) >#     timeSnowAge     :: snow aging time scale   (s)
(PID.TID 0000.0001) >#     hNewSnowAge     :: new snow thickness that refresh the snow-age (by 1/e)
(PID.TID 0000.0001) >#     albColdSnow     :: albedo of cold (=dry) new snow (Tsfc < -10)
(PID.TID 0000.0001) >#     albWarmSnow     :: albedo of warm (=wet) new snow (Tsfc = 0)
(PID.TID 0000.0001) >#     albOldSnow      :: albedo of old snow (snowAge > 35.d)
(PID.TID 0000.0001) >#     hAlbSnow        :: snow thickness for albedo transition: snow/ground
(PID.TID 0000.0001) > &LAND_PHYS_PAR
(PID.TID 0000.0001) ># land_Lfreez=0.,
(PID.TID 0000.0001) >  land_hMaxSnow=10.,
(PID.TID 0000.0001) > &
(PID.TID 0000.0001) 
(PID.TID 0000.0001)  LAND_READPARMS: finished reading data.land
(PID.TID 0000.0001) 
(PID.TID 0000.0001) // ===================================
(PID.TID 0000.0001) // Land package parameters :
(PID.TID 0000.0001) // ===================================
(PID.TID 0000.0001) land_calc_grT = /* step forward ground Temp. on/off flag */
(PID.TID 0000.0001)                   T
(PID.TID 0000.0001)     ;
(PID.TID 0000.0001) land_calc_grW = /* step forward soil moiture on/off flag */
(PID.TID 0000.0001)                   T
(PID.TID 0000.0001)     ;
(PID.TID 0000.0001) land_impl_grT = /* solve ground temperature implicitly */
(PID.TID 0000.0001)                   T
(PID.TID 0000.0001)     ;
(PID.TID 0000.0001) land_calc_snow = /* step forward snow thickness */
(PID.TID 0000.0001)                   T
(PID.TID 0000.0001)     ;
(PID.TID 0000.0001) land_calc_alb = /* compute land+snow albedo */
(PID.TID 0000.0001)                   T
(PID.TID 0000.0001)     ;
(PID.TID 0000.0001) land_grT_iniFile = /* Initial ground-Temp Input-File */
(PID.TID 0000.0001)                 land_grT_ini.cpl.bin
(PID.TID 0000.0001)     ;
(PID.TID 0000.0001) land_grW_iniFile = /* Initial soil-Water Input-File */
(PID.TID 0000.0001)                 land_grW_ini.mn.bin
(PID.TID 0000.0001)     ;
(PID.TID 0000.0001) land_snow_iniFile= /* Initial snow thickness Input-File */
(PID.TID 0000.0001)                 land_grW_ini.mn.bin
(PID.TID 0000.0001)     ;
(PID.TID 0000.0001) land_deltaT = /* land model Time-Step (s) */
(PID.TID 0000.0001)                 4.500000000000000E+02
(PID.TID 0000.0001)     ;
(PID.TID 0000.0001) land_taveFreq = /* Frequency^-1 for time-Aver. output (s) */
(PID.TID 0000.0001)                 2.592000000000000E+06
(PID.TID 0000.0001)     ;
(PID.TID 0000.0001) land_diagFreq = /* Frequency^-1 for diagnostic output (s) */
(PID.TID 0000.0001)                 2.592000000000000E+06
(PID.TID 0000.0001)     ;
(PID.TID 0000.0001) land_monFreq = /* Frequency^-1 for monitor output (s) */
(PID.TID 0000.0001)                 2.592000000000000E+06
(PID.TID 0000.0001)     ;
(PID.TID 0000.0001) land_dzF = /* layer thickness ( m ) */
(PID.TID 0000.0001)                 1.000000000000000E-01,      /* K =  1 */
(PID.TID 0000.0001)                 4.000000000000000E+00       /* K =  2 */
(PID.TID 0000.0001)     ;
(PID.TID 0000.0001) land_rec_dzC= /* recip. vertical spacing (m-1) */
(PID.TID 0000.0001)                 2.000000000000000E+01,      /* K =  1 */
(PID.TID 0000.0001)                 4.878048780487805E-01       /* K =  2 */
(PID.TID 0000.0001)     ;
(PID.TID 0000.0001) land_grdLambda = /* Thermal conductivity of the ground (W/m/K)*/
(PID.TID 0000.0001)                 4.200000000000001E-01
(PID.TID 0000.0001)     ;
(PID.TID 0000.0001) land_heatCs = /* Heat capacity of dry soil (J/m3/K) */
(PID.TID 0000.0001)                 1.130000000000000E+06
(PID.TID 0000.0001)     ;
(PID.TID 0000.0001) land_CpWater = /* Heat capacity of water    (J/kg/K) */
(PID.TID 0000.0001)                 4.200000000000001E+03
(PID.TID 0000.0001)     ;
(PID.TID 0000.0001) land_wTauDiff = /* soil moisture diffusion time scale (s) */
(PID.TID 0000.0001)                 1.728000000000000E+05
(PID.TID 0000.0001)     ;
(PID.TID 0000.0001) land_waterCap = /* field capacity per meter of soil (1) */
(PID.TID 0000.0001)                 2.400000000000000E-01
(PID.TID 0000.0001)     ;
(PID.TID 0000.0001) land_fractRunOff= /* fraction of water in excess which run-off */
(PID.TID 0000.0001)                 5.000000000000000E-01
(PID.TID 0000.0001)     ;
(PID.TID 0000.0001) land_rhoLiqW = /* density of liquid water (kg/m3) */
(PID.TID 0000.0001)                 1.000000000000000E+03
(PID.TID 0000.0001)     ;
(PID.TID 0000.0001) land_rhoSnow = /* density of snow (kg/m3) */
(PID.TID 0000.0001)                 3.300000000000000E+02
(PID.TID 0000.0001)     ;
(PID.TID 0000.0001) land_Lfreez = /* Latent heat of freezing (J/kg) */
(PID.TID 0000.0001)                 3.340000000000000E+05
(PID.TID 0000.0001)     ;
(PID.TID 0000.0001) land_hMaxSnow = /* maximum snow-thickness (m) */
(PID.TID 0000.0001)                 1.000000000000000E+01
(PID.TID 0000.0001)     ;
(PID.TID 0000.0001) diffKsnow = /* thermal conductivity of snow (W/m/K) */
(PID.TID 0000.0001)                 3.000000000000000E-01
(PID.TID 0000.0001)     ;
(PID.TID 0000.0001) timeSnowAge = /* snow aging time scale   (s) */
(PID.TID 0000.0001)                 4.320000000000001E+06
(PID.TID 0000.0001)     ;
(PID.TID 0000.0001) hNewSnowAge = /* new snow thickness to refresh snow-age by 1/e */
(PID.TID 0000.0001)                 2.000000000000000E-03
(PID.TID 0000.0001)     ;
(PID.TID 0000.0001) albColdSnow = /* albedo of cold (=dry) new snow */
(PID.TID 0000.0001)                 8.500000000000000E-01
(PID.TID 0000.0001)     ;
(PID.TID 0000.0001) albWarmSnow = /* albedo of warm (=wet) new snow */
(PID.TID 0000.0001)                 7.000000000000000E-01
(PID.TID 0000.0001)     ;
(PID.TID 0000.0001) albOldSnow = /* albedo of old snow (snowAge >35.d)*/
(PID.TID 0000.0001)                 5.500000000000001E-01
(PID.TID 0000.0001)     ;
(PID.TID 0000.0001) hAlbSnow = /* snow depth for albedo transition */
(PID.TID 0000.0001)                 3.000000000000000E-01
(PID.TID 0000.0001)     ;
INI_P_GROUND: PhiRef/g [m] at Center (integer) and Interface (half-int.) levels:
  K=  0.5  ;  r=  100000.0  ;  phiRef/g=       0.000
  K=  1.0  ;  r=   95000.0  ;  phiRef/g=     431.199
  K=  1.5  ;  r=   90000.0  ;  phiRef/g=    1256.487
  K=  2.0  ;  r=   77500.0  ;  phiRef/g=    2105.998
  K=  2.5  ;  r=   65000.0  ;  phiRef/g=    3775.246
  K=  3.0  ;  r=   50000.0  ;  phiRef/g=    5536.327
  K=  3.5  ;  r=   35000.0  ;  phiRef/g=    7908.298
  K=  4.0  ;  r=   25000.0  ;  phiRef/g=   10440.915
  K=  4.5  ;  r=   15000.0  ;  phiRef/g=   13806.721
  K=  5.0  ;  r=    7500.0  ;  phiRef/g=   18190.889
  K=  5.5  ;  r=       0.0  ;  phiRef/g=   39547.504
(PID.TID 0000.0001) %MON fCori_max                    =   1.4535016908525E-04
(PID.TID 0000.0001) %MON fCori_min                    =  -1.4535016908525E-04
(PID.TID 0000.0001) %MON fCori_mean                   =   0.0000000000000E+00
(PID.TID 0000.0001) %MON fCori_sd                     =   8.3972192788621E-05
(PID.TID 0000.0001) %MON fCoriG_max                   =   1.4544410433286E-04
(PID.TID 0000.0001) %MON fCoriG_min                   =  -1.4544410433286E-04
(PID.TID 0000.0001) %MON fCoriG_mean                  =   0.0000000000000E+00
(PID.TID 0000.0001) %MON fCoriG_sd                    =   8.4860812167727E-05
(PID.TID 0000.0001) %MON fCoriCos_max                 =   1.4540341538469E-04
(PID.TID 0000.0001) %MON fCoriCos_min                 =   5.2264550201501E-06
(PID.TID 0000.0001) %MON fCoriCos_mean                =   1.1482595466044E-04
(PID.TID 0000.0001) %MON fCoriCos_sd                  =   3.0292878037194E-05
(PID.TID 0000.0001) // CG2D normalisation factor =          0.9911960384346745200900841E-05
(PID.TID 0000.0001) 
 ini_cg2d: sumArea,cg2dTolerance =  5.09904363781724E+14  1.12314485635777E-10
(PID.TID 0000.0001) CONFIG_CHECK: OK
(PID.TID 0000.0001) // =======================================================
(PID.TID 0000.0001) // Model configuration
(PID.TID 0000.0001) // =======================================================
(PID.TID 0000.0001) //
(PID.TID 0000.0001) // "Physical" paramters ( PARM01 in namelist )
(PID.TID 0000.0001) //
(PID.TID 0000.0001) buoyancyRelation = ATMOSPHERIC
(PID.TID 0000.0001) fluidIsAir  =  /* fluid major constituent is Air */
(PID.TID 0000.0001)                   T
(PID.TID 0000.0001)     ;
(PID.TID 0000.0001) fluidIsWater=  /* fuild major constituent is Water */
(PID.TID 0000.0001)                   F
(PID.TID 0000.0001)     ;
(PID.TID 0000.0001) usingPCoords =  /* use p (or p*) vertical coordinate */
(PID.TID 0000.0001)                   T
(PID.TID 0000.0001)     ;
(PID.TID 0000.0001) usingZCoords =  /* use z (or z*) vertical coordinate */
(PID.TID 0000.0001)                   F
(PID.TID 0000.0001)     ;
(PID.TID 0000.0001) tRef =   /* Reference temperature profile ( oC or oK ) */
(PID.TID 0000.0001)                 2.896000000000000E+02,      /* K =  1 */
(PID.TID 0000.0001)                 2.981000000000000E+02,      /* K =  2 */
(PID.TID 0000.0001)                 3.145000000000000E+02,      /* K =  3 */
(PID.TID 0000.0001)                 3.358000000000000E+02,      /* K =  4 */
(PID.TID 0000.0001)                 4.374000000000000E+02       /* K =  5 */
(PID.TID 0000.0001)     ;
(PID.TID 0000.0001) sRef =   /* Reference salinity profile ( ppt ) */
(PID.TID 0000.0001)     5 @  0.000000000000000E+00              /* K =  1:  5 */
(PID.TID 0000.0001)     ;
(PID.TID 0000.0001) viscAh =   /* Lateral eddy viscosity ( m^2/s ) */
(PID.TID 0000.0001)                 0.000000000000000E+00
(PID.TID 0000.0001)     ;
(PID.TID 0000.0001) viscAhMax =   /* Maximum lateral eddy viscosity ( m^2/s ) */
(PID.TID 0000.0001)                 1.000000000000000E+21
(PID.TID 0000.0001)     ;
(PID.TID 0000.0001) viscAhGrid =   /* Grid dependent lateral eddy viscosity ( non-dim. ) */
(PID.TID 0000.0001)                 0.000000000000000E+00
(PID.TID 0000.0001)     ;
(PID.TID 0000.0001) useFullLeith =   /* Use Full Form of Leith Viscosity on/off flag*/
(PID.TID 0000.0001)                   F
(PID.TID 0000.0001)     ;
(PID.TID 0000.0001) viscC2leith = /* Leith harmonic viscosity factor (on grad(vort),non-dim.) */
(PID.TID 0000.0001)                 0.000000000000000E+00
(PID.TID 0000.0001)     ;
(PID.TID 0000.0001) viscC2leithD = /* Leith harmonic viscosity factor (on grad(div),non-dim.) */
(PID.TID 0000.0001)                 0.000000000000000E+00
(PID.TID 0000.0001)     ;
(PID.TID 0000.0001) viscC2smag =   /* Smagorinsky harmonic viscosity factor (non-dim.) */
(PID.TID 0000.0001)                 0.000000000000000E+00
(PID.TID 0000.0001)     ;
(PID.TID 0000.0001) viscA4 =   /* Lateral biharmonic viscosity ( m^4/s ) */
(PID.TID 0000.0001)                 0.000000000000000E+00
(PID.TID 0000.0001)     ;
(PID.TID 0000.0001) viscA4Max =   /* Maximum biharmonic viscosity ( m^2/s ) */
(PID.TID 0000.0001)                 1.000000000000000E+21
(PID.TID 0000.0001)     ;
(PID.TID 0000.0001) viscA4Grid =   /* Grid dependent biharmonic viscosity ( non-dim. ) */
(PID.TID 0000.0001)                 0.000000000000000E+00
(PID.TID 0000.0001)     ;
(PID.TID 0000.0001) viscC4leith = /* Leith biharm viscosity factor (on grad(vort), non-dim.) */
(PID.TID 0000.0001)                 0.000000000000000E+00
(PID.TID 0000.0001)     ;
(PID.TID 0000.0001) viscC4leithD = /* Leith biharm viscosity factor (on grad(div), non-dim.) */
(PID.TID 0000.0001)                 0.000000000000000E+00
(PID.TID 0000.0001)     ;
(PID.TID 0000.0001) no_slip_sides =  /* Viscous BCs: No-slip sides */
(PID.TID 0000.0001)                   F
(PID.TID 0000.0001)     ;
(PID.TID 0000.0001) viscAr =   /* Vertical eddy viscosity ( units of r^2/s ) */
(PID.TID 0000.0001)                 0.000000000000000E+00
(PID.TID 0000.0001)     ;
(PID.TID 0000.0001) no_slip_bottom =  /* Viscous BCs: No-slip bottom */
(PID.TID 0000.0001)                   F
(PID.TID 0000.0001)     ;
(PID.TID 0000.0001) diffKhT =   /* Laplacian diffusion of heat laterally ( m^2/s ) */
(PID.TID 0000.0001)                 0.000000000000000E+00
(PID.TID 0000.0001)     ;
(PID.TID 0000.0001) diffK4T =   /* Bihaarmonic diffusion of heat laterally ( m^4/s ) */
(PID.TID 0000.0001)                 0.000000000000000E+00
(PID.TID 0000.0001)     ;
(PID.TID 0000.0001) diffKhS =   /* Laplacian diffusion of salt laterally ( m^2/s ) */
(PID.TID 0000.0001)                 0.000000000000000E+00
(PID.TID 0000.0001)     ;
(PID.TID 0000.0001) diffK4S =   /* Bihaarmonic diffusion of salt laterally ( m^4/s ) */
(PID.TID 0000.0001)                 0.000000000000000E+00
(PID.TID 0000.0001)     ;
(PID.TID 0000.0001) diffKrNrT = /* vertical profile of vertical diffusion of Temp ( m^2/s )*/
(PID.TID 0000.0001)     5 @  0.000000000000000E+00              /* K =  1:  5 */
(PID.TID 0000.0001)     ;
(PID.TID 0000.0001) diffKrNrS = /* vertical profile of vertical diffusion of Salt ( m^2/s )*/
(PID.TID 0000.0001)     5 @  0.000000000000000E+00              /* K =  1:  5 */
(PID.TID 0000.0001)     ;
(PID.TID 0000.0001) diffKrBL79surf =   /* Surface diffusion for Bryan and Lewis 1979 ( m^2/s ) */
(PID.TID 0000.0001)                 0.000000000000000E+00
(PID.TID 0000.0001)     ;
(PID.TID 0000.0001) diffKrBL79deep =   /* Deep diffusion for Bryan and Lewis 1979 ( m^2/s ) */
(PID.TID 0000.0001)                 0.000000000000000E+00
(PID.TID 0000.0001)     ;
(PID.TID 0000.0001) diffKrBL79scl =   /* Depth scale for Bryan and Lewis 1979 ( m ) */
(PID.TID 0000.0001)                 2.000000000000000E+02
(PID.TID 0000.0001)     ;
(PID.TID 0000.0001) diffKrBL79Ho =   /* Turning depth for Bryan and Lewis 1979 ( m ) */
(PID.TID 0000.0001)                -2.000000000000000E+03
(PID.TID 0000.0001)     ;
(PID.TID 0000.0001)  Equation of State : eosType = IDEALG
(PID.TID 0000.0001) tAlpha =   /* Linear EOS thermal expansion coefficient ( 1/degree ) */
(PID.TID 0000.0001)                 1.234567000000000E+05
(PID.TID 0000.0001)     ;
(PID.TID 0000.0001) sBeta =   /* Linear EOS haline contraction coefficient ( 1/ppt ) */
(PID.TID 0000.0001)                 1.234567000000000E+05
(PID.TID 0000.0001)     ;
(PID.TID 0000.0001) atm_Rd =  /* gas constant for dry air ( J/kg/K ) */
(PID.TID 0000.0001)                 2.868571428571428E+02
(PID.TID 0000.0001)     ;
(PID.TID 0000.0001) atm_Cp =  /* specific heat (Cp) of dry air ( J/kg/K ) */
(PID.TID 0000.0001)                 1.004000000000000E+03
(PID.TID 0000.0001)     ;
(PID.TID 0000.0001) atm_kappa =  /* kappa (=Rd/Cp ) of dry air */
(PID.TID 0000.0001)                 2.857142857142857E-01
(PID.TID 0000.0001)     ;
(PID.TID 0000.0001) atm_Rq = /* water vap. specific vol. anomaly relative to dry air */
(PID.TID 0000.0001)                 6.078000000000001E-04
(PID.TID 0000.0001)     ;
(PID.TID 0000.0001) atm_Po =  /* standard reference pressure ( Pa ) */
(PID.TID 0000.0001)                 1.000000000000000E+05
(PID.TID 0000.0001)     ;
(PID.TID 0000.0001) integr_GeoPot =  /* select how the geopotential is integrated */
(PID.TID 0000.0001)                       2
(PID.TID 0000.0001)     ;
(PID.TID 0000.0001) selectFindRoSurf=  /* select how Surf.Ref. pressure is defined */
(PID.TID 0000.0001)                       1
(PID.TID 0000.0001)     ;
(PID.TID 0000.0001) rhonil =   /* Reference density ( kg/m^3 ) */
(PID.TID 0000.0001)                 1.000000000000000E+00
(PID.TID 0000.0001)     ;
(PID.TID 0000.0001) rhoConst =   /* Reference density ( kg/m^3 ) */
(PID.TID 0000.0001)                 1.000000000000000E+00
(PID.TID 0000.0001)     ;
(PID.TID 0000.0001) rhoConstFresh =   /* Reference density ( kg/m^3 ) */
(PID.TID 0000.0001)                 1.000000000000000E+03
(PID.TID 0000.0001)     ;
(PID.TID 0000.0001) gravity =   /* Gravitational acceleration ( m/s^2 ) */
(PID.TID 0000.0001)                 9.810000000000000E+00
(PID.TID 0000.0001)     ;
(PID.TID 0000.0001) gBaro =   /* Barotropic gravity ( m/s^2 ) */
(PID.TID 0000.0001)                 9.810000000000000E+00
(PID.TID 0000.0001)     ;
(PID.TID 0000.0001) rotationPeriod =   /* Rotation Period ( s ) */
(PID.TID 0000.0001)                 8.640000000000000E+04
(PID.TID 0000.0001)     ;
(PID.TID 0000.0001) omega =   /* Angular velocity ( rad/s ) */
(PID.TID 0000.0001)                 7.272205216643039E-05
(PID.TID 0000.0001)     ;
(PID.TID 0000.0001) f0 =   /* Reference coriolis parameter ( 1/s ) */
(PID.TID 0000.0001)                 1.000000000000000E-04
(PID.TID 0000.0001)     ;
(PID.TID 0000.0001) beta =   /* Beta ( 1/(m.s) ) */
(PID.TID 0000.0001)                 1.000000000000000E-11
(PID.TID 0000.0001)     ;
(PID.TID 0000.0001) freeSurfFac =   /* Implicit free surface factor */
(PID.TID 0000.0001)                 1.000000000000000E+00
(PID.TID 0000.0001)     ;
(PID.TID 0000.0001) implicitFreeSurface =   /* Implicit free surface on/off flag */
(PID.TID 0000.0001)                   T
(PID.TID 0000.0001)     ;
(PID.TID 0000.0001) rigidLid =   /* Rigid lid on/off flag */
(PID.TID 0000.0001)                   F
(PID.TID 0000.0001)     ;
(PID.TID 0000.0001) implicSurfPress =   /* Surface Pressure implicit factor (0-1)*/
(PID.TID 0000.0001)                 1.000000000000000E+00
(PID.TID 0000.0001)     ;
(PID.TID 0000.0001) implicDiv2Dflow =   /* Barot. Flow Div. implicit factor (0-1)*/
(PID.TID 0000.0001)                 1.000000000000000E+00
(PID.TID 0000.0001)     ;
(PID.TID 0000.0001) exactConserv =   /* Exact Volume Conservation on/off flag*/
(PID.TID 0000.0001)                   T
(PID.TID 0000.0001)     ;
(PID.TID 0000.0001) uniformLin_PhiSurf =   /* use uniform Bo_surf on/off flag*/
(PID.TID 0000.0001)                   F
(PID.TID 0000.0001)     ;
(PID.TID 0000.0001) nonlinFreeSurf =   /* Non-linear Free Surf. options (-1,0,1,2,3)*/
(PID.TID 0000.0001)                       4
(PID.TID 0000.0001)     ;
(PID.TID 0000.0001)      -1,0= Off ; 1,2,3= On, 2=+rescale gU,gV, 3=+update cg2d solv.
(PID.TID 0000.0001) hFacInf =   /* lower threshold for hFac (nonlinFreeSurf only)*/
(PID.TID 0000.0001)                 2.000000000000000E-01
(PID.TID 0000.0001)     ;
(PID.TID 0000.0001) hFacSup =   /* upper threshold for hFac (nonlinFreeSurf only)*/
(PID.TID 0000.0001)                 2.000000000000000E+00
(PID.TID 0000.0001)     ;
(PID.TID 0000.0001) select_rStar =   /* r* Coordinate options (not yet implemented)*/
(PID.TID 0000.0001)                       2
(PID.TID 0000.0001)     ;
(PID.TID 0000.0001) useRealFreshWaterFlux =   /* Real Fresh Water Flux on/off flag*/
(PID.TID 0000.0001)                   F
(PID.TID 0000.0001)     ;
(PID.TID 0000.0001) convertFW2Salt = /* convert F.W. Flux to Salt Flux (-1=use local S)(ppt)*/
(PID.TID 0000.0001)                 3.500000000000000E+01
(PID.TID 0000.0001)     ;
(PID.TID 0000.0001) nonHydrostatic =  /* Non-Hydrostatic on/off flag */
(PID.TID 0000.0001)                   F
(PID.TID 0000.0001)     ;
(PID.TID 0000.0001) momStepping =  /* Momentum equation on/off flag */
(PID.TID 0000.0001)                   T
(PID.TID 0000.0001)     ;
(PID.TID 0000.0001) momAdvection =  /* Momentum advection on/off flag */
(PID.TID 0000.0001)                   T
(PID.TID 0000.0001)     ;
(PID.TID 0000.0001) momViscosity =  /* Momentum viscosity on/off flag */
(PID.TID 0000.0001)                   T
(PID.TID 0000.0001)     ;
(PID.TID 0000.0001) momImplVertAdv =/* Momentum implicit vert. advection on/off*/
(PID.TID 0000.0001)                   F
(PID.TID 0000.0001)     ;
(PID.TID 0000.0001) implicitViscosity = /* Implicit viscosity on/off flag */
(PID.TID 0000.0001)                   F
(PID.TID 0000.0001)     ;
(PID.TID 0000.0001) useCoriolis =  /* Coriolis on/off flag */
(PID.TID 0000.0001)                   T
(PID.TID 0000.0001)     ;
(PID.TID 0000.0001) useCDscheme =  /* CD scheme on/off flag */
(PID.TID 0000.0001)                   F
(PID.TID 0000.0001)     ;
(PID.TID 0000.0001) useJamartWetPoints= /* Coriolis WetPoints method flag */
(PID.TID 0000.0001)                   T
(PID.TID 0000.0001)     ;
(PID.TID 0000.0001) useJamartMomAdv= /* V.I. Non-linear terms Jamart flag */
(PID.TID 0000.0001)                   F
(PID.TID 0000.0001)     ;
(PID.TID 0000.0001) SadournyCoriolis= /* Sadourny Coriolis discr. flag */
(PID.TID 0000.0001)                   F
(PID.TID 0000.0001)     ;
(PID.TID 0000.0001) upwindVorticity= /* Upwind bias vorticity flag */
(PID.TID 0000.0001)                   F
(PID.TID 0000.0001)     ;
(PID.TID 0000.0001) useAbsVorticity= /* Work with f+zeta in Coriolis */
(PID.TID 0000.0001)                   F
(PID.TID 0000.0001)     ;
(PID.TID 0000.0001) highOrderVorticity= /* High order interp. of vort. flag */
(PID.TID 0000.0001)                   F
(PID.TID 0000.0001)     ;
(PID.TID 0000.0001) upwindShear= /* Upwind vertical Shear advection flag */
(PID.TID 0000.0001)                   F
(PID.TID 0000.0001)     ;
(PID.TID 0000.0001) momForcing =  /* Momentum forcing on/off flag */
(PID.TID 0000.0001)                   T
(PID.TID 0000.0001)     ;
(PID.TID 0000.0001) momPressureForcing =  /* Momentum pressure term on/off flag */
(PID.TID 0000.0001)                   T
(PID.TID 0000.0001)     ;
(PID.TID 0000.0001) staggerTimeStep =   /* Stagger time stepping on/off flag */
(PID.TID 0000.0001)                   T
(PID.TID 0000.0001)     ;
(PID.TID 0000.0001) multiDimAdvection =   /* enable/disable Multi-Dim Advection */
(PID.TID 0000.0001)                   T
(PID.TID 0000.0001)     ;
(PID.TID 0000.0001) useMultiDimAdvec =   /* Multi-Dim Advection is/is-not used */
(PID.TID 0000.0001)                   F
(PID.TID 0000.0001)     ;
(PID.TID 0000.0001) implicitDiffusion =/* Implicit Diffusion on/off flag */
(PID.TID 0000.0001)                   F
(PID.TID 0000.0001)     ;
(PID.TID 0000.0001) tempStepping =  /* Temperature equation on/off flag */
(PID.TID 0000.0001)                   T
(PID.TID 0000.0001)     ;
(PID.TID 0000.0001) tempAdvection=  /* Temperature advection on/off flag */
(PID.TID 0000.0001)                   T
(PID.TID 0000.0001)     ;
(PID.TID 0000.0001) tempImplVertAdv =/* Temp. implicit vert. advection on/off */
(PID.TID 0000.0001)                   F
(PID.TID 0000.0001)     ;
(PID.TID 0000.0001) tempForcing  =  /* Temperature forcing on/off flag */
(PID.TID 0000.0001)                   T
(PID.TID 0000.0001)     ;
(PID.TID 0000.0001) saltStepping =  /* Salinity equation on/off flag */
(PID.TID 0000.0001)                   T
(PID.TID 0000.0001)     ;
(PID.TID 0000.0001) saltAdvection=  /* Salinity advection on/off flag */
(PID.TID 0000.0001)                   T
(PID.TID 0000.0001)     ;
(PID.TID 0000.0001) saltImplVertAdv =/* Sali. implicit vert. advection on/off */
(PID.TID 0000.0001)                   F
(PID.TID 0000.0001)     ;
(PID.TID 0000.0001) saltForcing  =  /* Salinity forcing on/off flag */
(PID.TID 0000.0001)                   T
(PID.TID 0000.0001)     ;
(PID.TID 0000.0001) //
(PID.TID 0000.0001) // Elliptic solver(s) paramters ( PARM02 in namelist )
(PID.TID 0000.0001) //
(PID.TID 0000.0001) cg2dMaxIters =   /* Upper limit on 2d con. grad iterations  */
(PID.TID 0000.0001)                     200
(PID.TID 0000.0001)     ;
(PID.TID 0000.0001) cg2dChkResFreq =   /* 2d con. grad convergence test frequency */
(PID.TID 0000.0001)                       1
(PID.TID 0000.0001)     ;
(PID.TID 0000.0001) cg2dTargetResidual =   /* 2d con. grad target residual  */
(PID.TID 0000.0001)                 1.000000000000000E-07
(PID.TID 0000.0001)     ;
(PID.TID 0000.0001) cg2dTargetResWunit =   /* CG2d target residual [W units] */
(PID.TID 0000.0001)                 1.000000000000000E-17
(PID.TID 0000.0001)     ;
(PID.TID 0000.0001) cg2dPreCondFreq =   /* Freq. for updating cg2d preconditioner */
(PID.TID 0000.0001)                       1
(PID.TID 0000.0001)     ;
(PID.TID 0000.0001) //
(PID.TID 0000.0001) // Time stepping paramters ( PARM03 in namelist )
(PID.TID 0000.0001) //
(PID.TID 0000.0001) nIter0 =   /* Run starting timestep number  */
(PID.TID 0000.0001)                       0
(PID.TID 0000.0001)     ;
(PID.TID 0000.0001) nTimeSteps =   /* Number of timesteps */
(PID.TID 0000.0001)                      40
(PID.TID 0000.0001)     ;
(PID.TID 0000.0001) deltatTmom =   /* Momentum equation timestep ( s ) */
(PID.TID 0000.0001)                 4.500000000000000E+02
(PID.TID 0000.0001)     ;
(PID.TID 0000.0001) deltaTfreesurf =   /* FreeSurface equation timestep ( s ) */
(PID.TID 0000.0001)                 4.500000000000000E+02
(PID.TID 0000.0001)     ;
(PID.TID 0000.0001) dTtracerLev =   /* Tracer equation timestep ( s ) */
(PID.TID 0000.0001)     5 @  4.500000000000000E+02              /* K =  1:  5 */
(PID.TID 0000.0001)     ;
(PID.TID 0000.0001) deltatTClock  =   /* Model clock timestep ( s ) */
(PID.TID 0000.0001)                 4.500000000000000E+02
(PID.TID 0000.0001)     ;
(PID.TID 0000.0001) cAdjFreq =   /* Convective adjustment interval ( s ) */
(PID.TID 0000.0001)                 0.000000000000000E+00
(PID.TID 0000.0001)     ;
(PID.TID 0000.0001) forcing_In_AB =   /* put T,S Forcing in Adams-Bash. stepping */
(PID.TID 0000.0001)                   F
(PID.TID 0000.0001)     ;
(PID.TID 0000.0001) abEps =   /* Adams-Bashforth-2 stabilizing weight */
(PID.TID 0000.0001)                 1.000000000000000E-01
(PID.TID 0000.0001)     ;
(PID.TID 0000.0001) baseTime =   /* Model base time ( s ). */
(PID.TID 0000.0001)                 0.000000000000000E+00
(PID.TID 0000.0001)     ;
(PID.TID 0000.0001) startTime =   /* Run start time ( s ). */
(PID.TID 0000.0001)                 0.000000000000000E+00
(PID.TID 0000.0001)     ;
(PID.TID 0000.0001) endTime =   /* Integration ending time ( s ). */
(PID.TID 0000.0001)                 1.800000000000000E+04
(PID.TID 0000.0001)     ;
(PID.TID 0000.0001) pChkPtFreq =   /* Permanent restart/checkpoint file interval ( s ). */
(PID.TID 0000.0001)                 2.592000000000000E+06
(PID.TID 0000.0001)     ;
(PID.TID 0000.0001) chkPtFreq =   /* Rolling restart/checkpoint file interval ( s ). */
(PID.TID 0000.0001)                 0.000000000000000E+00
(PID.TID 0000.0001)     ;
(PID.TID 0000.0001) pickup_write_mdsio =   /* Model IO flag. */
(PID.TID 0000.0001)                   T
(PID.TID 0000.0001)     ;
(PID.TID 0000.0001) pickup_read_mdsio =   /* Model IO flag. */
(PID.TID 0000.0001)                   T
(PID.TID 0000.0001)     ;
(PID.TID 0000.0001) pickup_write_mnc =   /* Model IO flag. */
(PID.TID 0000.0001)                   F
(PID.TID 0000.0001)     ;
(PID.TID 0000.0001) pickup_read_mnc =   /* Model IO flag. */
(PID.TID 0000.0001)                   F
(PID.TID 0000.0001)     ;
(PID.TID 0000.0001) pickup_write_immed =   /* Model IO flag. */
(PID.TID 0000.0001)                   F
(PID.TID 0000.0001)     ;
(PID.TID 0000.0001) dumpFreq =   /* Model state write out interval ( s ). */
(PID.TID 0000.0001)                 2.592000000000000E+06
(PID.TID 0000.0001)     ;
(PID.TID 0000.0001) snapshot_mdsio =   /* Model IO flag. */
(PID.TID 0000.0001)                   F
(PID.TID 0000.0001)     ;
(PID.TID 0000.0001) snapshot_mnc =   /* Model IO flag. */
(PID.TID 0000.0001)                   T
(PID.TID 0000.0001)     ;
(PID.TID 0000.0001) monitorFreq =   /* Monitor output interval ( s ). */
(PID.TID 0000.0001)                 1.000000000000000E+00
(PID.TID 0000.0001)     ;
(PID.TID 0000.0001) monitor_stdio =   /* Model IO flag. */
(PID.TID 0000.0001)                   T
(PID.TID 0000.0001)     ;
(PID.TID 0000.0001) monitor_mnc =   /* Model IO flag. */
(PID.TID 0000.0001)                   F
(PID.TID 0000.0001)     ;
(PID.TID 0000.0001) externForcingPeriod =   /* forcing period (s) */
(PID.TID 0000.0001)                 0.000000000000000E+00
(PID.TID 0000.0001)     ;
(PID.TID 0000.0001) externForcingCycle =   /* period of the cyle (s). */
(PID.TID 0000.0001)                 0.000000000000000E+00
(PID.TID 0000.0001)     ;
(PID.TID 0000.0001) tauThetaClimRelax =   /* relaxation time scale (s) */
(PID.TID 0000.0001)                 0.000000000000000E+00
(PID.TID 0000.0001)     ;
(PID.TID 0000.0001) tauSaltClimRelax =   /* relaxation time scale (s) */
(PID.TID 0000.0001)                 0.000000000000000E+00
(PID.TID 0000.0001)     ;
(PID.TID 0000.0001) latBandClimRelax =   /* max. Lat. where relaxation */
(PID.TID 0000.0001)                 1.800000000000000E+02
(PID.TID 0000.0001)     ;
(PID.TID 0000.0001) //
(PID.TID 0000.0001) // Gridding paramters ( PARM04 in namelist )
(PID.TID 0000.0001) //
(PID.TID 0000.0001) usingCartesianGrid =   /* Cartesian coordinates flag ( True / False ) */
(PID.TID 0000.0001)                   F
(PID.TID 0000.0001)     ;
(PID.TID 0000.0001) usingSphericalPolarGrid =   /* Spherical coordinates flag ( True / False ) */
(PID.TID 0000.0001)                   F
(PID.TID 0000.0001)     ;
(PID.TID 0000.0001) usingCylindricalGrid =   /* Spherical coordinates flag ( True / False ) */
(PID.TID 0000.0001)                   F
(PID.TID 0000.0001)     ;
(PID.TID 0000.0001) groundAtK1 =   /* Lower Boundary (ground) at the surface(k=1) ( T / F ) */
(PID.TID 0000.0001)                   T
(PID.TID 0000.0001)     ;
(PID.TID 0000.0001) Ro_SeaLevel =   /* r(1) ( units of r ) */
(PID.TID 0000.0001)                 1.000000000000000E+05
(PID.TID 0000.0001)     ;
(PID.TID 0000.0001) rkFac =   /* minus Vertical index orientation  */
(PID.TID 0000.0001)                 1.000000000000000E+00
(PID.TID 0000.0001)     ;
(PID.TID 0000.0001) horiVertRatio =   /* Ratio on units : Horiz - Vertical */
(PID.TID 0000.0001)                 9.810000000000000E+00
(PID.TID 0000.0001)     ;
(PID.TID 0000.0001) drC =   /* C spacing ( units of r ) */
(PID.TID 0000.0001)                 5.000000000000000E+03,      /* K =  1 */
(PID.TID 0000.0001)                 1.750000000000000E+04,      /* K =  2 */
(PID.TID 0000.0001)                 2.750000000000000E+04,      /* K =  3 */
(PID.TID 0000.0001)                 2.500000000000000E+04,      /* K =  4 */
(PID.TID 0000.0001)                 1.750000000000000E+04       /* K =  5 */
(PID.TID 0000.0001)     ;
(PID.TID 0000.0001) drF =   /* W spacing ( units of r ) */
(PID.TID 0000.0001)                 1.000000000000000E+04,      /* K =  1 */
(PID.TID 0000.0001)                 2.500000000000000E+04,      /* K =  2 */
(PID.TID 0000.0001)                 3.000000000000000E+04,      /* K =  3 */
(PID.TID 0000.0001)                 2.000000000000000E+04,      /* K =  4 */
(PID.TID 0000.0001)                 1.500000000000000E+04       /* K =  5 */
(PID.TID 0000.0001)     ;
(PID.TID 0000.0001) delX =   /* U spacing ( m - cartesian, degrees - spherical ) */
(PID.TID 0000.0001)   192 @  1.234567000000000E+05              /* I =  1:192 */
(PID.TID 0000.0001)     ;
(PID.TID 0000.0001) delY =   /* V spacing ( m - cartesian, degrees - spherical ) */
(PID.TID 0000.0001)    32 @  1.234567000000000E+05              /* J =  1: 32 */
(PID.TID 0000.0001)     ;
(PID.TID 0000.0001) phiMin =    /* South edge (ignored - cartesian, degrees - spherical ) */
(PID.TID 0000.0001)                 0.000000000000000E+00
(PID.TID 0000.0001)     ;
(PID.TID 0000.0001) thetaMin =    /* West edge ( ignored - cartesian, degrees - spherical ) */
(PID.TID 0000.0001)                 0.000000000000000E+00
(PID.TID 0000.0001)     ;
(PID.TID 0000.0001) rSphere =    /* Radius ( ignored - cartesian, m - spherical ) */
(PID.TID 0000.0001)                 6.370000000000001E+06
(PID.TID 0000.0001)     ;
(PID.TID 0000.0001) xcoord =   /* P-point X coord ( m - cartesian, degrees - spherical ) */
(PID.TID 0000.0001)                -4.439521994760536E+01,      /* I =  1 */
(PID.TID 0000.0001)                -4.295641272275884E+01,      /* I =  2 */
(PID.TID 0000.0001)                -4.122055553388957E+01,      /* I =  3 */
(PID.TID 0000.0001)                -3.923446288487304E+01,      /* I =  4 */
(PID.TID 0000.0001)                -3.702585158682200E+01,      /* I =  5 */
(PID.TID 0000.0001)                -3.461179367094151E+01,      /* I =  6 */
(PID.TID 0000.0001)                -3.200434569041793E+01,      /* I =  7 */
(PID.TID 0000.0001)                -2.921355965632675E+01,      /* I =  8 */
(PID.TID 0000.0001)                -2.624932223028290E+01,      /* I =  9 */
(PID.TID 0000.0001)                -2.312261250426344E+01,      /* I = 10 */
(PID.TID 0000.0001)                -1.984640717127058E+01,      /* I = 11 */
(PID.TID 0000.0001)                -1.643630800555134E+01,      /* I = 12 */
(PID.TID 0000.0001)                -1.291089806302069E+01,      /* I = 13 */
(PID.TID 0000.0001)                -9.291807802719402E+00,      /* I = 14 */
(PID.TID 0000.0001)                -5.603475335822333E+00,      /* I = 15 */
(PID.TID 0000.0001)                -1.872608513033445E+00,      /* I = 16 */
(PID.TID 0000.0001)                 1.872608513033445E+00,      /* I = 17 */
(PID.TID 0000.0001)                 5.603475335822333E+00,      /* I = 18 */
(PID.TID 0000.0001)                 9.291807802719402E+00,      /* I = 19 */
(PID.TID 0000.0001)                 1.291089806302069E+01,      /* I = 20 */
(PID.TID 0000.0001)                 1.643630800555134E+01,      /* I = 21 */
(PID.TID 0000.0001)                 1.984640717127058E+01,      /* I = 22 */
(PID.TID 0000.0001)                 2.312261250426344E+01,      /* I = 23 */
(PID.TID 0000.0001)                 2.624932223028290E+01,      /* I = 24 */
(PID.TID 0000.0001)                 2.921355965632675E+01,      /* I = 25 */
(PID.TID 0000.0001)                 3.200434569041793E+01,      /* I = 26 */
(PID.TID 0000.0001)                 3.461179367094151E+01,      /* I = 27 */
(PID.TID 0000.0001)                 3.702585158682200E+01,      /* I = 28 */
(PID.TID 0000.0001)                 3.923446288487304E+01,      /* I = 29 */
(PID.TID 0000.0001)                 4.122055553388957E+01,      /* I = 30 */
(PID.TID 0000.0001)                 4.295641272275884E+01,      /* I = 31 */
(PID.TID 0000.0001)                 4.439521994760536E+01,      /* I = 32 */
(PID.TID 0000.0001)                 4.560478005239465E+01,      /* I = 33 */
(PID.TID 0000.0001)                 4.704358727724117E+01,      /* I = 34 */
(PID.TID 0000.0001)                 4.877944446611044E+01,      /* I = 35 */
(PID.TID 0000.0001)                 5.076553711512698E+01,      /* I = 36 */
(PID.TID 0000.0001)                 5.297414841317801E+01,      /* I = 37 */
(PID.TID 0000.0001)                 5.538820632905850E+01,      /* I = 38 */
(PID.TID 0000.0001)                 5.799565430958209E+01,      /* I = 39 */
(PID.TID 0000.0001)                 6.078644034367326E+01,      /* I = 40 */
(PID.TID 0000.0001)                 6.375067776971712E+01,      /* I = 41 */
(PID.TID 0000.0001)                 6.687738749573658E+01,      /* I = 42 */
(PID.TID 0000.0001)                 7.015359282872943E+01,      /* I = 43 */
(PID.TID 0000.0001)                 7.356369199444867E+01,      /* I = 44 */
(PID.TID 0000.0001)                 7.708910193697932E+01,      /* I = 45 */
(PID.TID 0000.0001)                 8.070819219728059E+01,      /* I = 46 */
(PID.TID 0000.0001)                 8.439652466417767E+01,      /* I = 47 */
(PID.TID 0000.0001)                 8.812739148696655E+01,      /* I = 48 */
(PID.TID 0000.0001)                 9.187260851303344E+01,      /* I = 49 */
(PID.TID 0000.0001)                 9.560347533582234E+01,      /* I = 50 */
(PID.TID 0000.0001)                 9.929180780271941E+01,      /* I = 51 */
(PID.TID 0000.0001)                 1.029108980630207E+02,      /* I = 52 */
(PID.TID 0000.0001)                 1.064363080055513E+02,      /* I = 53 */
(PID.TID 0000.0001)                 1.098464071712706E+02,      /* I = 54 */
(PID.TID 0000.0001)                 1.131226125042634E+02,      /* I = 55 */
(PID.TID 0000.0001)                 1.162493222302829E+02,      /* I = 56 */
(PID.TID 0000.0001)                 1.192135596563268E+02,      /* I = 57 */
(PID.TID 0000.0001)                 1.220043456904179E+02,      /* I = 58 */
(PID.TID 0000.0001)                 1.246117936709415E+02,      /* I = 59 */
(PID.TID 0000.0001)                 1.270258515868220E+02,      /* I = 60 */
(PID.TID 0000.0001)                 1.292344628848730E+02,      /* I = 61 */
(PID.TID 0000.0001)                 1.312205555338896E+02,      /* I = 62 */
(PID.TID 0000.0001)                 1.329564127227588E+02,      /* I = 63 */
(PID.TID 0000.0001)                 1.343952199476053E+02,      /* I = 64 */
(PID.TID 0000.0001)                 4.500000000000000E+01,      /* I = 65 */
(PID.TID 0000.0001)                 4.620805468796298E+01,      /* I = 66 */
(PID.TID 0000.0001)                 4.781369642513039E+01,      /* I = 67 */
(PID.TID 0000.0001)                 4.971767671143930E+01,      /* I = 68 */
(PID.TID 0000.0001)                 5.187738319787236E+01,      /* I = 69 */
(PID.TID 0000.0001)                 5.427004371478711E+01,      /* I = 70 */
(PID.TID 0000.0001)                 5.688128325334060E+01,      /* I = 71 */
(PID.TID 0000.0001)                 5.970018167786761E+01,      /* I = 72 */
(PID.TID 0000.0001)                 6.271654991792348E+01,      /* I = 73 */
(PID.TID 0000.0001)                 6.591914604853016E+01,      /* I = 74 */
(PID.TID 0000.0001)                 6.929439270484150E+01,      /* I = 75 */
(PID.TID 0000.0001)                 7.282545807616152E+01,      /* I = 76 */
(PID.TID 0000.0001)                 7.649168830618934E+01,      /* I = 77 */
(PID.TID 0000.0001)                 8.026842803787175E+01,      /* I = 78 */
(PID.TID 0000.0001)                 8.412726743124185E+01,      /* I = 79 */
(PID.TID 0000.0001)                 8.803672008547504E+01,      /* I = 80 */
(PID.TID 0000.0001)                 9.196327991452497E+01,      /* I = 81 */
(PID.TID 0000.0001)                 9.587273256875816E+01,      /* I = 82 */
(PID.TID 0000.0001)                 9.973157196212824E+01,      /* I = 83 */
(PID.TID 0000.0001)                 1.035083116938107E+02,      /* I = 84 */
(PID.TID 0000.0001)                 1.071745419238385E+02,      /* I = 85 */
(PID.TID 0000.0001)                 1.107056072951585E+02,      /* I = 86 */
(PID.TID 0000.0001)                 1.140808539514698E+02,      /* I = 87 */
(PID.TID 0000.0001)                 1.172834500820765E+02,      /* I = 88 */
(PID.TID 0000.0001)                 1.202998183221324E+02,      /* I = 89 */
(PID.TID 0000.0001)                 1.231187167466594E+02,      /* I = 90 */
(PID.TID 0000.0001)                 1.257299562852129E+02,      /* I = 91 */
(PID.TID 0000.0001)                 1.281226168021277E+02,      /* I = 92 */
(PID.TID 0000.0001)                 1.302823232885607E+02,      /* I = 93 */
(PID.TID 0000.0001)                 1.321863035748696E+02,      /* I = 94 */
(PID.TID 0000.0001)                 1.337919453120370E+02,      /* I = 95 */
(PID.TID 0000.0001)                 1.350000000000000E+02,      /* I = 96 */
(PID.TID 0000.0001)                 1.356047800523947E+02,      /* I = 97 */
(PID.TID 0000.0001)                 1.358367907661329E+02,      /* I = 98 */
(PID.TID 0000.0001)                 1.359720382181193E+02,      /* I = 99 */
(PID.TID 0000.0001)                 1.360654656901789E+02,      /* I =100 */
(PID.TID 0000.0001)                 1.361344533147042E+02,      /* I =101 */
(PID.TID 0000.0001)                 1.361871219420981E+02,      /* I =102 */
(PID.TID 0000.0001)                 1.362280794509603E+02,      /* I =103 */
(PID.TID 0000.0001)                 1.362602511071934E+02,      /* I =104 */
(PID.TID 0000.0001)                 1.362856280326734E+02,      /* I =105 */
(PID.TID 0000.0001)                 1.363056266270901E+02,      /* I =106 */
(PID.TID 0000.0001)                 1.363212817739446E+02,      /* I =107 */
(PID.TID 0000.0001)                 1.363333595910255E+02,      /* I =108 */
(PID.TID 0000.0001)                 1.363424272425760E+02,      /* I =109 */
(PID.TID 0000.0001)                 1.363488978790713E+02,      /* I =110 */
(PID.TID 0000.0001)                 1.363530600590580E+02,      /* I =111 */
(PID.TID 0000.0001)     2 @  1.363550967500717E+02,             /* I =112:113 */
(PID.TID 0000.0001)                 1.363530600590580E+02,      /* I =114 */
(PID.TID 0000.0001)                 1.363488978790713E+02,      /* I =115 */
(PID.TID 0000.0001)                 1.363424272425760E+02,      /* I =116 */
(PID.TID 0000.0001)                 1.363333595910255E+02,      /* I =117 */
(PID.TID 0000.0001)                 1.363212817739446E+02,      /* I =118 */
(PID.TID 0000.0001)                 1.363056266270901E+02,      /* I =119 */
(PID.TID 0000.0001)                 1.362856280326734E+02,      /* I =120 */
(PID.TID 0000.0001)                 1.362602511071934E+02,      /* I =121 */
(PID.TID 0000.0001)                 1.362280794509603E+02,      /* I =122 */
(PID.TID 0000.0001)                 1.361871219420981E+02,      /* I =123 */
(PID.TID 0000.0001)                 1.361344533147042E+02,      /* I =124 */
(PID.TID 0000.0001)                 1.360654656901789E+02,      /* I =125 */
(PID.TID 0000.0001)                 1.359720382181193E+02,      /* I =126 */
(PID.TID 0000.0001)                 1.358367907661329E+02,      /* I =127 */
(PID.TID 0000.0001)                 1.356047800523947E+02,      /* I =128 */
(PID.TID 0000.0001)                -1.343952199476053E+02,      /* I =129 */
(PID.TID 0000.0001)                -1.341632092338671E+02,      /* I =130 */
(PID.TID 0000.0001)                -1.340279617818807E+02,      /* I =131 */
(PID.TID 0000.0001)                -1.339345343098211E+02,      /* I =132 */
(PID.TID 0000.0001)                -1.338655466852957E+02,      /* I =133 */
(PID.TID 0000.0001)                -1.338128780579019E+02,      /* I =134 */
(PID.TID 0000.0001)                -1.337719205490397E+02,      /* I =135 */
(PID.TID 0000.0001)                -1.337397488928066E+02,      /* I =136 */
(PID.TID 0000.0001)                -1.337143719673266E+02,      /* I =137 */
(PID.TID 0000.0001)                -1.336943733729099E+02,      /* I =138 */
(PID.TID 0000.0001)                -1.336787182260554E+02,      /* I =139 */
(PID.TID 0000.0001)                -1.336666404089745E+02,      /* I =140 */
(PID.TID 0000.0001)                -1.336575727574240E+02,      /* I =141 */
(PID.TID 0000.0001)                -1.336511021209287E+02,      /* I =142 */
(PID.TID 0000.0001)                -1.336469399409420E+02,      /* I =143 */
(PID.TID 0000.0001)     2 @ -1.336449032499283E+02,             /* I =144:145 */
(PID.TID 0000.0001)                -1.336469399409420E+02,      /* I =146 */
(PID.TID 0000.0001)                -1.336511021209287E+02,      /* I =147 */
(PID.TID 0000.0001)                -1.336575727574240E+02,      /* I =148 */
(PID.TID 0000.0001)                -1.336666404089745E+02,      /* I =149 */
(PID.TID 0000.0001)                -1.336787182260554E+02,      /* I =150 */
(PID.TID 0000.0001)                -1.336943733729099E+02,      /* I =151 */
(PID.TID 0000.0001)                -1.337143719673266E+02,      /* I =152 */
(PID.TID 0000.0001)                -1.337397488928066E+02,      /* I =153 */
(PID.TID 0000.0001)                -1.337719205490397E+02,      /* I =154 */
(PID.TID 0000.0001)                -1.338128780579019E+02,      /* I =155 */
(PID.TID 0000.0001)                -1.338655466852957E+02,      /* I =156 */
(PID.TID 0000.0001)                -1.339345343098211E+02,      /* I =157 */
(PID.TID 0000.0001)                -1.340279617818807E+02,      /* I =158 */
(PID.TID 0000.0001)                -1.341632092338671E+02,      /* I =159 */
(PID.TID 0000.0001)                -1.343952199476053E+02,      /* I =160 */
(PID.TID 0000.0001)                -1.350000000000000E+02,      /* I =161 */
(PID.TID 0000.0001)                -1.362080546879630E+02,      /* I =162 */
(PID.TID 0000.0001)                -1.378136964251304E+02,      /* I =163 */
(PID.TID 0000.0001)                -1.397176767114393E+02,      /* I =164 */
(PID.TID 0000.0001)                -1.418773831978723E+02,      /* I =165 */
(PID.TID 0000.0001)                -1.442700437147871E+02,      /* I =166 */
(PID.TID 0000.0001)                -1.468812832533406E+02,      /* I =167 */
(PID.TID 0000.0001)                -1.497001816778676E+02,      /* I =168 */
(PID.TID 0000.0001)                -1.527165499179235E+02,      /* I =169 */
(PID.TID 0000.0001)                -1.559191460485302E+02,      /* I =170 */
(PID.TID 0000.0001)                -1.592943927048415E+02,      /* I =171 */
(PID.TID 0000.0001)                -1.628254580761615E+02,      /* I =172 */
(PID.TID 0000.0001)                -1.664916883061893E+02,      /* I =173 */
(PID.TID 0000.0001)                -1.702684280378718E+02,      /* I =174 */
(PID.TID 0000.0001)                -1.741272674312418E+02,      /* I =175 */
(PID.TID 0000.0001)                -1.780367200854751E+02,      /* I =176 */
(PID.TID 0000.0001)                 1.780367200854751E+02,      /* I =177 */
(PID.TID 0000.0001)                 1.741272674312418E+02,      /* I =178 */
(PID.TID 0000.0001)                 1.702684280378718E+02,      /* I =179 */
(PID.TID 0000.0001)                 1.664916883061893E+02,      /* I =180 */
(PID.TID 0000.0001)                 1.628254580761615E+02,      /* I =181 */
(PID.TID 0000.0001)                 1.592943927048415E+02,      /* I =182 */
(PID.TID 0000.0001)                 1.559191460485302E+02,      /* I =183 */
(PID.TID 0000.0001)                 1.527165499179235E+02,      /* I =184 */
(PID.TID 0000.0001)                 1.497001816778676E+02,      /* I =185 */
(PID.TID 0000.0001)                 1.468812832533406E+02,      /* I =186 */
(PID.TID 0000.0001)                 1.442700437147871E+02,      /* I =187 */
(PID.TID 0000.0001)                 1.418773831978723E+02,      /* I =188 */
(PID.TID 0000.0001)                 1.397176767114393E+02,      /* I =189 */
(PID.TID 0000.0001)                 1.378136964251304E+02,      /* I =190 */
(PID.TID 0000.0001)                 1.362080546879630E+02,      /* I =191 */
(PID.TID 0000.0001)                 1.350000000000000E+02       /* I =192 */
(PID.TID 0000.0001)     ;
(PID.TID 0000.0001) ycoord =   /* P-point Y coord ( m - cartesian, degrees - spherical ) */
(PID.TID 0000.0001)                -3.497677942598243E+01,      /* J =  1 */
(PID.TID 0000.0001)                -3.374005967394886E+01,      /* J =  2 */
(PID.TID 0000.0001)                -3.220655175667455E+01,      /* J =  3 */
(PID.TID 0000.0001)                -3.045756348838640E+01,      /* J =  4 */
(PID.TID 0000.0001)                -2.853728129852918E+01,      /* J =  5 */
(PID.TID 0000.0001)                -2.647426640173173E+01,      /* J =  6 */
(PID.TID 0000.0001)                -2.428936657094636E+01,      /* J =  7 */
(PID.TID 0000.0001)                -2.199915808312262E+01,      /* J =  8 */
(PID.TID 0000.0001)                -1.961768597440146E+01,      /* J =  9 */
(PID.TID 0000.0001)                -1.715743888281371E+01,      /* J = 10 */
(PID.TID 0000.0001)                -1.462993396899330E+01,      /* J = 11 */
(PID.TID 0000.0001)                -1.204608340464756E+01,      /* J = 12 */
(PID.TID 0000.0001)                -9.416429130284818E+00,      /* J = 13 */
(PID.TID 0000.0001)                -6.751293662992217E+00,      /* J = 14 */
(PID.TID 0000.0001)                -4.060875511835959E+00,      /* J = 15 */
(PID.TID 0000.0001)                -1.355307764409121E+00,      /* J = 16 */
(PID.TID 0000.0001)                 1.355307764409121E+00,      /* J = 17 */
(PID.TID 0000.0001)                 4.060875511835959E+00,      /* J = 18 */
(PID.TID 0000.0001)                 6.751293662992217E+00,      /* J = 19 */
(PID.TID 0000.0001)                 9.416429130284818E+00,      /* J = 20 */
(PID.TID 0000.0001)                 1.204608340464756E+01,      /* J = 21 */
(PID.TID 0000.0001)                 1.462993396899330E+01,      /* J = 22 */
(PID.TID 0000.0001)                 1.715743888281371E+01,      /* J = 23 */
(PID.TID 0000.0001)                 1.961768597440146E+01,      /* J = 24 */
(PID.TID 0000.0001)                 2.199915808312262E+01,      /* J = 25 */
(PID.TID 0000.0001)                 2.428936657094636E+01,      /* J = 26 */
(PID.TID 0000.0001)                 2.647426640173173E+01,      /* J = 27 */
(PID.TID 0000.0001)                 2.853728129852918E+01,      /* J = 28 */
(PID.TID 0000.0001)                 3.045756348838640E+01,      /* J = 29 */
(PID.TID 0000.0001)                 3.220655175667455E+01,      /* J = 30 */
(PID.TID 0000.0001)                 3.374005967394886E+01,      /* J = 31 */
(PID.TID 0000.0001)                 3.497677942598243E+01       /* J = 32 */
(PID.TID 0000.0001)     ;
(PID.TID 0000.0001) rcoord =   /* P-point R coordinate (  units of r ) */
(PID.TID 0000.0001)                 9.500000000000000E+04,      /* K =  1 */
(PID.TID 0000.0001)                 7.750000000000000E+04,      /* K =  2 */
(PID.TID 0000.0001)                 5.000000000000000E+04,      /* K =  3 */
(PID.TID 0000.0001)                 2.500000000000000E+04,      /* K =  4 */
(PID.TID 0000.0001)                 7.500000000000000E+03       /* K =  5 */
(PID.TID 0000.0001)     ;
(PID.TID 0000.0001) rF =   /* W-Interf. R coordinate (  units of r ) */
(PID.TID 0000.0001)                 1.000000000000000E+05,      /* K =  1 */
(PID.TID 0000.0001)                 9.000000000000000E+04,      /* K =  2 */
(PID.TID 0000.0001)                 6.500000000000000E+04,      /* K =  3 */
(PID.TID 0000.0001)                 3.500000000000000E+04,      /* K =  4 */
(PID.TID 0000.0001)                 1.500000000000000E+04,      /* K =  5 */
(PID.TID 0000.0001)                 0.000000000000000E+00       /* K =  6 */
(PID.TID 0000.0001)     ;
(PID.TID 0000.0001) dxF =  /* dxF(:,1,:,1) ( m - cartesian, degrees - spherical ) */
(PID.TID 0000.0001)                 1.202082051331828E+05,      /* I =  1 */
(PID.TID 0000.0001)                 1.563594089971120E+05,      /* I =  2 */
(PID.TID 0000.0001)                 1.835530058121492E+05,      /* I =  3 */
(PID.TID 0000.0001)                 2.045883481718707E+05,      /* I =  4 */
(PID.TID 0000.0001)                 2.218350349844184E+05,      /* I =  5 */
(PID.TID 0000.0001)                 2.364352994647058E+05,      /* I =  6 */
(PID.TID 0000.0001)                 2.490022710862746E+05,      /* I =  7 */
(PID.TID 0000.0001)                 2.598919724358304E+05,      /* I =  8 */
(PID.TID 0000.0001)                 2.693210245495156E+05,      /* I =  9 */
(PID.TID 0000.0001)                 2.774243179696503E+05,      /* I = 10 */
(PID.TID 0000.0001)                 2.842862532064523E+05,      /* I = 11 */
(PID.TID 0000.0001)                 2.899590699694043E+05,      /* I = 12 */
(PID.TID 0000.0001)                 2.944742915095688E+05,      /* I = 13 */
(PID.TID 0000.0001)                 2.978501920522793E+05,      /* I = 14 */
(PID.TID 0000.0001)                 3.000967749619962E+05,      /* I = 15 */
(PID.TID 0000.0001)     2 @  3.012190981969054E+05,             /* I = 16: 17 */
(PID.TID 0000.0001)                 3.000967749619962E+05,      /* I = 18 */
(PID.TID 0000.0001)                 2.978501920522793E+05,      /* I = 19 */
(PID.TID 0000.0001)                 2.944742915095688E+05,      /* I = 20 */
(PID.TID 0000.0001)                 2.899590699694043E+05,      /* I = 21 */
(PID.TID 0000.0001)                 2.842862532064523E+05,      /* I = 22 */
(PID.TID 0000.0001)                 2.774243179696503E+05,      /* I = 23 */
(PID.TID 0000.0001)                 2.693210245495156E+05,      /* I = 24 */
(PID.TID 0000.0001)                 2.598919724358304E+05,      /* I = 25 */
(PID.TID 0000.0001)                 2.490022710862746E+05,      /* I = 26 */
(PID.TID 0000.0001)                 2.364352994647058E+05,      /* I = 27 */
(PID.TID 0000.0001)                 2.218350349844184E+05,      /* I = 28 */
(PID.TID 0000.0001)                 2.045883481718707E+05,      /* I = 29 */
(PID.TID 0000.0001)                 1.835530058121492E+05,      /* I = 30 */
(PID.TID 0000.0001)                 1.563594089971120E+05,      /* I = 31 */
(PID.TID 0000.0001)     2 @  1.202082051331828E+05,             /* I = 32: 33 */
(PID.TID 0000.0001)                 1.563594089971120E+05,      /* I = 34 */
(PID.TID 0000.0001)                 1.835530058121492E+05,      /* I = 35 */
(PID.TID 0000.0001)                 2.045883481718707E+05,      /* I = 36 */
(PID.TID 0000.0001)                 2.218350349844184E+05,      /* I = 37 */
(PID.TID 0000.0001)                 2.364352994647058E+05,      /* I = 38 */
(PID.TID 0000.0001)                 2.490022710862746E+05,      /* I = 39 */
(PID.TID 0000.0001)                 2.598919724358304E+05,      /* I = 40 */
(PID.TID 0000.0001)                 2.693210245495156E+05,      /* I = 41 */
(PID.TID 0000.0001)                 2.774243179696503E+05,      /* I = 42 */
(PID.TID 0000.0001)                 2.842862532064523E+05,      /* I = 43 */
(PID.TID 0000.0001)                 2.899590699694043E+05,      /* I = 44 */
(PID.TID 0000.0001)                 2.944742915095688E+05,      /* I = 45 */
(PID.TID 0000.0001)                 2.978501920522793E+05,      /* I = 46 */
(PID.TID 0000.0001)                 3.000967749619962E+05,      /* I = 47 */
(PID.TID 0000.0001)     2 @  3.012190981969054E+05,             /* I = 48: 49 */
(PID.TID 0000.0001)                 3.000967749619962E+05,      /* I = 50 */
(PID.TID 0000.0001)                 2.978501920522793E+05,      /* I = 51 */
(PID.TID 0000.0001)                 2.944742915095688E+05,      /* I = 52 */
(PID.TID 0000.0001)                 2.899590699694043E+05,      /* I = 53 */
(PID.TID 0000.0001)                 2.842862532064523E+05,      /* I = 54 */
(PID.TID 0000.0001)                 2.774243179696503E+05,      /* I = 55 */
(PID.TID 0000.0001)                 2.693210245495156E+05,      /* I = 56 */
(PID.TID 0000.0001)                 2.598919724358304E+05,      /* I = 57 */
(PID.TID 0000.0001)                 2.490022710862746E+05,      /* I = 58 */
(PID.TID 0000.0001)                 2.364352994647058E+05,      /* I = 59 */
(PID.TID 0000.0001)                 2.218350349844184E+05,      /* I = 60 */
(PID.TID 0000.0001)                 2.045883481718707E+05,      /* I = 61 */
(PID.TID 0000.0001)                 1.835530058121492E+05,      /* I = 62 */
(PID.TID 0000.0001)                 1.563594089971120E+05,      /* I = 63 */
(PID.TID 0000.0001)     2 @  1.202082051331828E+05,             /* I = 64: 65 */
(PID.TID 0000.0001)                 1.563594089971120E+05,      /* I = 66 */
(PID.TID 0000.0001)                 1.835530058121492E+05,      /* I = 67 */
(PID.TID 0000.0001)                 2.045883481718707E+05,      /* I = 68 */
(PID.TID 0000.0001)                 2.218350349844184E+05,      /* I = 69 */
(PID.TID 0000.0001)                 2.364352994647058E+05,      /* I = 70 */
(PID.TID 0000.0001)                 2.490022710862746E+05,      /* I = 71 */
(PID.TID 0000.0001)                 2.598919724358304E+05,      /* I = 72 */
(PID.TID 0000.0001)                 2.693210245495156E+05,      /* I = 73 */
(PID.TID 0000.0001)                 2.774243179696503E+05,      /* I = 74 */
(PID.TID 0000.0001)                 2.842862532064523E+05,      /* I = 75 */
(PID.TID 0000.0001)                 2.899590699694043E+05,      /* I = 76 */
(PID.TID 0000.0001)                 2.944742915095688E+05,      /* I = 77 */
(PID.TID 0000.0001)                 2.978501920522793E+05,      /* I = 78 */
(PID.TID 0000.0001)                 3.000967749619962E+05,      /* I = 79 */
(PID.TID 0000.0001)     2 @  3.012190981969054E+05,             /* I = 80: 81 */
(PID.TID 0000.0001)                 3.000967749619962E+05,      /* I = 82 */
(PID.TID 0000.0001)                 2.978501920522793E+05,      /* I = 83 */
(PID.TID 0000.0001)                 2.944742915095688E+05,      /* I = 84 */
(PID.TID 0000.0001)                 2.899590699694043E+05,      /* I = 85 */
(PID.TID 0000.0001)                 2.842862532064523E+05,      /* I = 86 */
(PID.TID 0000.0001)                 2.774243179696503E+05,      /* I = 87 */
(PID.TID 0000.0001)                 2.693210245495156E+05,      /* I = 88 */
(PID.TID 0000.0001)                 2.598919724358304E+05,      /* I = 89 */
(PID.TID 0000.0001)                 2.490022710862746E+05,      /* I = 90 */
(PID.TID 0000.0001)                 2.364352994647058E+05,      /* I = 91 */
(PID.TID 0000.0001)                 2.218350349844184E+05,      /* I = 92 */
(PID.TID 0000.0001)                 2.045883481718707E+05,      /* I = 93 */
(PID.TID 0000.0001)                 1.835530058121492E+05,      /* I = 94 */
(PID.TID 0000.0001)                 1.563594089971120E+05,      /* I = 95 */
(PID.TID 0000.0001)     2 @  1.202082051331828E+05,             /* I = 96: 97 */
(PID.TID 0000.0001)                 1.563594089971120E+05,      /* I = 98 */
(PID.TID 0000.0001)                 1.835530058121492E+05,      /* I = 99 */
(PID.TID 0000.0001)                 2.045883481718707E+05,      /* I =100 */
(PID.TID 0000.0001)                 2.218350349844184E+05,      /* I =101 */
(PID.TID 0000.0001)                 2.364352994647058E+05,      /* I =102 */
(PID.TID 0000.0001)                 2.490022710862746E+05,      /* I =103 */
(PID.TID 0000.0001)                 2.598919724358304E+05,      /* I =104 */
(PID.TID 0000.0001)                 2.693210245495156E+05,      /* I =105 */
(PID.TID 0000.0001)                 2.774243179696503E+05,      /* I =106 */
(PID.TID 0000.0001)                 2.842862532064523E+05,      /* I =107 */
(PID.TID 0000.0001)                 2.899590699694043E+05,      /* I =108 */
(PID.TID 0000.0001)                 2.944742915095688E+05,      /* I =109 */
(PID.TID 0000.0001)                 2.978501920522793E+05,      /* I =110 */
(PID.TID 0000.0001)                 3.000967749619962E+05,      /* I =111 */
(PID.TID 0000.0001)     2 @  3.012190981969054E+05,             /* I =112:113 */
(PID.TID 0000.0001)                 3.000967749619962E+05,      /* I =114 */
(PID.TID 0000.0001)                 2.978501920522793E+05,      /* I =115 */
(PID.TID 0000.0001)                 2.944742915095688E+05,      /* I =116 */
(PID.TID 0000.0001)                 2.899590699694043E+05,      /* I =117 */
(PID.TID 0000.0001)                 2.842862532064523E+05,      /* I =118 */
(PID.TID 0000.0001)                 2.774243179696503E+05,      /* I =119 */
(PID.TID 0000.0001)                 2.693210245495156E+05,      /* I =120 */
(PID.TID 0000.0001)                 2.598919724358304E+05,      /* I =121 */
(PID.TID 0000.0001)                 2.490022710862746E+05,      /* I =122 */
(PID.TID 0000.0001)                 2.364352994647058E+05,      /* I =123 */
(PID.TID 0000.0001)                 2.218350349844184E+05,      /* I =124 */
(PID.TID 0000.0001)                 2.045883481718707E+05,      /* I =125 */
(PID.TID 0000.0001)                 1.835530058121492E+05,      /* I =126 */
(PID.TID 0000.0001)                 1.563594089971120E+05,      /* I =127 */
(PID.TID 0000.0001)     2 @  1.202082051331828E+05,             /* I =128:129 */
(PID.TID 0000.0001)                 1.563594089971120E+05,      /* I =130 */
(PID.TID 0000.0001)                 1.835530058121492E+05,      /* I =131 */
(PID.TID 0000.0001)                 2.045883481718707E+05,      /* I =132 */
(PID.TID 0000.0001)                 2.218350349844184E+05,      /* I =133 */
(PID.TID 0000.0001)                 2.364352994647058E+05,      /* I =134 */
(PID.TID 0000.0001)                 2.490022710862746E+05,      /* I =135 */
(PID.TID 0000.0001)                 2.598919724358304E+05,      /* I =136 */
(PID.TID 0000.0001)                 2.693210245495156E+05,      /* I =137 */
(PID.TID 0000.0001)                 2.774243179696503E+05,      /* I =138 */
(PID.TID 0000.0001)                 2.842862532064523E+05,      /* I =139 */
(PID.TID 0000.0001)                 2.899590699694043E+05,      /* I =140 */
(PID.TID 0000.0001)                 2.944742915095688E+05,      /* I =141 */
(PID.TID 0000.0001)                 2.978501920522793E+05,      /* I =142 */
(PID.TID 0000.0001)                 3.000967749619962E+05,      /* I =143 */
(PID.TID 0000.0001)     2 @  3.012190981969054E+05,             /* I =144:145 */
(PID.TID 0000.0001)                 3.000967749619962E+05,      /* I =146 */
(PID.TID 0000.0001)                 2.978501920522793E+05,      /* I =147 */
(PID.TID 0000.0001)                 2.944742915095688E+05,      /* I =148 */
(PID.TID 0000.0001)                 2.899590699694043E+05,      /* I =149 */
(PID.TID 0000.0001)                 2.842862532064523E+05,      /* I =150 */
(PID.TID 0000.0001)                 2.774243179696503E+05,      /* I =151 */
(PID.TID 0000.0001)                 2.693210245495156E+05,      /* I =152 */
(PID.TID 0000.0001)                 2.598919724358304E+05,      /* I =153 */
(PID.TID 0000.0001)                 2.490022710862746E+05,      /* I =154 */
(PID.TID 0000.0001)                 2.364352994647058E+05,      /* I =155 */
(PID.TID 0000.0001)                 2.218350349844184E+05,      /* I =156 */
(PID.TID 0000.0001)                 2.045883481718707E+05,      /* I =157 */
(PID.TID 0000.0001)                 1.835530058121492E+05,      /* I =158 */
(PID.TID 0000.0001)                 1.563594089971120E+05,      /* I =159 */
(PID.TID 0000.0001)     2 @  1.202082051331828E+05,             /* I =160:161 */
(PID.TID 0000.0001)                 1.563594089971120E+05,      /* I =162 */
(PID.TID 0000.0001)                 1.835530058121492E+05,      /* I =163 */
(PID.TID 0000.0001)                 2.045883481718707E+05,      /* I =164 */
(PID.TID 0000.0001)                 2.218350349844184E+05,      /* I =165 */
(PID.TID 0000.0001)                 2.364352994647058E+05,      /* I =166 */
(PID.TID 0000.0001)                 2.490022710862746E+05,      /* I =167 */
(PID.TID 0000.0001)                 2.598919724358304E+05,      /* I =168 */
(PID.TID 0000.0001)                 2.693210245495156E+05,      /* I =169 */
(PID.TID 0000.0001)                 2.774243179696503E+05,      /* I =170 */
(PID.TID 0000.0001)                 2.842862532064523E+05,      /* I =171 */
(PID.TID 0000.0001)                 2.899590699694043E+05,      /* I =172 */
(PID.TID 0000.0001)                 2.944742915095688E+05,      /* I =173 */
(PID.TID 0000.0001)                 2.978501920522793E+05,      /* I =174 */
(PID.TID 0000.0001)                 3.000967749619962E+05,      /* I =175 */
(PID.TID 0000.0001)     2 @  3.012190981969054E+05,             /* I =176:177 */
(PID.TID 0000.0001)                 3.000967749619962E+05,      /* I =178 */
(PID.TID 0000.0001)                 2.978501920522793E+05,      /* I =179 */
(PID.TID 0000.0001)                 2.944742915095688E+05,      /* I =180 */
(PID.TID 0000.0001)                 2.899590699694043E+05,      /* I =181 */
(PID.TID 0000.0001)                 2.842862532064523E+05,      /* I =182 */
(PID.TID 0000.0001)                 2.774243179696503E+05,      /* I =183 */
(PID.TID 0000.0001)                 2.693210245495156E+05,      /* I =184 */
(PID.TID 0000.0001)                 2.598919724358304E+05,      /* I =185 */
(PID.TID 0000.0001)                 2.490022710862746E+05,      /* I =186 */
(PID.TID 0000.0001)                 2.364352994647058E+05,      /* I =187 */
(PID.TID 0000.0001)                 2.218350349844184E+05,      /* I =188 */
(PID.TID 0000.0001)                 2.045883481718707E+05,      /* I =189 */
(PID.TID 0000.0001)                 1.835530058121492E+05,      /* I =190 */
(PID.TID 0000.0001)                 1.563594089971120E+05,      /* I =191 */
(PID.TID 0000.0001)                 1.202082051331828E+05       /* I =192 */
(PID.TID 0000.0001)     ;
(PID.TID 0000.0001) dxF =  /* dxF(1,:,1,:) ( m - cartesian, degrees - spherical ) */
(PID.TID 0000.0001)                 1.202082051331828E+05,      /* J =  1 */
(PID.TID 0000.0001)                 1.572908084538706E+05,      /* J =  2 */
(PID.TID 0000.0001)                 1.840412227747703E+05,      /* J =  3 */
(PID.TID 0000.0001)                 2.048868197919576E+05,      /* J =  4 */
(PID.TID 0000.0001)                 2.220405216043041E+05,      /* J =  5 */
(PID.TID 0000.0001)                 2.365892017348392E+05,      /* J =  6 */
(PID.TID 0000.0001)                 2.491250781852558E+05,      /* J =  7 */
(PID.TID 0000.0001)                 2.599949918261880E+05,      /* J =  8 */
(PID.TID 0000.0001)                 2.694110134598581E+05,      /* J =  9 */
(PID.TID 0000.0001)                 2.775055554645015E+05,      /* J = 10 */
(PID.TID 0000.0001)                 2.843615645344775E+05,      /* J = 11 */
(PID.TID 0000.0001)                 2.900303768613598E+05,      /* J = 12 */
(PID.TID 0000.0001)                 2.945429307892709E+05,      /* J = 13 */
(PID.TID 0000.0001)                 2.979171143158405E+05,      /* J = 14 */
(PID.TID 0000.0001)                 3.001626787528886E+05,      /* J = 15 */
(PID.TID 0000.0001)     2 @  3.012844832048790E+05,             /* J = 16: 17 */
(PID.TID 0000.0001)                 3.001626787528886E+05,      /* J = 18 */
(PID.TID 0000.0001)                 2.979171143158405E+05,      /* J = 19 */
(PID.TID 0000.0001)                 2.945429307892709E+05,      /* J = 20 */
(PID.TID 0000.0001)                 2.900303768613598E+05,      /* J = 21 */
(PID.TID 0000.0001)                 2.843615645344775E+05,      /* J = 22 */
(PID.TID 0000.0001)                 2.775055554645015E+05,      /* J = 23 */
(PID.TID 0000.0001)                 2.694110134598581E+05,      /* J = 24 */
(PID.TID 0000.0001)                 2.599949918261880E+05,      /* J = 25 */
(PID.TID 0000.0001)                 2.491250781852558E+05,      /* J = 26 */
(PID.TID 0000.0001)                 2.365892017348392E+05,      /* J = 27 */
(PID.TID 0000.0001)                 2.220405216043041E+05,      /* J = 28 */
(PID.TID 0000.0001)                 2.048868197919576E+05,      /* J = 29 */
(PID.TID 0000.0001)                 1.840412227747703E+05,      /* J = 30 */
(PID.TID 0000.0001)                 1.572908084538706E+05,      /* J = 31 */
(PID.TID 0000.0001)                 1.202082051331828E+05       /* J = 32 */
(PID.TID 0000.0001)     ;
(PID.TID 0000.0001) dyF =  /* dyF(:,1,:,1) ( m - cartesian, degrees - spherical ) */
(PID.TID 0000.0001)                 1.202082051331828E+05,      /* I =  1 */
(PID.TID 0000.0001)                 1.572908084538706E+05,      /* I =  2 */
(PID.TID 0000.0001)                 1.840412227747703E+05,      /* I =  3 */
(PID.TID 0000.0001)                 2.048868197919576E+05,      /* I =  4 */
(PID.TID 0000.0001)                 2.220405216043041E+05,      /* I =  5 */
(PID.TID 0000.0001)                 2.365892017348392E+05,      /* I =  6 */
(PID.TID 0000.0001)                 2.491250781852558E+05,      /* I =  7 */
(PID.TID 0000.0001)                 2.599949918261880E+05,      /* I =  8 */
(PID.TID 0000.0001)                 2.694110134598581E+05,      /* I =  9 */
(PID.TID 0000.0001)                 2.775055554645015E+05,      /* I = 10 */
(PID.TID 0000.0001)                 2.843615645344775E+05,      /* I = 11 */
(PID.TID 0000.0001)                 2.900303768613598E+05,      /* I = 12 */
(PID.TID 0000.0001)                 2.945429307892709E+05,      /* I = 13 */
(PID.TID 0000.0001)                 2.979171143158405E+05,      /* I = 14 */
(PID.TID 0000.0001)                 3.001626787528886E+05,      /* I = 15 */
(PID.TID 0000.0001)     2 @  3.012844832048790E+05,             /* I = 16: 17 */
(PID.TID 0000.0001)                 3.001626787528886E+05,      /* I = 18 */
(PID.TID 0000.0001)                 2.979171143158405E+05,      /* I = 19 */
(PID.TID 0000.0001)                 2.945429307892709E+05,      /* I = 20 */
(PID.TID 0000.0001)                 2.900303768613598E+05,      /* I = 21 */
(PID.TID 0000.0001)                 2.843615645344775E+05,      /* I = 22 */
(PID.TID 0000.0001)                 2.775055554645015E+05,      /* I = 23 */
(PID.TID 0000.0001)                 2.694110134598581E+05,      /* I = 24 */
(PID.TID 0000.0001)                 2.599949918261880E+05,      /* I = 25 */
(PID.TID 0000.0001)                 2.491250781852558E+05,      /* I = 26 */
(PID.TID 0000.0001)                 2.365892017348392E+05,      /* I = 27 */
(PID.TID 0000.0001)                 2.220405216043041E+05,      /* I = 28 */
(PID.TID 0000.0001)                 2.048868197919576E+05,      /* I = 29 */
(PID.TID 0000.0001)                 1.840412227747703E+05,      /* I = 30 */
(PID.TID 0000.0001)                 1.572908084538706E+05,      /* I = 31 */
(PID.TID 0000.0001)     2 @  1.202082051331828E+05,             /* I = 32: 33 */
(PID.TID 0000.0001)                 1.572908084538706E+05,      /* I = 34 */
(PID.TID 0000.0001)                 1.840412227747703E+05,      /* I = 35 */
(PID.TID 0000.0001)                 2.048868197919576E+05,      /* I = 36 */
(PID.TID 0000.0001)                 2.220405216043041E+05,      /* I = 37 */
(PID.TID 0000.0001)                 2.365892017348392E+05,      /* I = 38 */
(PID.TID 0000.0001)                 2.491250781852558E+05,      /* I = 39 */
(PID.TID 0000.0001)                 2.599949918261880E+05,      /* I = 40 */
(PID.TID 0000.0001)                 2.694110134598581E+05,      /* I = 41 */
(PID.TID 0000.0001)                 2.775055554645015E+05,      /* I = 42 */
(PID.TID 0000.0001)                 2.843615645344775E+05,      /* I = 43 */
(PID.TID 0000.0001)                 2.900303768613598E+05,      /* I = 44 */
(PID.TID 0000.0001)                 2.945429307892709E+05,      /* I = 45 */
(PID.TID 0000.0001)                 2.979171143158405E+05,      /* I = 46 */
(PID.TID 0000.0001)                 3.001626787528886E+05,      /* I = 47 */
(PID.TID 0000.0001)     2 @  3.012844832048790E+05,             /* I = 48: 49 */
(PID.TID 0000.0001)                 3.001626787528886E+05,      /* I = 50 */
(PID.TID 0000.0001)                 2.979171143158405E+05,      /* I = 51 */
(PID.TID 0000.0001)                 2.945429307892709E+05,      /* I = 52 */
(PID.TID 0000.0001)                 2.900303768613598E+05,      /* I = 53 */
(PID.TID 0000.0001)                 2.843615645344775E+05,      /* I = 54 */
(PID.TID 0000.0001)                 2.775055554645015E+05,      /* I = 55 */
(PID.TID 0000.0001)                 2.694110134598581E+05,      /* I = 56 */
(PID.TID 0000.0001)                 2.599949918261880E+05,      /* I = 57 */
(PID.TID 0000.0001)                 2.491250781852558E+05,      /* I = 58 */
(PID.TID 0000.0001)                 2.365892017348392E+05,      /* I = 59 */
(PID.TID 0000.0001)                 2.220405216043041E+05,      /* I = 60 */
(PID.TID 0000.0001)                 2.048868197919576E+05,      /* I = 61 */
(PID.TID 0000.0001)                 1.840412227747703E+05,      /* I = 62 */
(PID.TID 0000.0001)                 1.572908084538706E+05,      /* I = 63 */
(PID.TID 0000.0001)     2 @  1.202082051331828E+05,             /* I = 64: 65 */
(PID.TID 0000.0001)                 1.572908084538706E+05,      /* I = 66 */
(PID.TID 0000.0001)                 1.840412227747703E+05,      /* I = 67 */
(PID.TID 0000.0001)                 2.048868197919576E+05,      /* I = 68 */
(PID.TID 0000.0001)                 2.220405216043041E+05,      /* I = 69 */
(PID.TID 0000.0001)                 2.365892017348392E+05,      /* I = 70 */
(PID.TID 0000.0001)                 2.491250781852558E+05,      /* I = 71 */
(PID.TID 0000.0001)                 2.599949918261880E+05,      /* I = 72 */
(PID.TID 0000.0001)                 2.694110134598581E+05,      /* I = 73 */
(PID.TID 0000.0001)                 2.775055554645015E+05,      /* I = 74 */
(PID.TID 0000.0001)                 2.843615645344775E+05,      /* I = 75 */
(PID.TID 0000.0001)                 2.900303768613598E+05,      /* I = 76 */
(PID.TID 0000.0001)                 2.945429307892709E+05,      /* I = 77 */
(PID.TID 0000.0001)                 2.979171143158405E+05,      /* I = 78 */
(PID.TID 0000.0001)                 3.001626787528886E+05,      /* I = 79 */
(PID.TID 0000.0001)     2 @  3.012844832048790E+05,             /* I = 80: 81 */
(PID.TID 0000.0001)                 3.001626787528886E+05,      /* I = 82 */
(PID.TID 0000.0001)                 2.979171143158405E+05,      /* I = 83 */
(PID.TID 0000.0001)                 2.945429307892709E+05,      /* I = 84 */
(PID.TID 0000.0001)                 2.900303768613598E+05,      /* I = 85 */
(PID.TID 0000.0001)                 2.843615645344775E+05,      /* I = 86 */
(PID.TID 0000.0001)                 2.775055554645015E+05,      /* I = 87 */
(PID.TID 0000.0001)                 2.694110134598581E+05,      /* I = 88 */
(PID.TID 0000.0001)                 2.599949918261880E+05,      /* I = 89 */
(PID.TID 0000.0001)                 2.491250781852558E+05,      /* I = 90 */
(PID.TID 0000.0001)                 2.365892017348392E+05,      /* I = 91 */
(PID.TID 0000.0001)                 2.220405216043041E+05,      /* I = 92 */
(PID.TID 0000.0001)                 2.048868197919576E+05,      /* I = 93 */
(PID.TID 0000.0001)                 1.840412227747703E+05,      /* I = 94 */
(PID.TID 0000.0001)                 1.572908084538706E+05,      /* I = 95 */
(PID.TID 0000.0001)     2 @  1.202082051331828E+05,             /* I = 96: 97 */
(PID.TID 0000.0001)                 1.572908084538706E+05,      /* I = 98 */
(PID.TID 0000.0001)                 1.840412227747703E+05,      /* I = 99 */
(PID.TID 0000.0001)                 2.048868197919576E+05,      /* I =100 */
(PID.TID 0000.0001)                 2.220405216043041E+05,      /* I =101 */
(PID.TID 0000.0001)                 2.365892017348392E+05,      /* I =102 */
(PID.TID 0000.0001)                 2.491250781852558E+05,      /* I =103 */
(PID.TID 0000.0001)                 2.599949918261880E+05,      /* I =104 */
(PID.TID 0000.0001)                 2.694110134598581E+05,      /* I =105 */
(PID.TID 0000.0001)                 2.775055554645015E+05,      /* I =106 */
(PID.TID 0000.0001)                 2.843615645344775E+05,      /* I =107 */
(PID.TID 0000.0001)                 2.900303768613598E+05,      /* I =108 */
(PID.TID 0000.0001)                 2.945429307892709E+05,      /* I =109 */
(PID.TID 0000.0001)                 2.979171143158405E+05,      /* I =110 */
(PID.TID 0000.0001)                 3.001626787528886E+05,      /* I =111 */
(PID.TID 0000.0001)     2 @  3.012844832048790E+05,             /* I =112:113 */
(PID.TID 0000.0001)                 3.001626787528886E+05,      /* I =114 */
(PID.TID 0000.0001)                 2.979171143158405E+05,      /* I =115 */
(PID.TID 0000.0001)                 2.945429307892709E+05,      /* I =116 */
(PID.TID 0000.0001)                 2.900303768613598E+05,      /* I =117 */
(PID.TID 0000.0001)                 2.843615645344775E+05,      /* I =118 */
(PID.TID 0000.0001)                 2.775055554645015E+05,      /* I =119 */
(PID.TID 0000.0001)                 2.694110134598581E+05,      /* I =120 */
(PID.TID 0000.0001)                 2.599949918261880E+05,      /* I =121 */
(PID.TID 0000.0001)                 2.491250781852558E+05,      /* I =122 */
(PID.TID 0000.0001)                 2.365892017348392E+05,      /* I =123 */
(PID.TID 0000.0001)                 2.220405216043041E+05,      /* I =124 */
(PID.TID 0000.0001)                 2.048868197919576E+05,      /* I =125 */
(PID.TID 0000.0001)                 1.840412227747703E+05,      /* I =126 */
(PID.TID 0000.0001)                 1.572908084538706E+05,      /* I =127 */
(PID.TID 0000.0001)     2 @  1.202082051331828E+05,             /* I =128:129 */
(PID.TID 0000.0001)                 1.572908084538706E+05,      /* I =130 */
(PID.TID 0000.0001)                 1.840412227747703E+05,      /* I =131 */
(PID.TID 0000.0001)                 2.048868197919576E+05,      /* I =132 */
(PID.TID 0000.0001)                 2.220405216043041E+05,      /* I =133 */
(PID.TID 0000.0001)                 2.365892017348392E+05,      /* I =134 */
(PID.TID 0000.0001)                 2.491250781852558E+05,      /* I =135 */
(PID.TID 0000.0001)                 2.599949918261880E+05,      /* I =136 */
(PID.TID 0000.0001)                 2.694110134598581E+05,      /* I =137 */
(PID.TID 0000.0001)                 2.775055554645015E+05,      /* I =138 */
(PID.TID 0000.0001)                 2.843615645344775E+05,      /* I =139 */
(PID.TID 0000.0001)                 2.900303768613598E+05,      /* I =140 */
(PID.TID 0000.0001)                 2.945429307892709E+05,      /* I =141 */
(PID.TID 0000.0001)                 2.979171143158405E+05,      /* I =142 */
(PID.TID 0000.0001)                 3.001626787528886E+05,      /* I =143 */
(PID.TID 0000.0001)     2 @  3.012844832048790E+05,             /* I =144:145 */
(PID.TID 0000.0001)                 3.001626787528886E+05,      /* I =146 */
(PID.TID 0000.0001)                 2.979171143158405E+05,      /* I =147 */
(PID.TID 0000.0001)                 2.945429307892709E+05,      /* I =148 */
(PID.TID 0000.0001)                 2.900303768613598E+05,      /* I =149 */
(PID.TID 0000.0001)                 2.843615645344775E+05,      /* I =150 */
(PID.TID 0000.0001)                 2.775055554645015E+05,      /* I =151 */
(PID.TID 0000.0001)                 2.694110134598581E+05,      /* I =152 */
(PID.TID 0000.0001)                 2.599949918261880E+05,      /* I =153 */
(PID.TID 0000.0001)                 2.491250781852558E+05,      /* I =154 */
(PID.TID 0000.0001)                 2.365892017348392E+05,      /* I =155 */
(PID.TID 0000.0001)                 2.220405216043041E+05,      /* I =156 */
(PID.TID 0000.0001)                 2.048868197919576E+05,      /* I =157 */
(PID.TID 0000.0001)                 1.840412227747703E+05,      /* I =158 */
(PID.TID 0000.0001)                 1.572908084538706E+05,      /* I =159 */
(PID.TID 0000.0001)     2 @  1.202082051331828E+05,             /* I =160:161 */
(PID.TID 0000.0001)                 1.572908084538706E+05,      /* I =162 */
(PID.TID 0000.0001)                 1.840412227747703E+05,      /* I =163 */
(PID.TID 0000.0001)                 2.048868197919576E+05,      /* I =164 */
(PID.TID 0000.0001)                 2.220405216043041E+05,      /* I =165 */
(PID.TID 0000.0001)                 2.365892017348392E+05,      /* I =166 */
(PID.TID 0000.0001)                 2.491250781852558E+05,      /* I =167 */
(PID.TID 0000.0001)                 2.599949918261880E+05,      /* I =168 */
(PID.TID 0000.0001)                 2.694110134598581E+05,      /* I =169 */
(PID.TID 0000.0001)                 2.775055554645015E+05,      /* I =170 */
(PID.TID 0000.0001)                 2.843615645344775E+05,      /* I =171 */
(PID.TID 0000.0001)                 2.900303768613598E+05,      /* I =172 */
(PID.TID 0000.0001)                 2.945429307892709E+05,      /* I =173 */
(PID.TID 0000.0001)                 2.979171143158405E+05,      /* I =174 */
(PID.TID 0000.0001)                 3.001626787528886E+05,      /* I =175 */
(PID.TID 0000.0001)     2 @  3.012844832048790E+05,             /* I =176:177 */
(PID.TID 0000.0001)                 3.001626787528886E+05,      /* I =178 */
(PID.TID 0000.0001)                 2.979171143158405E+05,      /* I =179 */
(PID.TID 0000.0001)                 2.945429307892709E+05,      /* I =180 */
(PID.TID 0000.0001)                 2.900303768613598E+05,      /* I =181 */
(PID.TID 0000.0001)                 2.843615645344775E+05,      /* I =182 */
(PID.TID 0000.0001)                 2.775055554645015E+05,      /* I =183 */
(PID.TID 0000.0001)                 2.694110134598581E+05,      /* I =184 */
(PID.TID 0000.0001)                 2.599949918261880E+05,      /* I =185 */
(PID.TID 0000.0001)                 2.491250781852558E+05,      /* I =186 */
(PID.TID 0000.0001)                 2.365892017348392E+05,      /* I =187 */
(PID.TID 0000.0001)                 2.220405216043041E+05,      /* I =188 */
(PID.TID 0000.0001)                 2.048868197919576E+05,      /* I =189 */
(PID.TID 0000.0001)                 1.840412227747703E+05,      /* I =190 */
(PID.TID 0000.0001)                 1.572908084538706E+05,      /* I =191 */
(PID.TID 0000.0001)                 1.202082051331828E+05       /* I =192 */
(PID.TID 0000.0001)     ;
(PID.TID 0000.0001) dyF =  /* dyF(1,:,1,:) ( m - cartesian, degrees - spherical ) */
(PID.TID 0000.0001)                 1.202082051331828E+05,      /* J =  1 */
(PID.TID 0000.0001)                 1.563594089971120E+05,      /* J =  2 */
(PID.TID 0000.0001)                 1.835530058121492E+05,      /* J =  3 */
(PID.TID 0000.0001)                 2.045883481718707E+05,      /* J =  4 */
(PID.TID 0000.0001)                 2.218350349844184E+05,      /* J =  5 */
(PID.TID 0000.0001)                 2.364352994647058E+05,      /* J =  6 */
(PID.TID 0000.0001)                 2.490022710862746E+05,      /* J =  7 */
(PID.TID 0000.0001)                 2.598919724358304E+05,      /* J =  8 */
(PID.TID 0000.0001)                 2.693210245495156E+05,      /* J =  9 */
(PID.TID 0000.0001)                 2.774243179696503E+05,      /* J = 10 */
(PID.TID 0000.0001)                 2.842862532064523E+05,      /* J = 11 */
(PID.TID 0000.0001)                 2.899590699694043E+05,      /* J = 12 */
(PID.TID 0000.0001)                 2.944742915095688E+05,      /* J = 13 */
(PID.TID 0000.0001)                 2.978501920522793E+05,      /* J = 14 */
(PID.TID 0000.0001)                 3.000967749619962E+05,      /* J = 15 */
(PID.TID 0000.0001)     2 @  3.012190981969054E+05,             /* J = 16: 17 */
(PID.TID 0000.0001)                 3.000967749619962E+05,      /* J = 18 */
(PID.TID 0000.0001)                 2.978501920522793E+05,      /* J = 19 */
(PID.TID 0000.0001)                 2.944742915095688E+05,      /* J = 20 */
(PID.TID 0000.0001)                 2.899590699694043E+05,      /* J = 21 */
(PID.TID 0000.0001)                 2.842862532064523E+05,      /* J = 22 */
(PID.TID 0000.0001)                 2.774243179696503E+05,      /* J = 23 */
(PID.TID 0000.0001)                 2.693210245495156E+05,      /* J = 24 */
(PID.TID 0000.0001)                 2.598919724358304E+05,      /* J = 25 */
(PID.TID 0000.0001)                 2.490022710862746E+05,      /* J = 26 */
(PID.TID 0000.0001)                 2.364352994647058E+05,      /* J = 27 */
(PID.TID 0000.0001)                 2.218350349844184E+05,      /* J = 28 */
(PID.TID 0000.0001)                 2.045883481718707E+05,      /* J = 29 */
(PID.TID 0000.0001)                 1.835530058121492E+05,      /* J = 30 */
(PID.TID 0000.0001)                 1.563594089971120E+05,      /* J = 31 */
(PID.TID 0000.0001)                 1.202082051331828E+05       /* J = 32 */
(PID.TID 0000.0001)     ;
(PID.TID 0000.0001) dxG =  /* dxG(:,1,:,1) ( m - cartesian, degrees - spherical ) */
(PID.TID 0000.0001)                 1.009837800879055E+05,      /* I =  1 */
(PID.TID 0000.0001)                 1.534505834330337E+05,      /* I =  2 */
(PID.TID 0000.0001)                 1.823321598773926E+05,      /* I =  3 */
(PID.TID 0000.0001)                 2.038999045536999E+05,      /* I =  4 */
(PID.TID 0000.0001)                 2.213884732245467E+05,      /* I =  5 */
(PID.TID 0000.0001)                 2.361211699596122E+05,      /* I =  6 */
(PID.TID 0000.0001)                 2.487693460283865E+05,      /* I =  7 */
(PID.TID 0000.0001)                 2.597126963772146E+05,      /* I =  8 */
(PID.TID 0000.0001)                 2.691790288994575E+05,      /* I =  9 */
(PID.TID 0000.0001)                 2.773091043277394E+05,      /* I = 10 */
(PID.TID 0000.0001)                 2.841906470085516E+05,      /* I = 11 */
(PID.TID 0000.0001)                 2.898778860929753E+05,      /* I = 12 */
(PID.TID 0000.0001)                 2.944035815526417E+05,      /* I = 13 */
(PID.TID 0000.0001)                 2.977867909042096E+05,      /* I = 14 */
(PID.TID 0000.0001)                 3.000380090330854E+05,      /* I = 15 */
(PID.TID 0000.0001)     2 @  3.011625828699101E+05,             /* I = 16: 17 */
(PID.TID 0000.0001)                 3.000380090330854E+05,      /* I = 18 */
(PID.TID 0000.0001)                 2.977867909042096E+05,      /* I = 19 */
(PID.TID 0000.0001)                 2.944035815526417E+05,      /* I = 20 */
(PID.TID 0000.0001)                 2.898778860929753E+05,      /* I = 21 */
(PID.TID 0000.0001)                 2.841906470085516E+05,      /* I = 22 */
(PID.TID 0000.0001)                 2.773091043277394E+05,      /* I = 23 */
(PID.TID 0000.0001)                 2.691790288994575E+05,      /* I = 24 */
(PID.TID 0000.0001)                 2.597126963772146E+05,      /* I = 25 */
(PID.TID 0000.0001)                 2.487693460283865E+05,      /* I = 26 */
(PID.TID 0000.0001)                 2.361211699596122E+05,      /* I = 27 */
(PID.TID 0000.0001)                 2.213884732245467E+05,      /* I = 28 */
(PID.TID 0000.0001)                 2.038999045536999E+05,      /* I = 29 */
(PID.TID 0000.0001)                 1.823321598773926E+05,      /* I = 30 */
(PID.TID 0000.0001)                 1.534505834330337E+05,      /* I = 31 */
(PID.TID 0000.0001)     2 @  1.009837800879055E+05,             /* I = 32: 33 */
(PID.TID 0000.0001)                 1.534505834330337E+05,      /* I = 34 */
(PID.TID 0000.0001)                 1.823321598773926E+05,      /* I = 35 */
(PID.TID 0000.0001)                 2.038999045536999E+05,      /* I = 36 */
(PID.TID 0000.0001)                 2.213884732245467E+05,      /* I = 37 */
(PID.TID 0000.0001)                 2.361211699596122E+05,      /* I = 38 */
(PID.TID 0000.0001)                 2.487693460283865E+05,      /* I = 39 */
(PID.TID 0000.0001)                 2.597126963772146E+05,      /* I = 40 */
(PID.TID 0000.0001)                 2.691790288994575E+05,      /* I = 41 */
(PID.TID 0000.0001)                 2.773091043277394E+05,      /* I = 42 */
(PID.TID 0000.0001)                 2.841906470085516E+05,      /* I = 43 */
(PID.TID 0000.0001)                 2.898778860929753E+05,      /* I = 44 */
(PID.TID 0000.0001)                 2.944035815526417E+05,      /* I = 45 */
(PID.TID 0000.0001)                 2.977867909042096E+05,      /* I = 46 */
(PID.TID 0000.0001)                 3.000380090330854E+05,      /* I = 47 */
(PID.TID 0000.0001)     2 @  3.011625828699101E+05,             /* I = 48: 49 */
(PID.TID 0000.0001)                 3.000380090330854E+05,      /* I = 50 */
(PID.TID 0000.0001)                 2.977867909042096E+05,      /* I = 51 */
(PID.TID 0000.0001)                 2.944035815526417E+05,      /* I = 52 */
(PID.TID 0000.0001)                 2.898778860929753E+05,      /* I = 53 */
(PID.TID 0000.0001)                 2.841906470085516E+05,      /* I = 54 */
(PID.TID 0000.0001)                 2.773091043277394E+05,      /* I = 55 */
(PID.TID 0000.0001)                 2.691790288994575E+05,      /* I = 56 */
(PID.TID 0000.0001)                 2.597126963772146E+05,      /* I = 57 */
(PID.TID 0000.0001)                 2.487693460283865E+05,      /* I = 58 */
(PID.TID 0000.0001)                 2.361211699596122E+05,      /* I = 59 */
(PID.TID 0000.0001)                 2.213884732245467E+05,      /* I = 60 */
(PID.TID 0000.0001)                 2.038999045536999E+05,      /* I = 61 */
(PID.TID 0000.0001)                 1.823321598773926E+05,      /* I = 62 */
(PID.TID 0000.0001)                 1.534505834330337E+05,      /* I = 63 */
(PID.TID 0000.0001)     2 @  1.009837800879055E+05,             /* I = 64: 65 */
(PID.TID 0000.0001)                 1.534505834330337E+05,      /* I = 66 */
(PID.TID 0000.0001)                 1.823321598773926E+05,      /* I = 67 */
(PID.TID 0000.0001)                 2.038999045536999E+05,      /* I = 68 */
(PID.TID 0000.0001)                 2.213884732245467E+05,      /* I = 69 */
(PID.TID 0000.0001)                 2.361211699596122E+05,      /* I = 70 */
(PID.TID 0000.0001)                 2.487693460283865E+05,      /* I = 71 */
(PID.TID 0000.0001)                 2.597126963772146E+05,      /* I = 72 */
(PID.TID 0000.0001)                 2.691790288994575E+05,      /* I = 73 */
(PID.TID 0000.0001)                 2.773091043277394E+05,      /* I = 74 */
(PID.TID 0000.0001)                 2.841906470085516E+05,      /* I = 75 */
(PID.TID 0000.0001)                 2.898778860929753E+05,      /* I = 76 */
(PID.TID 0000.0001)                 2.944035815526417E+05,      /* I = 77 */
(PID.TID 0000.0001)                 2.977867909042096E+05,      /* I = 78 */
(PID.TID 0000.0001)                 3.000380090330854E+05,      /* I = 79 */
(PID.TID 0000.0001)     2 @  3.011625828699101E+05,             /* I = 80: 81 */
(PID.TID 0000.0001)                 3.000380090330854E+05,      /* I = 82 */
(PID.TID 0000.0001)                 2.977867909042096E+05,      /* I = 83 */
(PID.TID 0000.0001)                 2.944035815526417E+05,      /* I = 84 */
(PID.TID 0000.0001)                 2.898778860929753E+05,      /* I = 85 */
(PID.TID 0000.0001)                 2.841906470085516E+05,      /* I = 86 */
(PID.TID 0000.0001)                 2.773091043277394E+05,      /* I = 87 */
(PID.TID 0000.0001)                 2.691790288994575E+05,      /* I = 88 */
(PID.TID 0000.0001)                 2.597126963772146E+05,      /* I = 89 */
(PID.TID 0000.0001)                 2.487693460283865E+05,      /* I = 90 */
(PID.TID 0000.0001)                 2.361211699596122E+05,      /* I = 91 */
(PID.TID 0000.0001)                 2.213884732245467E+05,      /* I = 92 */
(PID.TID 0000.0001)                 2.038999045536999E+05,      /* I = 93 */
(PID.TID 0000.0001)                 1.823321598773926E+05,      /* I = 94 */
(PID.TID 0000.0001)                 1.534505834330337E+05,      /* I = 95 */
(PID.TID 0000.0001)     2 @  1.009837800879055E+05,             /* I = 96: 97 */
(PID.TID 0000.0001)                 1.534505834330337E+05,      /* I = 98 */
(PID.TID 0000.0001)                 1.823321598773926E+05,      /* I = 99 */
(PID.TID 0000.0001)                 2.038999045536999E+05,      /* I =100 */
(PID.TID 0000.0001)                 2.213884732245467E+05,      /* I =101 */
(PID.TID 0000.0001)                 2.361211699596122E+05,      /* I =102 */
(PID.TID 0000.0001)                 2.487693460283865E+05,      /* I =103 */
(PID.TID 0000.0001)                 2.597126963772146E+05,      /* I =104 */
(PID.TID 0000.0001)                 2.691790288994575E+05,      /* I =105 */
(PID.TID 0000.0001)                 2.773091043277394E+05,      /* I =106 */
(PID.TID 0000.0001)                 2.841906470085516E+05,      /* I =107 */
(PID.TID 0000.0001)                 2.898778860929753E+05,      /* I =108 */
(PID.TID 0000.0001)                 2.944035815526417E+05,      /* I =109 */
(PID.TID 0000.0001)                 2.977867909042096E+05,      /* I =110 */
(PID.TID 0000.0001)                 3.000380090330854E+05,      /* I =111 */
(PID.TID 0000.0001)     2 @  3.011625828699101E+05,             /* I =112:113 */
(PID.TID 0000.0001)                 3.000380090330854E+05,      /* I =114 */
(PID.TID 0000.0001)                 2.977867909042096E+05,      /* I =115 */
(PID.TID 0000.0001)                 2.944035815526417E+05,      /* I =116 */
(PID.TID 0000.0001)                 2.898778860929753E+05,      /* I =117 */
(PID.TID 0000.0001)                 2.841906470085516E+05,      /* I =118 */
(PID.TID 0000.0001)                 2.773091043277394E+05,      /* I =119 */
(PID.TID 0000.0001)                 2.691790288994575E+05,      /* I =120 */
(PID.TID 0000.0001)                 2.597126963772146E+05,      /* I =121 */
(PID.TID 0000.0001)                 2.487693460283865E+05,      /* I =122 */
(PID.TID 0000.0001)                 2.361211699596122E+05,      /* I =123 */
(PID.TID 0000.0001)                 2.213884732245467E+05,      /* I =124 */
(PID.TID 0000.0001)                 2.038999045536999E+05,      /* I =125 */
(PID.TID 0000.0001)                 1.823321598773926E+05,      /* I =126 */
(PID.TID 0000.0001)                 1.534505834330337E+05,      /* I =127 */
(PID.TID 0000.0001)     2 @  1.009837800879055E+05,             /* I =128:129 */
(PID.TID 0000.0001)                 1.534505834330337E+05,      /* I =130 */
(PID.TID 0000.0001)                 1.823321598773926E+05,      /* I =131 */
(PID.TID 0000.0001)                 2.038999045536999E+05,      /* I =132 */
(PID.TID 0000.0001)                 2.213884732245467E+05,      /* I =133 */
(PID.TID 0000.0001)                 2.361211699596122E+05,      /* I =134 */
(PID.TID 0000.0001)                 2.487693460283865E+05,      /* I =135 */
(PID.TID 0000.0001)                 2.597126963772146E+05,      /* I =136 */
(PID.TID 0000.0001)                 2.691790288994575E+05,      /* I =137 */
(PID.TID 0000.0001)                 2.773091043277394E+05,      /* I =138 */
(PID.TID 0000.0001)                 2.841906470085516E+05,      /* I =139 */
(PID.TID 0000.0001)                 2.898778860929753E+05,      /* I =140 */
(PID.TID 0000.0001)                 2.944035815526417E+05,      /* I =141 */
(PID.TID 0000.0001)                 2.977867909042096E+05,      /* I =142 */
(PID.TID 0000.0001)                 3.000380090330854E+05,      /* I =143 */
(PID.TID 0000.0001)     2 @  3.011625828699101E+05,             /* I =144:145 */
(PID.TID 0000.0001)                 3.000380090330854E+05,      /* I =146 */
(PID.TID 0000.0001)                 2.977867909042096E+05,      /* I =147 */
(PID.TID 0000.0001)                 2.944035815526417E+05,      /* I =148 */
(PID.TID 0000.0001)                 2.898778860929753E+05,      /* I =149 */
(PID.TID 0000.0001)                 2.841906470085516E+05,      /* I =150 */
(PID.TID 0000.0001)                 2.773091043277394E+05,      /* I =151 */
(PID.TID 0000.0001)                 2.691790288994575E+05,      /* I =152 */
(PID.TID 0000.0001)                 2.597126963772146E+05,      /* I =153 */
(PID.TID 0000.0001)                 2.487693460283865E+05,      /* I =154 */
(PID.TID 0000.0001)                 2.361211699596122E+05,      /* I =155 */
(PID.TID 0000.0001)                 2.213884732245467E+05,      /* I =156 */
(PID.TID 0000.0001)                 2.038999045536999E+05,      /* I =157 */
(PID.TID 0000.0001)                 1.823321598773926E+05,      /* I =158 */
(PID.TID 0000.0001)                 1.534505834330337E+05,      /* I =159 */
(PID.TID 0000.0001)     2 @  1.009837800879055E+05,             /* I =160:161 */
(PID.TID 0000.0001)                 1.534505834330337E+05,      /* I =162 */
(PID.TID 0000.0001)                 1.823321598773926E+05,      /* I =163 */
(PID.TID 0000.0001)                 2.038999045536999E+05,      /* I =164 */
(PID.TID 0000.0001)                 2.213884732245467E+05,      /* I =165 */
(PID.TID 0000.0001)                 2.361211699596122E+05,      /* I =166 */
(PID.TID 0000.0001)                 2.487693460283865E+05,      /* I =167 */
(PID.TID 0000.0001)                 2.597126963772146E+05,      /* I =168 */
(PID.TID 0000.0001)                 2.691790288994575E+05,      /* I =169 */
(PID.TID 0000.0001)                 2.773091043277394E+05,      /* I =170 */
(PID.TID 0000.0001)                 2.841906470085516E+05,      /* I =171 */
(PID.TID 0000.0001)                 2.898778860929753E+05,      /* I =172 */
(PID.TID 0000.0001)                 2.944035815526417E+05,      /* I =173 */
(PID.TID 0000.0001)                 2.977867909042096E+05,      /* I =174 */
(PID.TID 0000.0001)                 3.000380090330854E+05,      /* I =175 */
(PID.TID 0000.0001)     2 @  3.011625828699101E+05,             /* I =176:177 */
(PID.TID 0000.0001)                 3.000380090330854E+05,      /* I =178 */
(PID.TID 0000.0001)                 2.977867909042096E+05,      /* I =179 */
(PID.TID 0000.0001)                 2.944035815526417E+05,      /* I =180 */
(PID.TID 0000.0001)                 2.898778860929753E+05,      /* I =181 */
(PID.TID 0000.0001)                 2.841906470085516E+05,      /* I =182 */
(PID.TID 0000.0001)                 2.773091043277394E+05,      /* I =183 */
(PID.TID 0000.0001)                 2.691790288994575E+05,      /* I =184 */
(PID.TID 0000.0001)                 2.597126963772146E+05,      /* I =185 */
(PID.TID 0000.0001)                 2.487693460283865E+05,      /* I =186 */
(PID.TID 0000.0001)                 2.361211699596122E+05,      /* I =187 */
(PID.TID 0000.0001)                 2.213884732245467E+05,      /* I =188 */
(PID.TID 0000.0001)                 2.038999045536999E+05,      /* I =189 */
(PID.TID 0000.0001)                 1.823321598773926E+05,      /* I =190 */
(PID.TID 0000.0001)                 1.534505834330337E+05,      /* I =191 */
(PID.TID 0000.0001)                 1.009837800879055E+05       /* I =192 */
(PID.TID 0000.0001)     ;
(PID.TID 0000.0001) dxG =  /* dxG(1,:,1,:) ( m - cartesian, degrees - spherical ) */
(PID.TID 0000.0001)                 1.009837800879055E+05,      /* J =  1 */
(PID.TID 0000.0001)                 1.403701524205398E+05,      /* J =  2 */
(PID.TID 0000.0001)                 1.716197227386011E+05,      /* J =  3 */
(PID.TID 0000.0001)                 1.950254041626018E+05,      /* J =  4 */
(PID.TID 0000.0001)                 2.138410773065497E+05,      /* J =  5 */
(PID.TID 0000.0001)                 2.295958105911513E+05,      /* J =  6 */
(PID.TID 0000.0001)                 2.430829951739083E+05,      /* J =  7 */
(PID.TID 0000.0001)                 2.547526806712888E+05,      /* J =  8 */
(PID.TID 0000.0001)                 2.648750305193301E+05,      /* J =  9 */
(PID.TID 0000.0001)                 2.736173771018112E+05,      /* J = 10 */
(PID.TID 0000.0001)                 2.810845823202646E+05,      /* J = 11 */
(PID.TID 0000.0001)                 2.873420591008078E+05,      /* J = 12 */
(PID.TID 0000.0001)                 2.924298293668651E+05,      /* J = 13 */
(PID.TID 0000.0001)                 2.963715635865306E+05,      /* J = 14 */
(PID.TID 0000.0001)                 2.991805843171258E+05,      /* J = 15 */
(PID.TID 0000.0001)                 3.008638765647886E+05,      /* J = 16 */
(PID.TID 0000.0001)                 3.014246674484008E+05,      /* J = 17 */
(PID.TID 0000.0001)                 3.008638765647886E+05,      /* J = 18 */
(PID.TID 0000.0001)                 2.991805843171258E+05,      /* J = 19 */
(PID.TID 0000.0001)                 2.963715635865306E+05,      /* J = 20 */
(PID.TID 0000.0001)                 2.924298293668651E+05,      /* J = 21 */
(PID.TID 0000.0001)                 2.873420591008078E+05,      /* J = 22 */
(PID.TID 0000.0001)                 2.810845823202646E+05,      /* J = 23 */
(PID.TID 0000.0001)                 2.736173771018112E+05,      /* J = 24 */
(PID.TID 0000.0001)                 2.648750305193301E+05,      /* J = 25 */
(PID.TID 0000.0001)                 2.547526806712888E+05,      /* J = 26 */
(PID.TID 0000.0001)                 2.430829951739083E+05,      /* J = 27 */
(PID.TID 0000.0001)                 2.295958105911513E+05,      /* J = 28 */
(PID.TID 0000.0001)                 2.138410773065497E+05,      /* J = 29 */
(PID.TID 0000.0001)                 1.950254041626018E+05,      /* J = 30 */
(PID.TID 0000.0001)                 1.716197227386011E+05,      /* J = 31 */
(PID.TID 0000.0001)                 1.403701524205398E+05       /* J = 32 */
(PID.TID 0000.0001)     ;
(PID.TID 0000.0001) dyG =  /* dyG(:,1,:,1) ( m - cartesian, degrees - spherical ) */
(PID.TID 0000.0001)                 1.009837800879055E+05,      /* I =  1 */
(PID.TID 0000.0001)                 1.403701524205398E+05,      /* I =  2 */
(PID.TID 0000.0001)                 1.716197227386011E+05,      /* I =  3 */
(PID.TID 0000.0001)                 1.950254041626018E+05,      /* I =  4 */
(PID.TID 0000.0001)                 2.138410773065497E+05,      /* I =  5 */
(PID.TID 0000.0001)                 2.295958105911513E+05,      /* I =  6 */
(PID.TID 0000.0001)                 2.430829951739083E+05,      /* I =  7 */
(PID.TID 0000.0001)                 2.547526806712888E+05,      /* I =  8 */
(PID.TID 0000.0001)                 2.648750305193301E+05,      /* I =  9 */
(PID.TID 0000.0001)                 2.736173771018112E+05,      /* I = 10 */
(PID.TID 0000.0001)                 2.810845823202646E+05,      /* I = 11 */
(PID.TID 0000.0001)                 2.873420591008078E+05,      /* I = 12 */
(PID.TID 0000.0001)                 2.924298293668651E+05,      /* I = 13 */
(PID.TID 0000.0001)                 2.963715635865306E+05,      /* I = 14 */
(PID.TID 0000.0001)                 2.991805843171258E+05,      /* I = 15 */
(PID.TID 0000.0001)                 3.008638765647886E+05,      /* I = 16 */
(PID.TID 0000.0001)                 3.014246674484008E+05,      /* I = 17 */
(PID.TID 0000.0001)                 3.008638765647886E+05,      /* I = 18 */
(PID.TID 0000.0001)                 2.991805843171258E+05,      /* I = 19 */
(PID.TID 0000.0001)                 2.963715635865306E+05,      /* I = 20 */
(PID.TID 0000.0001)                 2.924298293668651E+05,      /* I = 21 */
(PID.TID 0000.0001)                 2.873420591008078E+05,      /* I = 22 */
(PID.TID 0000.0001)                 2.810845823202646E+05,      /* I = 23 */
(PID.TID 0000.0001)                 2.736173771018112E+05,      /* I = 24 */
(PID.TID 0000.0001)                 2.648750305193301E+05,      /* I = 25 */
(PID.TID 0000.0001)                 2.547526806712888E+05,      /* I = 26 */
(PID.TID 0000.0001)                 2.430829951739083E+05,      /* I = 27 */
(PID.TID 0000.0001)                 2.295958105911513E+05,      /* I = 28 */
(PID.TID 0000.0001)                 2.138410773065497E+05,      /* I = 29 */
(PID.TID 0000.0001)                 1.950254041626018E+05,      /* I = 30 */
(PID.TID 0000.0001)                 1.716197227386011E+05,      /* I = 31 */
(PID.TID 0000.0001)                 1.403701524205398E+05,      /* I = 32 */
(PID.TID 0000.0001)                 1.009837800879055E+05,      /* I = 33 */
(PID.TID 0000.0001)                 1.403701524205398E+05,      /* I = 34 */
(PID.TID 0000.0001)                 1.716197227386011E+05,      /* I = 35 */
(PID.TID 0000.0001)                 1.950254041626018E+05,      /* I = 36 */
(PID.TID 0000.0001)                 2.138410773065497E+05,      /* I = 37 */
(PID.TID 0000.0001)                 2.295958105911513E+05,      /* I = 38 */
(PID.TID 0000.0001)                 2.430829951739083E+05,      /* I = 39 */
(PID.TID 0000.0001)                 2.547526806712888E+05,      /* I = 40 */
(PID.TID 0000.0001)                 2.648750305193301E+05,      /* I = 41 */
(PID.TID 0000.0001)                 2.736173771018112E+05,      /* I = 42 */
(PID.TID 0000.0001)                 2.810845823202646E+05,      /* I = 43 */
(PID.TID 0000.0001)                 2.873420591008078E+05,      /* I = 44 */
(PID.TID 0000.0001)                 2.924298293668651E+05,      /* I = 45 */
(PID.TID 0000.0001)                 2.963715635865306E+05,      /* I = 46 */
(PID.TID 0000.0001)                 2.991805843171258E+05,      /* I = 47 */
(PID.TID 0000.0001)                 3.008638765647886E+05,      /* I = 48 */
(PID.TID 0000.0001)                 3.014246674484008E+05,      /* I = 49 */
(PID.TID 0000.0001)                 3.008638765647886E+05,      /* I = 50 */
(PID.TID 0000.0001)                 2.991805843171258E+05,      /* I = 51 */
(PID.TID 0000.0001)                 2.963715635865306E+05,      /* I = 52 */
(PID.TID 0000.0001)                 2.924298293668651E+05,      /* I = 53 */
(PID.TID 0000.0001)                 2.873420591008078E+05,      /* I = 54 */
(PID.TID 0000.0001)                 2.810845823202646E+05,      /* I = 55 */
(PID.TID 0000.0001)                 2.736173771018112E+05,      /* I = 56 */
(PID.TID 0000.0001)                 2.648750305193301E+05,      /* I = 57 */
(PID.TID 0000.0001)                 2.547526806712888E+05,      /* I = 58 */
(PID.TID 0000.0001)                 2.430829951739083E+05,      /* I = 59 */
(PID.TID 0000.0001)                 2.295958105911513E+05,      /* I = 60 */
(PID.TID 0000.0001)                 2.138410773065497E+05,      /* I = 61 */
(PID.TID 0000.0001)                 1.950254041626018E+05,      /* I = 62 */
(PID.TID 0000.0001)                 1.716197227386011E+05,      /* I = 63 */
(PID.TID 0000.0001)                 1.403701524205398E+05,      /* I = 64 */
(PID.TID 0000.0001)                 1.009837800879055E+05,      /* I = 65 */
(PID.TID 0000.0001)                 1.403701524205398E+05,      /* I = 66 */
(PID.TID 0000.0001)                 1.716197227386011E+05,      /* I = 67 */
(PID.TID 0000.0001)                 1.950254041626018E+05,      /* I = 68 */
(PID.TID 0000.0001)                 2.138410773065497E+05,      /* I = 69 */
(PID.TID 0000.0001)                 2.295958105911513E+05,      /* I = 70 */
(PID.TID 0000.0001)                 2.430829951739083E+05,      /* I = 71 */
(PID.TID 0000.0001)                 2.547526806712888E+05,      /* I = 72 */
(PID.TID 0000.0001)                 2.648750305193301E+05,      /* I = 73 */
(PID.TID 0000.0001)                 2.736173771018112E+05,      /* I = 74 */
(PID.TID 0000.0001)                 2.810845823202646E+05,      /* I = 75 */
(PID.TID 0000.0001)                 2.873420591008078E+05,      /* I = 76 */
(PID.TID 0000.0001)                 2.924298293668651E+05,      /* I = 77 */
(PID.TID 0000.0001)                 2.963715635865306E+05,      /* I = 78 */
(PID.TID 0000.0001)                 2.991805843171258E+05,      /* I = 79 */
(PID.TID 0000.0001)                 3.008638765647886E+05,      /* I = 80 */
(PID.TID 0000.0001)                 3.014246674484008E+05,      /* I = 81 */
(PID.TID 0000.0001)                 3.008638765647886E+05,      /* I = 82 */
(PID.TID 0000.0001)                 2.991805843171258E+05,      /* I = 83 */
(PID.TID 0000.0001)                 2.963715635865306E+05,      /* I = 84 */
(PID.TID 0000.0001)                 2.924298293668651E+05,      /* I = 85 */
(PID.TID 0000.0001)                 2.873420591008078E+05,      /* I = 86 */
(PID.TID 0000.0001)                 2.810845823202646E+05,      /* I = 87 */
(PID.TID 0000.0001)                 2.736173771018112E+05,      /* I = 88 */
(PID.TID 0000.0001)                 2.648750305193301E+05,      /* I = 89 */
(PID.TID 0000.0001)                 2.547526806712888E+05,      /* I = 90 */
(PID.TID 0000.0001)                 2.430829951739083E+05,      /* I = 91 */
(PID.TID 0000.0001)                 2.295958105911513E+05,      /* I = 92 */
(PID.TID 0000.0001)                 2.138410773065497E+05,      /* I = 93 */
(PID.TID 0000.0001)                 1.950254041626018E+05,      /* I = 94 */
(PID.TID 0000.0001)                 1.716197227386011E+05,      /* I = 95 */
(PID.TID 0000.0001)                 1.403701524205398E+05,      /* I = 96 */
(PID.TID 0000.0001)                 1.009837800879055E+05,      /* I = 97 */
(PID.TID 0000.0001)                 1.403701524205398E+05,      /* I = 98 */
(PID.TID 0000.0001)                 1.716197227386011E+05,      /* I = 99 */
(PID.TID 0000.0001)                 1.950254041626018E+05,      /* I =100 */
(PID.TID 0000.0001)                 2.138410773065497E+05,      /* I =101 */
(PID.TID 0000.0001)                 2.295958105911513E+05,      /* I =102 */
(PID.TID 0000.0001)                 2.430829951739083E+05,      /* I =103 */
(PID.TID 0000.0001)                 2.547526806712888E+05,      /* I =104 */
(PID.TID 0000.0001)                 2.648750305193301E+05,      /* I =105 */
(PID.TID 0000.0001)                 2.736173771018112E+05,      /* I =106 */
(PID.TID 0000.0001)                 2.810845823202646E+05,      /* I =107 */
(PID.TID 0000.0001)                 2.873420591008078E+05,      /* I =108 */
(PID.TID 0000.0001)                 2.924298293668651E+05,      /* I =109 */
(PID.TID 0000.0001)                 2.963715635865306E+05,      /* I =110 */
(PID.TID 0000.0001)                 2.991805843171258E+05,      /* I =111 */
(PID.TID 0000.0001)                 3.008638765647886E+05,      /* I =112 */
(PID.TID 0000.0001)                 3.014246674484008E+05,      /* I =113 */
(PID.TID 0000.0001)                 3.008638765647886E+05,      /* I =114 */
(PID.TID 0000.0001)                 2.991805843171258E+05,      /* I =115 */
(PID.TID 0000.0001)                 2.963715635865306E+05,      /* I =116 */
(PID.TID 0000.0001)                 2.924298293668651E+05,      /* I =117 */
(PID.TID 0000.0001)                 2.873420591008078E+05,      /* I =118 */
(PID.TID 0000.0001)                 2.810845823202646E+05,      /* I =119 */
(PID.TID 0000.0001)                 2.736173771018112E+05,      /* I =120 */
(PID.TID 0000.0001)                 2.648750305193301E+05,      /* I =121 */
(PID.TID 0000.0001)                 2.547526806712888E+05,      /* I =122 */
(PID.TID 0000.0001)                 2.430829951739083E+05,      /* I =123 */
(PID.TID 0000.0001)                 2.295958105911513E+05,      /* I =124 */
(PID.TID 0000.0001)                 2.138410773065497E+05,      /* I =125 */
(PID.TID 0000.0001)                 1.950254041626018E+05,      /* I =126 */
(PID.TID 0000.0001)                 1.716197227386011E+05,      /* I =127 */
(PID.TID 0000.0001)                 1.403701524205398E+05,      /* I =128 */
(PID.TID 0000.0001)                 1.009837800879055E+05,      /* I =129 */
(PID.TID 0000.0001)                 1.403701524205398E+05,      /* I =130 */
(PID.TID 0000.0001)                 1.716197227386011E+05,      /* I =131 */
(PID.TID 0000.0001)                 1.950254041626018E+05,      /* I =132 */
(PID.TID 0000.0001)                 2.138410773065497E+05,      /* I =133 */
(PID.TID 0000.0001)                 2.295958105911513E+05,      /* I =134 */
(PID.TID 0000.0001)                 2.430829951739083E+05,      /* I =135 */
(PID.TID 0000.0001)                 2.547526806712888E+05,      /* I =136 */
(PID.TID 0000.0001)                 2.648750305193301E+05,      /* I =137 */
(PID.TID 0000.0001)                 2.736173771018112E+05,      /* I =138 */
(PID.TID 0000.0001)                 2.810845823202646E+05,      /* I =139 */
(PID.TID 0000.0001)                 2.873420591008078E+05,      /* I =140 */
(PID.TID 0000.0001)                 2.924298293668651E+05,      /* I =141 */
(PID.TID 0000.0001)                 2.963715635865306E+05,      /* I =142 */
(PID.TID 0000.0001)                 2.991805843171258E+05,      /* I =143 */
(PID.TID 0000.0001)                 3.008638765647886E+05,      /* I =144 */
(PID.TID 0000.0001)                 3.014246674484008E+05,      /* I =145 */
(PID.TID 0000.0001)                 3.008638765647886E+05,      /* I =146 */
(PID.TID 0000.0001)                 2.991805843171258E+05,      /* I =147 */
(PID.TID 0000.0001)                 2.963715635865306E+05,      /* I =148 */
(PID.TID 0000.0001)                 2.924298293668651E+05,      /* I =149 */
(PID.TID 0000.0001)                 2.873420591008078E+05,      /* I =150 */
(PID.TID 0000.0001)                 2.810845823202646E+05,      /* I =151 */
(PID.TID 0000.0001)                 2.736173771018112E+05,      /* I =152 */
(PID.TID 0000.0001)                 2.648750305193301E+05,      /* I =153 */
(PID.TID 0000.0001)                 2.547526806712888E+05,      /* I =154 */
(PID.TID 0000.0001)                 2.430829951739083E+05,      /* I =155 */
(PID.TID 0000.0001)                 2.295958105911513E+05,      /* I =156 */
(PID.TID 0000.0001)                 2.138410773065497E+05,      /* I =157 */
(PID.TID 0000.0001)                 1.950254041626018E+05,      /* I =158 */
(PID.TID 0000.0001)                 1.716197227386011E+05,      /* I =159 */
(PID.TID 0000.0001)                 1.403701524205398E+05,      /* I =160 */
(PID.TID 0000.0001)                 1.009837800879055E+05,      /* I =161 */
(PID.TID 0000.0001)                 1.403701524205398E+05,      /* I =162 */
(PID.TID 0000.0001)                 1.716197227386011E+05,      /* I =163 */
(PID.TID 0000.0001)                 1.950254041626018E+05,      /* I =164 */
(PID.TID 0000.0001)                 2.138410773065497E+05,      /* I =165 */
(PID.TID 0000.0001)                 2.295958105911513E+05,      /* I =166 */
(PID.TID 0000.0001)                 2.430829951739083E+05,      /* I =167 */
(PID.TID 0000.0001)                 2.547526806712888E+05,      /* I =168 */
(PID.TID 0000.0001)                 2.648750305193301E+05,      /* I =169 */
(PID.TID 0000.0001)                 2.736173771018112E+05,      /* I =170 */
(PID.TID 0000.0001)                 2.810845823202646E+05,      /* I =171 */
(PID.TID 0000.0001)                 2.873420591008078E+05,      /* I =172 */
(PID.TID 0000.0001)                 2.924298293668651E+05,      /* I =173 */
(PID.TID 0000.0001)                 2.963715635865306E+05,      /* I =174 */
(PID.TID 0000.0001)                 2.991805843171258E+05,      /* I =175 */
(PID.TID 0000.0001)                 3.008638765647886E+05,      /* I =176 */
(PID.TID 0000.0001)                 3.014246674484008E+05,      /* I =177 */
(PID.TID 0000.0001)                 3.008638765647886E+05,      /* I =178 */
(PID.TID 0000.0001)                 2.991805843171258E+05,      /* I =179 */
(PID.TID 0000.0001)                 2.963715635865306E+05,      /* I =180 */
(PID.TID 0000.0001)                 2.924298293668651E+05,      /* I =181 */
(PID.TID 0000.0001)                 2.873420591008078E+05,      /* I =182 */
(PID.TID 0000.0001)                 2.810845823202646E+05,      /* I =183 */
(PID.TID 0000.0001)                 2.736173771018112E+05,      /* I =184 */
(PID.TID 0000.0001)                 2.648750305193301E+05,      /* I =185 */
(PID.TID 0000.0001)                 2.547526806712888E+05,      /* I =186 */
(PID.TID 0000.0001)                 2.430829951739083E+05,      /* I =187 */
(PID.TID 0000.0001)                 2.295958105911513E+05,      /* I =188 */
(PID.TID 0000.0001)                 2.138410773065497E+05,      /* I =189 */
(PID.TID 0000.0001)                 1.950254041626018E+05,      /* I =190 */
(PID.TID 0000.0001)                 1.716197227386011E+05,      /* I =191 */
(PID.TID 0000.0001)                 1.403701524205398E+05       /* I =192 */
(PID.TID 0000.0001)     ;
(PID.TID 0000.0001) dyG =  /* dyG(1,:,1,:) ( m - cartesian, degrees - spherical ) */
(PID.TID 0000.0001)                 1.009837800879055E+05,      /* J =  1 */
(PID.TID 0000.0001)                 1.534505834330337E+05,      /* J =  2 */
(PID.TID 0000.0001)                 1.823321598773926E+05,      /* J =  3 */
(PID.TID 0000.0001)                 2.038999045536999E+05,      /* J =  4 */
(PID.TID 0000.0001)                 2.213884732245467E+05,      /* J =  5 */
(PID.TID 0000.0001)                 2.361211699596122E+05,      /* J =  6 */
(PID.TID 0000.0001)                 2.487693460283865E+05,      /* J =  7 */
(PID.TID 0000.0001)                 2.597126963772146E+05,      /* J =  8 */
(PID.TID 0000.0001)                 2.691790288994575E+05,      /* J =  9 */
(PID.TID 0000.0001)                 2.773091043277394E+05,      /* J = 10 */
(PID.TID 0000.0001)                 2.841906470085516E+05,      /* J = 11 */
(PID.TID 0000.0001)                 2.898778860929753E+05,      /* J = 12 */
(PID.TID 0000.0001)                 2.944035815526417E+05,      /* J = 13 */
(PID.TID 0000.0001)                 2.977867909042096E+05,      /* J = 14 */
(PID.TID 0000.0001)                 3.000380090330854E+05,      /* J = 15 */
(PID.TID 0000.0001)     2 @  3.011625828699101E+05,             /* J = 16: 17 */
(PID.TID 0000.0001)                 3.000380090330854E+05,      /* J = 18 */
(PID.TID 0000.0001)                 2.977867909042096E+05,      /* J = 19 */
(PID.TID 0000.0001)                 2.944035815526417E+05,      /* J = 20 */
(PID.TID 0000.0001)                 2.898778860929753E+05,      /* J = 21 */
(PID.TID 0000.0001)                 2.841906470085516E+05,      /* J = 22 */
(PID.TID 0000.0001)                 2.773091043277394E+05,      /* J = 23 */
(PID.TID 0000.0001)                 2.691790288994575E+05,      /* J = 24 */
(PID.TID 0000.0001)                 2.597126963772146E+05,      /* J = 25 */
(PID.TID 0000.0001)                 2.487693460283865E+05,      /* J = 26 */
(PID.TID 0000.0001)                 2.361211699596122E+05,      /* J = 27 */
(PID.TID 0000.0001)                 2.213884732245467E+05,      /* J = 28 */
(PID.TID 0000.0001)                 2.038999045536999E+05,      /* J = 29 */
(PID.TID 0000.0001)                 1.823321598773926E+05,      /* J = 30 */
(PID.TID 0000.0001)                 1.534505834330337E+05,      /* J = 31 */
(PID.TID 0000.0001)                 1.009837800879055E+05       /* J = 32 */
(PID.TID 0000.0001)     ;
(PID.TID 0000.0001) dxC =  /* dxC(:,1,:,1) ( m - cartesian, degrees - spherical ) */
(PID.TID 0000.0001)                 1.114203141013064E+05,      /* I =  1 */
(PID.TID 0000.0001)                 1.391343389937105E+05,      /* I =  2 */
(PID.TID 0000.0001)                 1.709574999026266E+05,      /* I =  3 */
(PID.TID 0000.0001)                 1.946503699269892E+05,      /* I =  4 */
(PID.TID 0000.0001)                 2.135964483342134E+05,      /* I =  5 */
(PID.TID 0000.0001)                 2.294195678257306E+05,      /* I =  6 */
(PID.TID 0000.0001)                 2.429464709770498E+05,      /* I =  7 */
(PID.TID 0000.0001)                 2.546408290696998E+05,      /* I =  8 */
(PID.TID 0000.0001)                 2.647791839299727E+05,      /* I =  9 */
(PID.TID 0000.0001)                 2.735321911346108E+05,      /* I = 10 */
(PID.TID 0000.0001)                 2.810065951609633E+05,      /* I = 11 */
(PID.TID 0000.0001)                 2.872689479506989E+05,      /* I = 12 */
(PID.TID 0000.0001)                 2.923599955312932E+05,      /* I = 13 */
(PID.TID 0000.0001)                 2.963038832565530E+05,      /* I = 14 */
(PID.TID 0000.0001)                 2.991142470004740E+05,      /* I = 15 */
(PID.TID 0000.0001)                 3.007982711627968E+05,      /* I = 16 */
(PID.TID 0000.0001)                 3.013593857228136E+05,      /* I = 17 */
(PID.TID 0000.0001)                 3.007982711627968E+05,      /* I = 18 */
(PID.TID 0000.0001)                 2.991142470004740E+05,      /* I = 19 */
(PID.TID 0000.0001)                 2.963038832565530E+05,      /* I = 20 */
(PID.TID 0000.0001)                 2.923599955312932E+05,      /* I = 21 */
(PID.TID 0000.0001)                 2.872689479506989E+05,      /* I = 22 */
(PID.TID 0000.0001)                 2.810065951609633E+05,      /* I = 23 */
(PID.TID 0000.0001)                 2.735321911346108E+05,      /* I = 24 */
(PID.TID 0000.0001)                 2.647791839299727E+05,      /* I = 25 */
(PID.TID 0000.0001)                 2.546408290696998E+05,      /* I = 26 */
(PID.TID 0000.0001)                 2.429464709770498E+05,      /* I = 27 */
(PID.TID 0000.0001)                 2.294195678257306E+05,      /* I = 28 */
(PID.TID 0000.0001)                 2.135964483342134E+05,      /* I = 29 */
(PID.TID 0000.0001)                 1.946503699269892E+05,      /* I = 30 */
(PID.TID 0000.0001)                 1.709574999026266E+05,      /* I = 31 */
(PID.TID 0000.0001)                 1.391343389937105E+05,      /* I = 32 */
(PID.TID 0000.0001)                 1.114203141013064E+05,      /* I = 33 */
(PID.TID 0000.0001)                 1.391343389937105E+05,      /* I = 34 */
(PID.TID 0000.0001)                 1.709574999026266E+05,      /* I = 35 */
(PID.TID 0000.0001)                 1.946503699269892E+05,      /* I = 36 */
(PID.TID 0000.0001)                 2.135964483342134E+05,      /* I = 37 */
(PID.TID 0000.0001)                 2.294195678257306E+05,      /* I = 38 */
(PID.TID 0000.0001)                 2.429464709770498E+05,      /* I = 39 */
(PID.TID 0000.0001)                 2.546408290696998E+05,      /* I = 40 */
(PID.TID 0000.0001)                 2.647791839299727E+05,      /* I = 41 */
(PID.TID 0000.0001)                 2.735321911346108E+05,      /* I = 42 */
(PID.TID 0000.0001)                 2.810065951609633E+05,      /* I = 43 */
(PID.TID 0000.0001)                 2.872689479506989E+05,      /* I = 44 */
(PID.TID 0000.0001)                 2.923599955312932E+05,      /* I = 45 */
(PID.TID 0000.0001)                 2.963038832565530E+05,      /* I = 46 */
(PID.TID 0000.0001)                 2.991142470004740E+05,      /* I = 47 */
(PID.TID 0000.0001)                 3.007982711627968E+05,      /* I = 48 */
(PID.TID 0000.0001)                 3.013593857228136E+05,      /* I = 49 */
(PID.TID 0000.0001)                 3.007982711627968E+05,      /* I = 50 */
(PID.TID 0000.0001)                 2.991142470004740E+05,      /* I = 51 */
(PID.TID 0000.0001)                 2.963038832565530E+05,      /* I = 52 */
(PID.TID 0000.0001)                 2.923599955312932E+05,      /* I = 53 */
(PID.TID 0000.0001)                 2.872689479506989E+05,      /* I = 54 */
(PID.TID 0000.0001)                 2.810065951609633E+05,      /* I = 55 */
(PID.TID 0000.0001)                 2.735321911346108E+05,      /* I = 56 */
(PID.TID 0000.0001)                 2.647791839299727E+05,      /* I = 57 */
(PID.TID 0000.0001)                 2.546408290696998E+05,      /* I = 58 */
(PID.TID 0000.0001)                 2.429464709770498E+05,      /* I = 59 */
(PID.TID 0000.0001)                 2.294195678257306E+05,      /* I = 60 */
(PID.TID 0000.0001)                 2.135964483342134E+05,      /* I = 61 */
(PID.TID 0000.0001)                 1.946503699269892E+05,      /* I = 62 */
(PID.TID 0000.0001)                 1.709574999026266E+05,      /* I = 63 */
(PID.TID 0000.0001)                 1.391343389937105E+05,      /* I = 64 */
(PID.TID 0000.0001)                 1.114203141013064E+05,      /* I = 65 */
(PID.TID 0000.0001)                 1.391343389937105E+05,      /* I = 66 */
(PID.TID 0000.0001)                 1.709574999026266E+05,      /* I = 67 */
(PID.TID 0000.0001)                 1.946503699269892E+05,      /* I = 68 */
(PID.TID 0000.0001)                 2.135964483342134E+05,      /* I = 69 */
(PID.TID 0000.0001)                 2.294195678257306E+05,      /* I = 70 */
(PID.TID 0000.0001)                 2.429464709770498E+05,      /* I = 71 */
(PID.TID 0000.0001)                 2.546408290696998E+05,      /* I = 72 */
(PID.TID 0000.0001)                 2.647791839299727E+05,      /* I = 73 */
(PID.TID 0000.0001)                 2.735321911346108E+05,      /* I = 74 */
(PID.TID 0000.0001)                 2.810065951609633E+05,      /* I = 75 */
(PID.TID 0000.0001)                 2.872689479506989E+05,      /* I = 76 */
(PID.TID 0000.0001)                 2.923599955312932E+05,      /* I = 77 */
(PID.TID 0000.0001)                 2.963038832565530E+05,      /* I = 78 */
(PID.TID 0000.0001)                 2.991142470004740E+05,      /* I = 79 */
(PID.TID 0000.0001)                 3.007982711627968E+05,      /* I = 80 */
(PID.TID 0000.0001)                 3.013593857228136E+05,      /* I = 81 */
(PID.TID 0000.0001)                 3.007982711627968E+05,      /* I = 82 */
(PID.TID 0000.0001)                 2.991142470004740E+05,      /* I = 83 */
(PID.TID 0000.0001)                 2.963038832565530E+05,      /* I = 84 */
(PID.TID 0000.0001)                 2.923599955312932E+05,      /* I = 85 */
(PID.TID 0000.0001)                 2.872689479506989E+05,      /* I = 86 */
(PID.TID 0000.0001)                 2.810065951609633E+05,      /* I = 87 */
(PID.TID 0000.0001)                 2.735321911346108E+05,      /* I = 88 */
(PID.TID 0000.0001)                 2.647791839299727E+05,      /* I = 89 */
(PID.TID 0000.0001)                 2.546408290696998E+05,      /* I = 90 */
(PID.TID 0000.0001)                 2.429464709770498E+05,      /* I = 91 */
(PID.TID 0000.0001)                 2.294195678257306E+05,      /* I = 92 */
(PID.TID 0000.0001)                 2.135964483342134E+05,      /* I = 93 */
(PID.TID 0000.0001)                 1.946503699269892E+05,      /* I = 94 */
(PID.TID 0000.0001)                 1.709574999026266E+05,      /* I = 95 */
(PID.TID 0000.0001)                 1.391343389937105E+05,      /* I = 96 */
(PID.TID 0000.0001)                 1.114203141013064E+05,      /* I = 97 */
(PID.TID 0000.0001)                 1.391343389937105E+05,      /* I = 98 */
(PID.TID 0000.0001)                 1.709574999026266E+05,      /* I = 99 */
(PID.TID 0000.0001)                 1.946503699269892E+05,      /* I =100 */
(PID.TID 0000.0001)                 2.135964483342134E+05,      /* I =101 */
(PID.TID 0000.0001)                 2.294195678257306E+05,      /* I =102 */
(PID.TID 0000.0001)                 2.429464709770498E+05,      /* I =103 */
(PID.TID 0000.0001)                 2.546408290696998E+05,      /* I =104 */
(PID.TID 0000.0001)                 2.647791839299727E+05,      /* I =105 */
(PID.TID 0000.0001)                 2.735321911346108E+05,      /* I =106 */
(PID.TID 0000.0001)                 2.810065951609633E+05,      /* I =107 */
(PID.TID 0000.0001)                 2.872689479506989E+05,      /* I =108 */
(PID.TID 0000.0001)                 2.923599955312932E+05,      /* I =109 */
(PID.TID 0000.0001)                 2.963038832565530E+05,      /* I =110 */
(PID.TID 0000.0001)                 2.991142470004740E+05,      /* I =111 */
(PID.TID 0000.0001)                 3.007982711627968E+05,      /* I =112 */
(PID.TID 0000.0001)                 3.013593857228136E+05,      /* I =113 */
(PID.TID 0000.0001)                 3.007982711627968E+05,      /* I =114 */
(PID.TID 0000.0001)                 2.991142470004740E+05,      /* I =115 */
(PID.TID 0000.0001)                 2.963038832565530E+05,      /* I =116 */
(PID.TID 0000.0001)                 2.923599955312932E+05,      /* I =117 */
(PID.TID 0000.0001)                 2.872689479506989E+05,      /* I =118 */
(PID.TID 0000.0001)                 2.810065951609633E+05,      /* I =119 */
(PID.TID 0000.0001)                 2.735321911346108E+05,      /* I =120 */
(PID.TID 0000.0001)                 2.647791839299727E+05,      /* I =121 */
(PID.TID 0000.0001)                 2.546408290696998E+05,      /* I =122 */
(PID.TID 0000.0001)                 2.429464709770498E+05,      /* I =123 */
(PID.TID 0000.0001)                 2.294195678257306E+05,      /* I =124 */
(PID.TID 0000.0001)                 2.135964483342134E+05,      /* I =125 */
(PID.TID 0000.0001)                 1.946503699269892E+05,      /* I =126 */
(PID.TID 0000.0001)                 1.709574999026266E+05,      /* I =127 */
(PID.TID 0000.0001)                 1.391343389937105E+05,      /* I =128 */
(PID.TID 0000.0001)                 1.114203141013064E+05,      /* I =129 */
(PID.TID 0000.0001)                 1.391343389937105E+05,      /* I =130 */
(PID.TID 0000.0001)                 1.709574999026266E+05,      /* I =131 */
(PID.TID 0000.0001)                 1.946503699269892E+05,      /* I =132 */
(PID.TID 0000.0001)                 2.135964483342134E+05,      /* I =133 */
(PID.TID 0000.0001)                 2.294195678257306E+05,      /* I =134 */
(PID.TID 0000.0001)                 2.429464709770498E+05,      /* I =135 */
(PID.TID 0000.0001)                 2.546408290696998E+05,      /* I =136 */
(PID.TID 0000.0001)                 2.647791839299727E+05,      /* I =137 */
(PID.TID 0000.0001)                 2.735321911346108E+05,      /* I =138 */
(PID.TID 0000.0001)                 2.810065951609633E+05,      /* I =139 */
(PID.TID 0000.0001)                 2.872689479506989E+05,      /* I =140 */
(PID.TID 0000.0001)                 2.923599955312932E+05,      /* I =141 */
(PID.TID 0000.0001)                 2.963038832565530E+05,      /* I =142 */
(PID.TID 0000.0001)                 2.991142470004740E+05,      /* I =143 */
(PID.TID 0000.0001)                 3.007982711627968E+05,      /* I =144 */
(PID.TID 0000.0001)                 3.013593857228136E+05,      /* I =145 */
(PID.TID 0000.0001)                 3.007982711627968E+05,      /* I =146 */
(PID.TID 0000.0001)                 2.991142470004740E+05,      /* I =147 */
(PID.TID 0000.0001)                 2.963038832565530E+05,      /* I =148 */
(PID.TID 0000.0001)                 2.923599955312932E+05,      /* I =149 */
(PID.TID 0000.0001)                 2.872689479506989E+05,      /* I =150 */
(PID.TID 0000.0001)                 2.810065951609633E+05,      /* I =151 */
(PID.TID 0000.0001)                 2.735321911346108E+05,      /* I =152 */
(PID.TID 0000.0001)                 2.647791839299727E+05,      /* I =153 */
(PID.TID 0000.0001)                 2.546408290696998E+05,      /* I =154 */
(PID.TID 0000.0001)                 2.429464709770498E+05,      /* I =155 */
(PID.TID 0000.0001)                 2.294195678257306E+05,      /* I =156 */
(PID.TID 0000.0001)                 2.135964483342134E+05,      /* I =157 */
(PID.TID 0000.0001)                 1.946503699269892E+05,      /* I =158 */
(PID.TID 0000.0001)                 1.709574999026266E+05,      /* I =159 */
(PID.TID 0000.0001)                 1.391343389937105E+05,      /* I =160 */
(PID.TID 0000.0001)                 1.114203141013064E+05,      /* I =161 */
(PID.TID 0000.0001)                 1.391343389937105E+05,      /* I =162 */
(PID.TID 0000.0001)                 1.709574999026266E+05,      /* I =163 */
(PID.TID 0000.0001)                 1.946503699269892E+05,      /* I =164 */
(PID.TID 0000.0001)                 2.135964483342134E+05,      /* I =165 */
(PID.TID 0000.0001)                 2.294195678257306E+05,      /* I =166 */
(PID.TID 0000.0001)                 2.429464709770498E+05,      /* I =167 */
(PID.TID 0000.0001)                 2.546408290696998E+05,      /* I =168 */
(PID.TID 0000.0001)                 2.647791839299727E+05,      /* I =169 */
(PID.TID 0000.0001)                 2.735321911346108E+05,      /* I =170 */
(PID.TID 0000.0001)                 2.810065951609633E+05,      /* I =171 */
(PID.TID 0000.0001)                 2.872689479506989E+05,      /* I =172 */
(PID.TID 0000.0001)                 2.923599955312932E+05,      /* I =173 */
(PID.TID 0000.0001)                 2.963038832565530E+05,      /* I =174 */
(PID.TID 0000.0001)                 2.991142470004740E+05,      /* I =175 */
(PID.TID 0000.0001)                 3.007982711627968E+05,      /* I =176 */
(PID.TID 0000.0001)                 3.013593857228136E+05,      /* I =177 */
(PID.TID 0000.0001)                 3.007982711627968E+05,      /* I =178 */
(PID.TID 0000.0001)                 2.991142470004740E+05,      /* I =179 */
(PID.TID 0000.0001)                 2.963038832565530E+05,      /* I =180 */
(PID.TID 0000.0001)                 2.923599955312932E+05,      /* I =181 */
(PID.TID 0000.0001)                 2.872689479506989E+05,      /* I =182 */
(PID.TID 0000.0001)                 2.810065951609633E+05,      /* I =183 */
(PID.TID 0000.0001)                 2.735321911346108E+05,      /* I =184 */
(PID.TID 0000.0001)                 2.647791839299727E+05,      /* I =185 */
(PID.TID 0000.0001)                 2.546408290696998E+05,      /* I =186 */
(PID.TID 0000.0001)                 2.429464709770498E+05,      /* I =187 */
(PID.TID 0000.0001)                 2.294195678257306E+05,      /* I =188 */
(PID.TID 0000.0001)                 2.135964483342134E+05,      /* I =189 */
(PID.TID 0000.0001)                 1.946503699269892E+05,      /* I =190 */
(PID.TID 0000.0001)                 1.709574999026266E+05,      /* I =191 */
(PID.TID 0000.0001)                 1.391343389937105E+05       /* I =192 */
(PID.TID 0000.0001)     ;
(PID.TID 0000.0001) dxC =  /* dxC(1,:,1,:) ( m - cartesian, degrees - spherical ) */
(PID.TID 0000.0001)                 1.114203141013064E+05,      /* J =  1 */
(PID.TID 0000.0001)                 1.549545757850771E+05,      /* J =  2 */
(PID.TID 0000.0001)                 1.829777599966776E+05,      /* J =  3 */
(PID.TID 0000.0001)                 2.042717761866505E+05,      /* J =  4 */
(PID.TID 0000.0001)                 2.216367828252819E+05,      /* J =  5 */
(PID.TID 0000.0001)                 2.363029564123586E+05,      /* J =  6 */
(PID.TID 0000.0001)                 2.489113743322025E+05,      /* J =  7 */
(PID.TID 0000.0001)                 2.598293319150326E+05,      /* J =  8 */
(PID.TID 0000.0001)                 2.692787333338535E+05,      /* J =  9 */
(PID.TID 0000.0001)                 2.773972106720365E+05,      /* J = 10 */
(PID.TID 0000.0001)                 2.842706922224557E+05,      /* J = 11 */
(PID.TID 0000.0001)                 2.899523122489403E+05,      /* J = 12 */
(PID.TID 0000.0001)                 2.944741346384699E+05,      /* J = 13 */
(PID.TID 0000.0001)                 2.978547649292580E+05,      /* J = 14 */
(PID.TID 0000.0001)                 3.001044073506459E+05,      /* J = 15 */
(PID.TID 0000.0001)     2 @  3.012281885409289E+05,             /* J = 16: 17 */
(PID.TID 0000.0001)                 3.001044073506459E+05,      /* J = 18 */
(PID.TID 0000.0001)                 2.978547649292580E+05,      /* J = 19 */
(PID.TID 0000.0001)                 2.944741346384699E+05,      /* J = 20 */
(PID.TID 0000.0001)                 2.899523122489403E+05,      /* J = 21 */
(PID.TID 0000.0001)                 2.842706922224557E+05,      /* J = 22 */
(PID.TID 0000.0001)                 2.773972106720365E+05,      /* J = 23 */
(PID.TID 0000.0001)                 2.692787333338535E+05,      /* J = 24 */
(PID.TID 0000.0001)                 2.598293319150326E+05,      /* J = 25 */
(PID.TID 0000.0001)                 2.489113743322025E+05,      /* J = 26 */
(PID.TID 0000.0001)                 2.363029564123586E+05,      /* J = 27 */
(PID.TID 0000.0001)                 2.216367828252819E+05,      /* J = 28 */
(PID.TID 0000.0001)                 2.042717761866505E+05,      /* J = 29 */
(PID.TID 0000.0001)                 1.829777599966776E+05,      /* J = 30 */
(PID.TID 0000.0001)                 1.549545757850771E+05,      /* J = 31 */
(PID.TID 0000.0001)                 1.114203141013064E+05       /* J = 32 */
(PID.TID 0000.0001)     ;
(PID.TID 0000.0001) dyC =  /* dyC(:,1,:,1) ( m - cartesian, degrees - spherical ) */
(PID.TID 0000.0001)                 1.114203141013064E+05,      /* I =  1 */
(PID.TID 0000.0001)                 1.549545757850771E+05,      /* I =  2 */
(PID.TID 0000.0001)                 1.829777599966776E+05,      /* I =  3 */
(PID.TID 0000.0001)                 2.042717761866505E+05,      /* I =  4 */
(PID.TID 0000.0001)                 2.216367828252819E+05,      /* I =  5 */
(PID.TID 0000.0001)                 2.363029564123586E+05,      /* I =  6 */
(PID.TID 0000.0001)                 2.489113743322025E+05,      /* I =  7 */
(PID.TID 0000.0001)                 2.598293319150326E+05,      /* I =  8 */
(PID.TID 0000.0001)                 2.692787333338535E+05,      /* I =  9 */
(PID.TID 0000.0001)                 2.773972106720365E+05,      /* I = 10 */
(PID.TID 0000.0001)                 2.842706922224557E+05,      /* I = 11 */
(PID.TID 0000.0001)                 2.899523122489403E+05,      /* I = 12 */
(PID.TID 0000.0001)                 2.944741346384699E+05,      /* I = 13 */
(PID.TID 0000.0001)                 2.978547649292580E+05,      /* I = 14 */
(PID.TID 0000.0001)                 3.001044073506459E+05,      /* I = 15 */
(PID.TID 0000.0001)     2 @  3.012281885409289E+05,             /* I = 16: 17 */
(PID.TID 0000.0001)                 3.001044073506459E+05,      /* I = 18 */
(PID.TID 0000.0001)                 2.978547649292580E+05,      /* I = 19 */
(PID.TID 0000.0001)                 2.944741346384699E+05,      /* I = 20 */
(PID.TID 0000.0001)                 2.899523122489403E+05,      /* I = 21 */
(PID.TID 0000.0001)                 2.842706922224557E+05,      /* I = 22 */
(PID.TID 0000.0001)                 2.773972106720365E+05,      /* I = 23 */
(PID.TID 0000.0001)                 2.692787333338535E+05,      /* I = 24 */
(PID.TID 0000.0001)                 2.598293319150326E+05,      /* I = 25 */
(PID.TID 0000.0001)                 2.489113743322025E+05,      /* I = 26 */
(PID.TID 0000.0001)                 2.363029564123586E+05,      /* I = 27 */
(PID.TID 0000.0001)                 2.216367828252819E+05,      /* I = 28 */
(PID.TID 0000.0001)                 2.042717761866505E+05,      /* I = 29 */
(PID.TID 0000.0001)                 1.829777599966776E+05,      /* I = 30 */
(PID.TID 0000.0001)                 1.549545757850771E+05,      /* I = 31 */
(PID.TID 0000.0001)     2 @  1.114203141013064E+05,             /* I = 32: 33 */
(PID.TID 0000.0001)                 1.549545757850771E+05,      /* I = 34 */
(PID.TID 0000.0001)                 1.829777599966776E+05,      /* I = 35 */
(PID.TID 0000.0001)                 2.042717761866505E+05,      /* I = 36 */
(PID.TID 0000.0001)                 2.216367828252819E+05,      /* I = 37 */
(PID.TID 0000.0001)                 2.363029564123586E+05,      /* I = 38 */
(PID.TID 0000.0001)                 2.489113743322025E+05,      /* I = 39 */
(PID.TID 0000.0001)                 2.598293319150326E+05,      /* I = 40 */
(PID.TID 0000.0001)                 2.692787333338535E+05,      /* I = 41 */
(PID.TID 0000.0001)                 2.773972106720365E+05,      /* I = 42 */
(PID.TID 0000.0001)                 2.842706922224557E+05,      /* I = 43 */
(PID.TID 0000.0001)                 2.899523122489403E+05,      /* I = 44 */
(PID.TID 0000.0001)                 2.944741346384699E+05,      /* I = 45 */
(PID.TID 0000.0001)                 2.978547649292580E+05,      /* I = 46 */
(PID.TID 0000.0001)                 3.001044073506459E+05,      /* I = 47 */
(PID.TID 0000.0001)     2 @  3.012281885409289E+05,             /* I = 48: 49 */
(PID.TID 0000.0001)                 3.001044073506459E+05,      /* I = 50 */
(PID.TID 0000.0001)                 2.978547649292580E+05,      /* I = 51 */
(PID.TID 0000.0001)                 2.944741346384699E+05,      /* I = 52 */
(PID.TID 0000.0001)                 2.899523122489403E+05,      /* I = 53 */
(PID.TID 0000.0001)                 2.842706922224557E+05,      /* I = 54 */
(PID.TID 0000.0001)                 2.773972106720365E+05,      /* I = 55 */
(PID.TID 0000.0001)                 2.692787333338535E+05,      /* I = 56 */
(PID.TID 0000.0001)                 2.598293319150326E+05,      /* I = 57 */
(PID.TID 0000.0001)                 2.489113743322025E+05,      /* I = 58 */
(PID.TID 0000.0001)                 2.363029564123586E+05,      /* I = 59 */
(PID.TID 0000.0001)                 2.216367828252819E+05,      /* I = 60 */
(PID.TID 0000.0001)                 2.042717761866505E+05,      /* I = 61 */
(PID.TID 0000.0001)                 1.829777599966776E+05,      /* I = 62 */
(PID.TID 0000.0001)                 1.549545757850771E+05,      /* I = 63 */
(PID.TID 0000.0001)     2 @  1.114203141013064E+05,             /* I = 64: 65 */
(PID.TID 0000.0001)                 1.549545757850771E+05,      /* I = 66 */
(PID.TID 0000.0001)                 1.829777599966776E+05,      /* I = 67 */
(PID.TID 0000.0001)                 2.042717761866505E+05,      /* I = 68 */
(PID.TID 0000.0001)                 2.216367828252819E+05,      /* I = 69 */
(PID.TID 0000.0001)                 2.363029564123586E+05,      /* I = 70 */
(PID.TID 0000.0001)                 2.489113743322025E+05,      /* I = 71 */
(PID.TID 0000.0001)                 2.598293319150326E+05,      /* I = 72 */
(PID.TID 0000.0001)                 2.692787333338535E+05,      /* I = 73 */
(PID.TID 0000.0001)                 2.773972106720365E+05,      /* I = 74 */
(PID.TID 0000.0001)                 2.842706922224557E+05,      /* I = 75 */
(PID.TID 0000.0001)                 2.899523122489403E+05,      /* I = 76 */
(PID.TID 0000.0001)                 2.944741346384699E+05,      /* I = 77 */
(PID.TID 0000.0001)                 2.978547649292580E+05,      /* I = 78 */
(PID.TID 0000.0001)                 3.001044073506459E+05,      /* I = 79 */
(PID.TID 0000.0001)     2 @  3.012281885409289E+05,             /* I = 80: 81 */
(PID.TID 0000.0001)                 3.001044073506459E+05,      /* I = 82 */
(PID.TID 0000.0001)                 2.978547649292580E+05,      /* I = 83 */
(PID.TID 0000.0001)                 2.944741346384699E+05,      /* I = 84 */
(PID.TID 0000.0001)                 2.899523122489403E+05,      /* I = 85 */
(PID.TID 0000.0001)                 2.842706922224557E+05,      /* I = 86 */
(PID.TID 0000.0001)                 2.773972106720365E+05,      /* I = 87 */
(PID.TID 0000.0001)                 2.692787333338535E+05,      /* I = 88 */
(PID.TID 0000.0001)                 2.598293319150326E+05,      /* I = 89 */
(PID.TID 0000.0001)                 2.489113743322025E+05,      /* I = 90 */
(PID.TID 0000.0001)                 2.363029564123586E+05,      /* I = 91 */
(PID.TID 0000.0001)                 2.216367828252819E+05,      /* I = 92 */
(PID.TID 0000.0001)                 2.042717761866505E+05,      /* I = 93 */
(PID.TID 0000.0001)                 1.829777599966776E+05,      /* I = 94 */
(PID.TID 0000.0001)                 1.549545757850771E+05,      /* I = 95 */
(PID.TID 0000.0001)     2 @  1.114203141013064E+05,             /* I = 96: 97 */
(PID.TID 0000.0001)                 1.549545757850771E+05,      /* I = 98 */
(PID.TID 0000.0001)                 1.829777599966776E+05,      /* I = 99 */
(PID.TID 0000.0001)                 2.042717761866505E+05,      /* I =100 */
(PID.TID 0000.0001)                 2.216367828252819E+05,      /* I =101 */
(PID.TID 0000.0001)                 2.363029564123586E+05,      /* I =102 */
(PID.TID 0000.0001)                 2.489113743322025E+05,      /* I =103 */
(PID.TID 0000.0001)                 2.598293319150326E+05,      /* I =104 */
(PID.TID 0000.0001)                 2.692787333338535E+05,      /* I =105 */
(PID.TID 0000.0001)                 2.773972106720365E+05,      /* I =106 */
(PID.TID 0000.0001)                 2.842706922224557E+05,      /* I =107 */
(PID.TID 0000.0001)                 2.899523122489403E+05,      /* I =108 */
(PID.TID 0000.0001)                 2.944741346384699E+05,      /* I =109 */
(PID.TID 0000.0001)                 2.978547649292580E+05,      /* I =110 */
(PID.TID 0000.0001)                 3.001044073506459E+05,      /* I =111 */
(PID.TID 0000.0001)     2 @  3.012281885409289E+05,             /* I =112:113 */
(PID.TID 0000.0001)                 3.001044073506459E+05,      /* I =114 */
(PID.TID 0000.0001)                 2.978547649292580E+05,      /* I =115 */
(PID.TID 0000.0001)                 2.944741346384699E+05,      /* I =116 */
(PID.TID 0000.0001)                 2.899523122489403E+05,      /* I =117 */
(PID.TID 0000.0001)                 2.842706922224557E+05,      /* I =118 */
(PID.TID 0000.0001)                 2.773972106720365E+05,      /* I =119 */
(PID.TID 0000.0001)                 2.692787333338535E+05,      /* I =120 */
(PID.TID 0000.0001)                 2.598293319150326E+05,      /* I =121 */
(PID.TID 0000.0001)                 2.489113743322025E+05,      /* I =122 */
(PID.TID 0000.0001)                 2.363029564123586E+05,      /* I =123 */
(PID.TID 0000.0001)                 2.216367828252819E+05,      /* I =124 */
(PID.TID 0000.0001)                 2.042717761866505E+05,      /* I =125 */
(PID.TID 0000.0001)                 1.829777599966776E+05,      /* I =126 */
(PID.TID 0000.0001)                 1.549545757850771E+05,      /* I =127 */
(PID.TID 0000.0001)     2 @  1.114203141013064E+05,             /* I =128:129 */
(PID.TID 0000.0001)                 1.549545757850771E+05,      /* I =130 */
(PID.TID 0000.0001)                 1.829777599966776E+05,      /* I =131 */
(PID.TID 0000.0001)                 2.042717761866505E+05,      /* I =132 */
(PID.TID 0000.0001)                 2.216367828252819E+05,      /* I =133 */
(PID.TID 0000.0001)                 2.363029564123586E+05,      /* I =134 */
(PID.TID 0000.0001)                 2.489113743322025E+05,      /* I =135 */
(PID.TID 0000.0001)                 2.598293319150326E+05,      /* I =136 */
(PID.TID 0000.0001)                 2.692787333338535E+05,      /* I =137 */
(PID.TID 0000.0001)                 2.773972106720365E+05,      /* I =138 */
(PID.TID 0000.0001)                 2.842706922224557E+05,      /* I =139 */
(PID.TID 0000.0001)                 2.899523122489403E+05,      /* I =140 */
(PID.TID 0000.0001)                 2.944741346384699E+05,      /* I =141 */
(PID.TID 0000.0001)                 2.978547649292580E+05,      /* I =142 */
(PID.TID 0000.0001)                 3.001044073506459E+05,      /* I =143 */
(PID.TID 0000.0001)     2 @  3.012281885409289E+05,             /* I =144:145 */
(PID.TID 0000.0001)                 3.001044073506459E+05,      /* I =146 */
(PID.TID 0000.0001)                 2.978547649292580E+05,      /* I =147 */
(PID.TID 0000.0001)                 2.944741346384699E+05,      /* I =148 */
(PID.TID 0000.0001)                 2.899523122489403E+05,      /* I =149 */
(PID.TID 0000.0001)                 2.842706922224557E+05,      /* I =150 */
(PID.TID 0000.0001)                 2.773972106720365E+05,      /* I =151 */
(PID.TID 0000.0001)                 2.692787333338535E+05,      /* I =152 */
(PID.TID 0000.0001)                 2.598293319150326E+05,      /* I =153 */
(PID.TID 0000.0001)                 2.489113743322025E+05,      /* I =154 */
(PID.TID 0000.0001)                 2.363029564123586E+05,      /* I =155 */
(PID.TID 0000.0001)                 2.216367828252819E+05,      /* I =156 */
(PID.TID 0000.0001)                 2.042717761866505E+05,      /* I =157 */
(PID.TID 0000.0001)                 1.829777599966776E+05,      /* I =158 */
(PID.TID 0000.0001)                 1.549545757850771E+05,      /* I =159 */
(PID.TID 0000.0001)     2 @  1.114203141013064E+05,             /* I =160:161 */
(PID.TID 0000.0001)                 1.549545757850771E+05,      /* I =162 */
(PID.TID 0000.0001)                 1.829777599966776E+05,      /* I =163 */
(PID.TID 0000.0001)                 2.042717761866505E+05,      /* I =164 */
(PID.TID 0000.0001)                 2.216367828252819E+05,      /* I =165 */
(PID.TID 0000.0001)                 2.363029564123586E+05,      /* I =166 */
(PID.TID 0000.0001)                 2.489113743322025E+05,      /* I =167 */
(PID.TID 0000.0001)                 2.598293319150326E+05,      /* I =168 */
(PID.TID 0000.0001)                 2.692787333338535E+05,      /* I =169 */
(PID.TID 0000.0001)                 2.773972106720365E+05,      /* I =170 */
(PID.TID 0000.0001)                 2.842706922224557E+05,      /* I =171 */
(PID.TID 0000.0001)                 2.899523122489403E+05,      /* I =172 */
(PID.TID 0000.0001)                 2.944741346384699E+05,      /* I =173 */
(PID.TID 0000.0001)                 2.978547649292580E+05,      /* I =174 */
(PID.TID 0000.0001)                 3.001044073506459E+05,      /* I =175 */
(PID.TID 0000.0001)     2 @  3.012281885409289E+05,             /* I =176:177 */
(PID.TID 0000.0001)                 3.001044073506459E+05,      /* I =178 */
(PID.TID 0000.0001)                 2.978547649292580E+05,      /* I =179 */
(PID.TID 0000.0001)                 2.944741346384699E+05,      /* I =180 */
(PID.TID 0000.0001)                 2.899523122489403E+05,      /* I =181 */
(PID.TID 0000.0001)                 2.842706922224557E+05,      /* I =182 */
(PID.TID 0000.0001)                 2.773972106720365E+05,      /* I =183 */
(PID.TID 0000.0001)                 2.692787333338535E+05,      /* I =184 */
(PID.TID 0000.0001)                 2.598293319150326E+05,      /* I =185 */
(PID.TID 0000.0001)                 2.489113743322025E+05,      /* I =186 */
(PID.TID 0000.0001)                 2.363029564123586E+05,      /* I =187 */
(PID.TID 0000.0001)                 2.216367828252819E+05,      /* I =188 */
(PID.TID 0000.0001)                 2.042717761866505E+05,      /* I =189 */
(PID.TID 0000.0001)                 1.829777599966776E+05,      /* I =190 */
(PID.TID 0000.0001)                 1.549545757850771E+05,      /* I =191 */
(PID.TID 0000.0001)                 1.114203141013064E+05       /* I =192 */
(PID.TID 0000.0001)     ;
(PID.TID 0000.0001) dyC =  /* dyC(1,:,1,:) ( m - cartesian, degrees - spherical ) */
(PID.TID 0000.0001)                 1.114203141013064E+05,      /* J =  1 */
(PID.TID 0000.0001)                 1.391343389937105E+05,      /* J =  2 */
(PID.TID 0000.0001)                 1.709574999026266E+05,      /* J =  3 */
(PID.TID 0000.0001)                 1.946503699269892E+05,      /* J =  4 */
(PID.TID 0000.0001)                 2.135964483342134E+05,      /* J =  5 */
(PID.TID 0000.0001)                 2.294195678257306E+05,      /* J =  6 */
(PID.TID 0000.0001)                 2.429464709770498E+05,      /* J =  7 */
(PID.TID 0000.0001)                 2.546408290696998E+05,      /* J =  8 */
(PID.TID 0000.0001)                 2.647791839299727E+05,      /* J =  9 */
(PID.TID 0000.0001)                 2.735321911346108E+05,      /* J = 10 */
(PID.TID 0000.0001)                 2.810065951609633E+05,      /* J = 11 */
(PID.TID 0000.0001)                 2.872689479506989E+05,      /* J = 12 */
(PID.TID 0000.0001)                 2.923599955312932E+05,      /* J = 13 */
(PID.TID 0000.0001)                 2.963038832565530E+05,      /* J = 14 */
(PID.TID 0000.0001)                 2.991142470004740E+05,      /* J = 15 */
(PID.TID 0000.0001)                 3.007982711627968E+05,      /* J = 16 */
(PID.TID 0000.0001)                 3.013593857228136E+05,      /* J = 17 */
(PID.TID 0000.0001)                 3.007982711627968E+05,      /* J = 18 */
(PID.TID 0000.0001)                 2.991142470004740E+05,      /* J = 19 */
(PID.TID 0000.0001)                 2.963038832565530E+05,      /* J = 20 */
(PID.TID 0000.0001)                 2.923599955312932E+05,      /* J = 21 */
(PID.TID 0000.0001)                 2.872689479506989E+05,      /* J = 22 */
(PID.TID 0000.0001)                 2.810065951609633E+05,      /* J = 23 */
(PID.TID 0000.0001)                 2.735321911346108E+05,      /* J = 24 */
(PID.TID 0000.0001)                 2.647791839299727E+05,      /* J = 25 */
(PID.TID 0000.0001)                 2.546408290696998E+05,      /* J = 26 */
(PID.TID 0000.0001)                 2.429464709770498E+05,      /* J = 27 */
(PID.TID 0000.0001)                 2.294195678257306E+05,      /* J = 28 */
(PID.TID 0000.0001)                 2.135964483342134E+05,      /* J = 29 */
(PID.TID 0000.0001)                 1.946503699269892E+05,      /* J = 30 */
(PID.TID 0000.0001)                 1.709574999026266E+05,      /* J = 31 */
(PID.TID 0000.0001)                 1.391343389937105E+05       /* J = 32 */
(PID.TID 0000.0001)     ;
(PID.TID 0000.0001) dxV =  /* dxV(:,1,:,1) ( m - cartesian, degrees - spherical ) */
(PID.TID 0000.0001)                 8.015229982413632E+04,      /* I =  1 */
(PID.TID 0000.0001)                 1.333130744933864E+05,      /* I =  2 */
(PID.TID 0000.0001)                 1.691744868129062E+05,      /* I =  3 */
(PID.TID 0000.0001)                 1.937548202849059E+05,      /* I =  4 */
(PID.TID 0000.0001)                 2.130490056267208E+05,      /* I =  5 */
(PID.TID 0000.0001)                 2.290479919481738E+05,      /* I =  6 */
(PID.TID 0000.0001)                 2.426774358027004E+05,      /* I =  7 */
(PID.TID 0000.0001)                 2.544372984215561E+05,      /* I =  8 */
(PID.TID 0000.0001)                 2.646201463834826E+05,      /* I =  9 */
(PID.TID 0000.0001)                 2.734046499619030E+05,      /* I = 10 */
(PID.TID 0000.0001)                 2.809019351693761E+05,      /* I = 11 */
(PID.TID 0000.0001)                 2.871811105274442E+05,      /* I = 12 */
(PID.TID 0000.0001)                 2.922844849381675E+05,      /* I = 13 */
(PID.TID 0000.0001)                 2.962371870847826E+05,      /* I = 14 */
(PID.TID 0000.0001)                 2.990534755671296E+05,      /* I = 15 */
(PID.TID 0000.0001)                 3.007409169495504E+05,      /* I = 16 */
(PID.TID 0000.0001)                 3.013031486919771E+05,      /* I = 17 */
(PID.TID 0000.0001)                 3.007409169495504E+05,      /* I = 18 */
(PID.TID 0000.0001)                 2.990534755671296E+05,      /* I = 19 */
(PID.TID 0000.0001)                 2.962371870847826E+05,      /* I = 20 */
(PID.TID 0000.0001)                 2.922844849381675E+05,      /* I = 21 */
(PID.TID 0000.0001)                 2.871811105274442E+05,      /* I = 22 */
(PID.TID 0000.0001)                 2.809019351693761E+05,      /* I = 23 */
(PID.TID 0000.0001)                 2.734046499619030E+05,      /* I = 24 */
(PID.TID 0000.0001)                 2.646201463834826E+05,      /* I = 25 */
(PID.TID 0000.0001)                 2.544372984215561E+05,      /* I = 26 */
(PID.TID 0000.0001)                 2.426774358027004E+05,      /* I = 27 */
(PID.TID 0000.0001)                 2.290479919481738E+05,      /* I = 28 */
(PID.TID 0000.0001)                 2.130490056267208E+05,      /* I = 29 */
(PID.TID 0000.0001)                 1.937548202849059E+05,      /* I = 30 */
(PID.TID 0000.0001)                 1.691744868129062E+05,      /* I = 31 */
(PID.TID 0000.0001)                 1.333130744933864E+05,      /* I = 32 */
(PID.TID 0000.0001)                 8.015229982413632E+04,      /* I = 33 */
(PID.TID 0000.0001)                 1.333130744933864E+05,      /* I = 34 */
(PID.TID 0000.0001)                 1.691744868129062E+05,      /* I = 35 */
(PID.TID 0000.0001)                 1.937548202849059E+05,      /* I = 36 */
(PID.TID 0000.0001)                 2.130490056267208E+05,      /* I = 37 */
(PID.TID 0000.0001)                 2.290479919481738E+05,      /* I = 38 */
(PID.TID 0000.0001)                 2.426774358027004E+05,      /* I = 39 */
(PID.TID 0000.0001)                 2.544372984215561E+05,      /* I = 40 */
(PID.TID 0000.0001)                 2.646201463834826E+05,      /* I = 41 */
(PID.TID 0000.0001)                 2.734046499619030E+05,      /* I = 42 */
(PID.TID 0000.0001)                 2.809019351693761E+05,      /* I = 43 */
(PID.TID 0000.0001)                 2.871811105274442E+05,      /* I = 44 */
(PID.TID 0000.0001)                 2.922844849381675E+05,      /* I = 45 */
(PID.TID 0000.0001)                 2.962371870847826E+05,      /* I = 46 */
(PID.TID 0000.0001)                 2.990534755671296E+05,      /* I = 47 */
(PID.TID 0000.0001)                 3.007409169495504E+05,      /* I = 48 */
(PID.TID 0000.0001)                 3.013031486919771E+05,      /* I = 49 */
(PID.TID 0000.0001)                 3.007409169495504E+05,      /* I = 50 */
(PID.TID 0000.0001)                 2.990534755671296E+05,      /* I = 51 */
(PID.TID 0000.0001)                 2.962371870847826E+05,      /* I = 52 */
(PID.TID 0000.0001)                 2.922844849381675E+05,      /* I = 53 */
(PID.TID 0000.0001)                 2.871811105274442E+05,      /* I = 54 */
(PID.TID 0000.0001)                 2.809019351693761E+05,      /* I = 55 */
(PID.TID 0000.0001)                 2.734046499619030E+05,      /* I = 56 */
(PID.TID 0000.0001)                 2.646201463834826E+05,      /* I = 57 */
(PID.TID 0000.0001)                 2.544372984215561E+05,      /* I = 58 */
(PID.TID 0000.0001)                 2.426774358027004E+05,      /* I = 59 */
(PID.TID 0000.0001)                 2.290479919481738E+05,      /* I = 60 */
(PID.TID 0000.0001)                 2.130490056267208E+05,      /* I = 61 */
(PID.TID 0000.0001)                 1.937548202849059E+05,      /* I = 62 */
(PID.TID 0000.0001)                 1.691744868129062E+05,      /* I = 63 */
(PID.TID 0000.0001)                 1.333130744933864E+05,      /* I = 64 */
(PID.TID 0000.0001)                 8.015229982413632E+04,      /* I = 65 */
(PID.TID 0000.0001)                 1.333130744933864E+05,      /* I = 66 */
(PID.TID 0000.0001)                 1.691744868129062E+05,      /* I = 67 */
(PID.TID 0000.0001)                 1.937548202849059E+05,      /* I = 68 */
(PID.TID 0000.0001)                 2.130490056267208E+05,      /* I = 69 */
(PID.TID 0000.0001)                 2.290479919481738E+05,      /* I = 70 */
(PID.TID 0000.0001)                 2.426774358027004E+05,      /* I = 71 */
(PID.TID 0000.0001)                 2.544372984215561E+05,      /* I = 72 */
(PID.TID 0000.0001)                 2.646201463834826E+05,      /* I = 73 */
(PID.TID 0000.0001)                 2.734046499619030E+05,      /* I = 74 */
(PID.TID 0000.0001)                 2.809019351693761E+05,      /* I = 75 */
(PID.TID 0000.0001)                 2.871811105274442E+05,      /* I = 76 */
(PID.TID 0000.0001)                 2.922844849381675E+05,      /* I = 77 */
(PID.TID 0000.0001)                 2.962371870847826E+05,      /* I = 78 */
(PID.TID 0000.0001)                 2.990534755671296E+05,      /* I = 79 */
(PID.TID 0000.0001)                 3.007409169495504E+05,      /* I = 80 */
(PID.TID 0000.0001)                 3.013031486919771E+05,      /* I = 81 */
(PID.TID 0000.0001)                 3.007409169495504E+05,      /* I = 82 */
(PID.TID 0000.0001)                 2.990534755671296E+05,      /* I = 83 */
(PID.TID 0000.0001)                 2.962371870847826E+05,      /* I = 84 */
(PID.TID 0000.0001)                 2.922844849381675E+05,      /* I = 85 */
(PID.TID 0000.0001)                 2.871811105274442E+05,      /* I = 86 */
(PID.TID 0000.0001)                 2.809019351693761E+05,      /* I = 87 */
(PID.TID 0000.0001)                 2.734046499619030E+05,      /* I = 88 */
(PID.TID 0000.0001)                 2.646201463834826E+05,      /* I = 89 */
(PID.TID 0000.0001)                 2.544372984215561E+05,      /* I = 90 */
(PID.TID 0000.0001)                 2.426774358027004E+05,      /* I = 91 */
(PID.TID 0000.0001)                 2.290479919481738E+05,      /* I = 92 */
(PID.TID 0000.0001)                 2.130490056267208E+05,      /* I = 93 */
(PID.TID 0000.0001)                 1.937548202849059E+05,      /* I = 94 */
(PID.TID 0000.0001)                 1.691744868129062E+05,      /* I = 95 */
(PID.TID 0000.0001)                 1.333130744933864E+05,      /* I = 96 */
(PID.TID 0000.0001)                 8.015229982413632E+04,      /* I = 97 */
(PID.TID 0000.0001)                 1.333130744933864E+05,      /* I = 98 */
(PID.TID 0000.0001)                 1.691744868129062E+05,      /* I = 99 */
(PID.TID 0000.0001)                 1.937548202849059E+05,      /* I =100 */
(PID.TID 0000.0001)                 2.130490056267208E+05,      /* I =101 */
(PID.TID 0000.0001)                 2.290479919481738E+05,      /* I =102 */
(PID.TID 0000.0001)                 2.426774358027004E+05,      /* I =103 */
(PID.TID 0000.0001)                 2.544372984215561E+05,      /* I =104 */
(PID.TID 0000.0001)                 2.646201463834826E+05,      /* I =105 */
(PID.TID 0000.0001)                 2.734046499619030E+05,      /* I =106 */
(PID.TID 0000.0001)                 2.809019351693761E+05,      /* I =107 */
(PID.TID 0000.0001)                 2.871811105274442E+05,      /* I =108 */
(PID.TID 0000.0001)                 2.922844849381675E+05,      /* I =109 */
(PID.TID 0000.0001)                 2.962371870847826E+05,      /* I =110 */
(PID.TID 0000.0001)                 2.990534755671296E+05,      /* I =111 */
(PID.TID 0000.0001)                 3.007409169495504E+05,      /* I =112 */
(PID.TID 0000.0001)                 3.013031486919771E+05,      /* I =113 */
(PID.TID 0000.0001)                 3.007409169495504E+05,      /* I =114 */
(PID.TID 0000.0001)                 2.990534755671296E+05,      /* I =115 */
(PID.TID 0000.0001)                 2.962371870847826E+05,      /* I =116 */
(PID.TID 0000.0001)                 2.922844849381675E+05,      /* I =117 */
(PID.TID 0000.0001)                 2.871811105274442E+05,      /* I =118 */
(PID.TID 0000.0001)                 2.809019351693761E+05,      /* I =119 */
(PID.TID 0000.0001)                 2.734046499619030E+05,      /* I =120 */
(PID.TID 0000.0001)                 2.646201463834826E+05,      /* I =121 */
(PID.TID 0000.0001)                 2.544372984215561E+05,      /* I =122 */
(PID.TID 0000.0001)                 2.426774358027004E+05,      /* I =123 */
(PID.TID 0000.0001)                 2.290479919481738E+05,      /* I =124 */
(PID.TID 0000.0001)                 2.130490056267208E+05,      /* I =125 */
(PID.TID 0000.0001)                 1.937548202849059E+05,      /* I =126 */
(PID.TID 0000.0001)                 1.691744868129062E+05,      /* I =127 */
(PID.TID 0000.0001)                 1.333130744933864E+05,      /* I =128 */
(PID.TID 0000.0001)                 8.015229982413632E+04,      /* I =129 */
(PID.TID 0000.0001)                 1.333130744933864E+05,      /* I =130 */
(PID.TID 0000.0001)                 1.691744868129062E+05,      /* I =131 */
(PID.TID 0000.0001)                 1.937548202849059E+05,      /* I =132 */
(PID.TID 0000.0001)                 2.130490056267208E+05,      /* I =133 */
(PID.TID 0000.0001)                 2.290479919481738E+05,      /* I =134 */
(PID.TID 0000.0001)                 2.426774358027004E+05,      /* I =135 */
(PID.TID 0000.0001)                 2.544372984215561E+05,      /* I =136 */
(PID.TID 0000.0001)                 2.646201463834826E+05,      /* I =137 */
(PID.TID 0000.0001)                 2.734046499619030E+05,      /* I =138 */
(PID.TID 0000.0001)                 2.809019351693761E+05,      /* I =139 */
(PID.TID 0000.0001)                 2.871811105274442E+05,      /* I =140 */
(PID.TID 0000.0001)                 2.922844849381675E+05,      /* I =141 */
(PID.TID 0000.0001)                 2.962371870847826E+05,      /* I =142 */
(PID.TID 0000.0001)                 2.990534755671296E+05,      /* I =143 */
(PID.TID 0000.0001)                 3.007409169495504E+05,      /* I =144 */
(PID.TID 0000.0001)                 3.013031486919771E+05,      /* I =145 */
(PID.TID 0000.0001)                 3.007409169495504E+05,      /* I =146 */
(PID.TID 0000.0001)                 2.990534755671296E+05,      /* I =147 */
(PID.TID 0000.0001)                 2.962371870847826E+05,      /* I =148 */
(PID.TID 0000.0001)                 2.922844849381675E+05,      /* I =149 */
(PID.TID 0000.0001)                 2.871811105274442E+05,      /* I =150 */
(PID.TID 0000.0001)                 2.809019351693761E+05,      /* I =151 */
(PID.TID 0000.0001)                 2.734046499619030E+05,      /* I =152 */
(PID.TID 0000.0001)                 2.646201463834826E+05,      /* I =153 */
(PID.TID 0000.0001)                 2.544372984215561E+05,      /* I =154 */
(PID.TID 0000.0001)                 2.426774358027004E+05,      /* I =155 */
(PID.TID 0000.0001)                 2.290479919481738E+05,      /* I =156 */
(PID.TID 0000.0001)                 2.130490056267208E+05,      /* I =157 */
(PID.TID 0000.0001)                 1.937548202849059E+05,      /* I =158 */
(PID.TID 0000.0001)                 1.691744868129062E+05,      /* I =159 */
(PID.TID 0000.0001)                 1.333130744933864E+05,      /* I =160 */
(PID.TID 0000.0001)                 8.015229982413632E+04,      /* I =161 */
(PID.TID 0000.0001)                 1.333130744933864E+05,      /* I =162 */
(PID.TID 0000.0001)                 1.691744868129062E+05,      /* I =163 */
(PID.TID 0000.0001)                 1.937548202849059E+05,      /* I =164 */
(PID.TID 0000.0001)                 2.130490056267208E+05,      /* I =165 */
(PID.TID 0000.0001)                 2.290479919481738E+05,      /* I =166 */
(PID.TID 0000.0001)                 2.426774358027004E+05,      /* I =167 */
(PID.TID 0000.0001)                 2.544372984215561E+05,      /* I =168 */
(PID.TID 0000.0001)                 2.646201463834826E+05,      /* I =169 */
(PID.TID 0000.0001)                 2.734046499619030E+05,      /* I =170 */
(PID.TID 0000.0001)                 2.809019351693761E+05,      /* I =171 */
(PID.TID 0000.0001)                 2.871811105274442E+05,      /* I =172 */
(PID.TID 0000.0001)                 2.922844849381675E+05,      /* I =173 */
(PID.TID 0000.0001)                 2.962371870847826E+05,      /* I =174 */
(PID.TID 0000.0001)                 2.990534755671296E+05,      /* I =175 */
(PID.TID 0000.0001)                 3.007409169495504E+05,      /* I =176 */
(PID.TID 0000.0001)                 3.013031486919771E+05,      /* I =177 */
(PID.TID 0000.0001)                 3.007409169495504E+05,      /* I =178 */
(PID.TID 0000.0001)                 2.990534755671296E+05,      /* I =179 */
(PID.TID 0000.0001)                 2.962371870847826E+05,      /* I =180 */
(PID.TID 0000.0001)                 2.922844849381675E+05,      /* I =181 */
(PID.TID 0000.0001)                 2.871811105274442E+05,      /* I =182 */
(PID.TID 0000.0001)                 2.809019351693761E+05,      /* I =183 */
(PID.TID 0000.0001)                 2.734046499619030E+05,      /* I =184 */
(PID.TID 0000.0001)                 2.646201463834826E+05,      /* I =185 */
(PID.TID 0000.0001)                 2.544372984215561E+05,      /* I =186 */
(PID.TID 0000.0001)                 2.426774358027004E+05,      /* I =187 */
(PID.TID 0000.0001)                 2.290479919481738E+05,      /* I =188 */
(PID.TID 0000.0001)                 2.130490056267208E+05,      /* I =189 */
(PID.TID 0000.0001)                 1.937548202849059E+05,      /* I =190 */
(PID.TID 0000.0001)                 1.691744868129062E+05,      /* I =191 */
(PID.TID 0000.0001)                 1.333130744933864E+05       /* I =192 */
(PID.TID 0000.0001)     ;
(PID.TID 0000.0001) dxV =  /* dxV(1,:,1,:) ( m - cartesian, degrees - spherical ) */
(PID.TID 0000.0001)                 8.015229982413632E+04,      /* J =  1 */
(PID.TID 0000.0001)                 1.362652340208229E+05,      /* J =  2 */
(PID.TID 0000.0001)                 1.701080315742101E+05,      /* J =  3 */
(PID.TID 0000.0001)                 1.942331448101592E+05,      /* J =  4 */
(PID.TID 0000.0001)                 2.133486626971531E+05,      /* J =  5 */
(PID.TID 0000.0001)                 2.292584591272880E+05,      /* J =  6 */
(PID.TID 0000.0001)                 2.428369969078989E+05,      /* J =  7 */
(PID.TID 0000.0001)                 2.545652950875683E+05,      /* J =  8 */
(PID.TID 0000.0001)                 2.647274964828302E+05,      /* J =  9 */
(PID.TID 0000.0001)                 2.734980225206389E+05,      /* J = 10 */
(PID.TID 0000.0001)                 2.809856491525217E+05,      /* J = 11 */
(PID.TID 0000.0001)                 2.872580915202295E+05,      /* J = 12 */
(PID.TID 0000.0001)                 2.923567890694162E+05,      /* J = 13 */
(PID.TID 0000.0001)                 2.963063101754721E+05,      /* J = 14 */
(PID.TID 0000.0001)                 2.991205495886625E+05,      /* J = 15 */
(PID.TID 0000.0001)                 3.008068453676764E+05,      /* J = 16 */
(PID.TID 0000.0001)                 3.013686170436881E+05,      /* J = 17 */
(PID.TID 0000.0001)                 3.008068453676764E+05,      /* J = 18 */
(PID.TID 0000.0001)                 2.991205495886625E+05,      /* J = 19 */
(PID.TID 0000.0001)                 2.963063101754721E+05,      /* J = 20 */
(PID.TID 0000.0001)                 2.923567890694162E+05,      /* J = 21 */
(PID.TID 0000.0001)                 2.872580915202295E+05,      /* J = 22 */
(PID.TID 0000.0001)                 2.809856491525217E+05,      /* J = 23 */
(PID.TID 0000.0001)                 2.734980225206389E+05,      /* J = 24 */
(PID.TID 0000.0001)                 2.647274964828302E+05,      /* J = 25 */
(PID.TID 0000.0001)                 2.545652950875683E+05,      /* J = 26 */
(PID.TID 0000.0001)                 2.428369969078989E+05,      /* J = 27 */
(PID.TID 0000.0001)                 2.292584591272880E+05,      /* J = 28 */
(PID.TID 0000.0001)                 2.133486626971531E+05,      /* J = 29 */
(PID.TID 0000.0001)                 1.942331448101592E+05,      /* J = 30 */
(PID.TID 0000.0001)                 1.701080315742101E+05,      /* J = 31 */
(PID.TID 0000.0001)                 1.362652340208229E+05       /* J = 32 */
(PID.TID 0000.0001)     ;
(PID.TID 0000.0001) dyU =  /* dyU(:,1,:,1) ( m - cartesian, degrees - spherical ) */
(PID.TID 0000.0001)                 8.015229982413632E+04,      /* I =  1 */
(PID.TID 0000.0001)                 1.362652340208229E+05,      /* I =  2 */
(PID.TID 0000.0001)                 1.701080315742101E+05,      /* I =  3 */
(PID.TID 0000.0001)                 1.942331448101592E+05,      /* I =  4 */
(PID.TID 0000.0001)                 2.133486626971531E+05,      /* I =  5 */
(PID.TID 0000.0001)                 2.292584591272880E+05,      /* I =  6 */
(PID.TID 0000.0001)                 2.428369969078989E+05,      /* I =  7 */
(PID.TID 0000.0001)                 2.545652950875683E+05,      /* I =  8 */
(PID.TID 0000.0001)                 2.647274964828302E+05,      /* I =  9 */
(PID.TID 0000.0001)                 2.734980225206389E+05,      /* I = 10 */
(PID.TID 0000.0001)                 2.809856491525217E+05,      /* I = 11 */
(PID.TID 0000.0001)                 2.872580915202295E+05,      /* I = 12 */
(PID.TID 0000.0001)                 2.923567890694162E+05,      /* I = 13 */
(PID.TID 0000.0001)                 2.963063101754721E+05,      /* I = 14 */
(PID.TID 0000.0001)                 2.991205495886625E+05,      /* I = 15 */
(PID.TID 0000.0001)                 3.008068453676764E+05,      /* I = 16 */
(PID.TID 0000.0001)                 3.013686170436881E+05,      /* I = 17 */
(PID.TID 0000.0001)                 3.008068453676764E+05,      /* I = 18 */
(PID.TID 0000.0001)                 2.991205495886625E+05,      /* I = 19 */
(PID.TID 0000.0001)                 2.963063101754721E+05,      /* I = 20 */
(PID.TID 0000.0001)                 2.923567890694162E+05,      /* I = 21 */
(PID.TID 0000.0001)                 2.872580915202295E+05,      /* I = 22 */
(PID.TID 0000.0001)                 2.809856491525217E+05,      /* I = 23 */
(PID.TID 0000.0001)                 2.734980225206389E+05,      /* I = 24 */
(PID.TID 0000.0001)                 2.647274964828302E+05,      /* I = 25 */
(PID.TID 0000.0001)                 2.545652950875683E+05,      /* I = 26 */
(PID.TID 0000.0001)                 2.428369969078989E+05,      /* I = 27 */
(PID.TID 0000.0001)                 2.292584591272880E+05,      /* I = 28 */
(PID.TID 0000.0001)                 2.133486626971531E+05,      /* I = 29 */
(PID.TID 0000.0001)                 1.942331448101592E+05,      /* I = 30 */
(PID.TID 0000.0001)                 1.701080315742101E+05,      /* I = 31 */
(PID.TID 0000.0001)                 1.362652340208229E+05,      /* I = 32 */
(PID.TID 0000.0001)                 8.015229982413632E+04,      /* I = 33 */
(PID.TID 0000.0001)                 1.362652340208229E+05,      /* I = 34 */
(PID.TID 0000.0001)                 1.701080315742101E+05,      /* I = 35 */
(PID.TID 0000.0001)                 1.942331448101592E+05,      /* I = 36 */
(PID.TID 0000.0001)                 2.133486626971531E+05,      /* I = 37 */
(PID.TID 0000.0001)                 2.292584591272880E+05,      /* I = 38 */
(PID.TID 0000.0001)                 2.428369969078989E+05,      /* I = 39 */
(PID.TID 0000.0001)                 2.545652950875683E+05,      /* I = 40 */
(PID.TID 0000.0001)                 2.647274964828302E+05,      /* I = 41 */
(PID.TID 0000.0001)                 2.734980225206389E+05,      /* I = 42 */
(PID.TID 0000.0001)                 2.809856491525217E+05,      /* I = 43 */
(PID.TID 0000.0001)                 2.872580915202295E+05,      /* I = 44 */
(PID.TID 0000.0001)                 2.923567890694162E+05,      /* I = 45 */
(PID.TID 0000.0001)                 2.963063101754721E+05,      /* I = 46 */
(PID.TID 0000.0001)                 2.991205495886625E+05,      /* I = 47 */
(PID.TID 0000.0001)                 3.008068453676764E+05,      /* I = 48 */
(PID.TID 0000.0001)                 3.013686170436881E+05,      /* I = 49 */
(PID.TID 0000.0001)                 3.008068453676764E+05,      /* I = 50 */
(PID.TID 0000.0001)                 2.991205495886625E+05,      /* I = 51 */
(PID.TID 0000.0001)                 2.963063101754721E+05,      /* I = 52 */
(PID.TID 0000.0001)                 2.923567890694162E+05,      /* I = 53 */
(PID.TID 0000.0001)                 2.872580915202295E+05,      /* I = 54 */
(PID.TID 0000.0001)                 2.809856491525217E+05,      /* I = 55 */
(PID.TID 0000.0001)                 2.734980225206389E+05,      /* I = 56 */
(PID.TID 0000.0001)                 2.647274964828302E+05,      /* I = 57 */
(PID.TID 0000.0001)                 2.545652950875683E+05,      /* I = 58 */
(PID.TID 0000.0001)                 2.428369969078989E+05,      /* I = 59 */
(PID.TID 0000.0001)                 2.292584591272880E+05,      /* I = 60 */
(PID.TID 0000.0001)                 2.133486626971531E+05,      /* I = 61 */
(PID.TID 0000.0001)                 1.942331448101592E+05,      /* I = 62 */
(PID.TID 0000.0001)                 1.701080315742101E+05,      /* I = 63 */
(PID.TID 0000.0001)                 1.362652340208229E+05,      /* I = 64 */
(PID.TID 0000.0001)                 8.015229982413632E+04,      /* I = 65 */
(PID.TID 0000.0001)                 1.362652340208229E+05,      /* I = 66 */
(PID.TID 0000.0001)                 1.701080315742101E+05,      /* I = 67 */
(PID.TID 0000.0001)                 1.942331448101592E+05,      /* I = 68 */
(PID.TID 0000.0001)                 2.133486626971531E+05,      /* I = 69 */
(PID.TID 0000.0001)                 2.292584591272880E+05,      /* I = 70 */
(PID.TID 0000.0001)                 2.428369969078989E+05,      /* I = 71 */
(PID.TID 0000.0001)                 2.545652950875683E+05,      /* I = 72 */
(PID.TID 0000.0001)                 2.647274964828302E+05,      /* I = 73 */
(PID.TID 0000.0001)                 2.734980225206389E+05,      /* I = 74 */
(PID.TID 0000.0001)                 2.809856491525217E+05,      /* I = 75 */
(PID.TID 0000.0001)                 2.872580915202295E+05,      /* I = 76 */
(PID.TID 0000.0001)                 2.923567890694162E+05,      /* I = 77 */
(PID.TID 0000.0001)                 2.963063101754721E+05,      /* I = 78 */
(PID.TID 0000.0001)                 2.991205495886625E+05,      /* I = 79 */
(PID.TID 0000.0001)                 3.008068453676764E+05,      /* I = 80 */
(PID.TID 0000.0001)                 3.013686170436881E+05,      /* I = 81 */
(PID.TID 0000.0001)                 3.008068453676764E+05,      /* I = 82 */
(PID.TID 0000.0001)                 2.991205495886625E+05,      /* I = 83 */
(PID.TID 0000.0001)                 2.963063101754721E+05,      /* I = 84 */
(PID.TID 0000.0001)                 2.923567890694162E+05,      /* I = 85 */
(PID.TID 0000.0001)                 2.872580915202295E+05,      /* I = 86 */
(PID.TID 0000.0001)                 2.809856491525217E+05,      /* I = 87 */
(PID.TID 0000.0001)                 2.734980225206389E+05,      /* I = 88 */
(PID.TID 0000.0001)                 2.647274964828302E+05,      /* I = 89 */
(PID.TID 0000.0001)                 2.545652950875683E+05,      /* I = 90 */
(PID.TID 0000.0001)                 2.428369969078989E+05,      /* I = 91 */
(PID.TID 0000.0001)                 2.292584591272880E+05,      /* I = 92 */
(PID.TID 0000.0001)                 2.133486626971531E+05,      /* I = 93 */
(PID.TID 0000.0001)                 1.942331448101592E+05,      /* I = 94 */
(PID.TID 0000.0001)                 1.701080315742101E+05,      /* I = 95 */
(PID.TID 0000.0001)                 1.362652340208229E+05,      /* I = 96 */
(PID.TID 0000.0001)                 8.015229982413632E+04,      /* I = 97 */
(PID.TID 0000.0001)                 1.362652340208229E+05,      /* I = 98 */
(PID.TID 0000.0001)                 1.701080315742101E+05,      /* I = 99 */
(PID.TID 0000.0001)                 1.942331448101592E+05,      /* I =100 */
(PID.TID 0000.0001)                 2.133486626971531E+05,      /* I =101 */
(PID.TID 0000.0001)                 2.292584591272880E+05,      /* I =102 */
(PID.TID 0000.0001)                 2.428369969078989E+05,      /* I =103 */
(PID.TID 0000.0001)                 2.545652950875683E+05,      /* I =104 */
(PID.TID 0000.0001)                 2.647274964828302E+05,      /* I =105 */
(PID.TID 0000.0001)                 2.734980225206389E+05,      /* I =106 */
(PID.TID 0000.0001)                 2.809856491525217E+05,      /* I =107 */
(PID.TID 0000.0001)                 2.872580915202295E+05,      /* I =108 */
(PID.TID 0000.0001)                 2.923567890694162E+05,      /* I =109 */
(PID.TID 0000.0001)                 2.963063101754721E+05,      /* I =110 */
(PID.TID 0000.0001)                 2.991205495886625E+05,      /* I =111 */
(PID.TID 0000.0001)                 3.008068453676764E+05,      /* I =112 */
(PID.TID 0000.0001)                 3.013686170436881E+05,      /* I =113 */
(PID.TID 0000.0001)                 3.008068453676764E+05,      /* I =114 */
(PID.TID 0000.0001)                 2.991205495886625E+05,      /* I =115 */
(PID.TID 0000.0001)                 2.963063101754721E+05,      /* I =116 */
(PID.TID 0000.0001)                 2.923567890694162E+05,      /* I =117 */
(PID.TID 0000.0001)                 2.872580915202295E+05,      /* I =118 */
(PID.TID 0000.0001)                 2.809856491525217E+05,      /* I =119 */
(PID.TID 0000.0001)                 2.734980225206389E+05,      /* I =120 */
(PID.TID 0000.0001)                 2.647274964828302E+05,      /* I =121 */
(PID.TID 0000.0001)                 2.545652950875683E+05,      /* I =122 */
(PID.TID 0000.0001)                 2.428369969078989E+05,      /* I =123 */
(PID.TID 0000.0001)                 2.292584591272880E+05,      /* I =124 */
(PID.TID 0000.0001)                 2.133486626971531E+05,      /* I =125 */
(PID.TID 0000.0001)                 1.942331448101592E+05,      /* I =126 */
(PID.TID 0000.0001)                 1.701080315742101E+05,      /* I =127 */
(PID.TID 0000.0001)                 1.362652340208229E+05,      /* I =128 */
(PID.TID 0000.0001)                 8.015229982413632E+04,      /* I =129 */
(PID.TID 0000.0001)                 1.362652340208229E+05,      /* I =130 */
(PID.TID 0000.0001)                 1.701080315742101E+05,      /* I =131 */
(PID.TID 0000.0001)                 1.942331448101592E+05,      /* I =132 */
(PID.TID 0000.0001)                 2.133486626971531E+05,      /* I =133 */
(PID.TID 0000.0001)                 2.292584591272880E+05,      /* I =134 */
(PID.TID 0000.0001)                 2.428369969078989E+05,      /* I =135 */
(PID.TID 0000.0001)                 2.545652950875683E+05,      /* I =136 */
(PID.TID 0000.0001)                 2.647274964828302E+05,      /* I =137 */
(PID.TID 0000.0001)                 2.734980225206389E+05,      /* I =138 */
(PID.TID 0000.0001)                 2.809856491525217E+05,      /* I =139 */
(PID.TID 0000.0001)                 2.872580915202295E+05,      /* I =140 */
(PID.TID 0000.0001)                 2.923567890694162E+05,      /* I =141 */
(PID.TID 0000.0001)                 2.963063101754721E+05,      /* I =142 */
(PID.TID 0000.0001)                 2.991205495886625E+05,      /* I =143 */
(PID.TID 0000.0001)                 3.008068453676764E+05,      /* I =144 */
(PID.TID 0000.0001)                 3.013686170436881E+05,      /* I =145 */
(PID.TID 0000.0001)                 3.008068453676764E+05,      /* I =146 */
(PID.TID 0000.0001)                 2.991205495886625E+05,      /* I =147 */
(PID.TID 0000.0001)                 2.963063101754721E+05,      /* I =148 */
(PID.TID 0000.0001)                 2.923567890694162E+05,      /* I =149 */
(PID.TID 0000.0001)                 2.872580915202295E+05,      /* I =150 */
(PID.TID 0000.0001)                 2.809856491525217E+05,      /* I =151 */
(PID.TID 0000.0001)                 2.734980225206389E+05,      /* I =152 */
(PID.TID 0000.0001)                 2.647274964828302E+05,      /* I =153 */
(PID.TID 0000.0001)                 2.545652950875683E+05,      /* I =154 */
(PID.TID 0000.0001)                 2.428369969078989E+05,      /* I =155 */
(PID.TID 0000.0001)                 2.292584591272880E+05,      /* I =156 */
(PID.TID 0000.0001)                 2.133486626971531E+05,      /* I =157 */
(PID.TID 0000.0001)                 1.942331448101592E+05,      /* I =158 */
(PID.TID 0000.0001)                 1.701080315742101E+05,      /* I =159 */
(PID.TID 0000.0001)                 1.362652340208229E+05,      /* I =160 */
(PID.TID 0000.0001)                 8.015229982413632E+04,      /* I =161 */
(PID.TID 0000.0001)                 1.362652340208229E+05,      /* I =162 */
(PID.TID 0000.0001)                 1.701080315742101E+05,      /* I =163 */
(PID.TID 0000.0001)                 1.942331448101592E+05,      /* I =164 */
(PID.TID 0000.0001)                 2.133486626971531E+05,      /* I =165 */
(PID.TID 0000.0001)                 2.292584591272880E+05,      /* I =166 */
(PID.TID 0000.0001)                 2.428369969078989E+05,      /* I =167 */
(PID.TID 0000.0001)                 2.545652950875683E+05,      /* I =168 */
(PID.TID 0000.0001)                 2.647274964828302E+05,      /* I =169 */
(PID.TID 0000.0001)                 2.734980225206389E+05,      /* I =170 */
(PID.TID 0000.0001)                 2.809856491525217E+05,      /* I =171 */
(PID.TID 0000.0001)                 2.872580915202295E+05,      /* I =172 */
(PID.TID 0000.0001)                 2.923567890694162E+05,      /* I =173 */
(PID.TID 0000.0001)                 2.963063101754721E+05,      /* I =174 */
(PID.TID 0000.0001)                 2.991205495886625E+05,      /* I =175 */
(PID.TID 0000.0001)                 3.008068453676764E+05,      /* I =176 */
(PID.TID 0000.0001)                 3.013686170436881E+05,      /* I =177 */
(PID.TID 0000.0001)                 3.008068453676764E+05,      /* I =178 */
(PID.TID 0000.0001)                 2.991205495886625E+05,      /* I =179 */
(PID.TID 0000.0001)                 2.963063101754721E+05,      /* I =180 */
(PID.TID 0000.0001)                 2.923567890694162E+05,      /* I =181 */
(PID.TID 0000.0001)                 2.872580915202295E+05,      /* I =182 */
(PID.TID 0000.0001)                 2.809856491525217E+05,      /* I =183 */
(PID.TID 0000.0001)                 2.734980225206389E+05,      /* I =184 */
(PID.TID 0000.0001)                 2.647274964828302E+05,      /* I =185 */
(PID.TID 0000.0001)                 2.545652950875683E+05,      /* I =186 */
(PID.TID 0000.0001)                 2.428369969078989E+05,      /* I =187 */
(PID.TID 0000.0001)                 2.292584591272880E+05,      /* I =188 */
(PID.TID 0000.0001)                 2.133486626971531E+05,      /* I =189 */
(PID.TID 0000.0001)                 1.942331448101592E+05,      /* I =190 */
(PID.TID 0000.0001)                 1.701080315742101E+05,      /* I =191 */
(PID.TID 0000.0001)                 1.362652340208229E+05       /* I =192 */
(PID.TID 0000.0001)     ;
(PID.TID 0000.0001) dyU =  /* dyU(1,:,1,:) ( m - cartesian, degrees - spherical ) */
(PID.TID 0000.0001)                 8.015229982413632E+04,      /* J =  1 */
(PID.TID 0000.0001)                 1.333130744933864E+05,      /* J =  2 */
(PID.TID 0000.0001)                 1.691744868129062E+05,      /* J =  3 */
(PID.TID 0000.0001)                 1.937548202849059E+05,      /* J =  4 */
(PID.TID 0000.0001)                 2.130490056267208E+05,      /* J =  5 */
(PID.TID 0000.0001)                 2.290479919481738E+05,      /* J =  6 */
(PID.TID 0000.0001)                 2.426774358027004E+05,      /* J =  7 */
(PID.TID 0000.0001)                 2.544372984215561E+05,      /* J =  8 */
(PID.TID 0000.0001)                 2.646201463834826E+05,      /* J =  9 */
(PID.TID 0000.0001)                 2.734046499619030E+05,      /* J = 10 */
(PID.TID 0000.0001)                 2.809019351693761E+05,      /* J = 11 */
(PID.TID 0000.0001)                 2.871811105274442E+05,      /* J = 12 */
(PID.TID 0000.0001)                 2.922844849381675E+05,      /* J = 13 */
(PID.TID 0000.0001)                 2.962371870847826E+05,      /* J = 14 */
(PID.TID 0000.0001)                 2.990534755671296E+05,      /* J = 15 */
(PID.TID 0000.0001)                 3.007409169495504E+05,      /* J = 16 */
(PID.TID 0000.0001)                 3.013031486919771E+05,      /* J = 17 */
(PID.TID 0000.0001)                 3.007409169495504E+05,      /* J = 18 */
(PID.TID 0000.0001)                 2.990534755671296E+05,      /* J = 19 */
(PID.TID 0000.0001)                 2.962371870847826E+05,      /* J = 20 */
(PID.TID 0000.0001)                 2.922844849381675E+05,      /* J = 21 */
(PID.TID 0000.0001)                 2.871811105274442E+05,      /* J = 22 */
(PID.TID 0000.0001)                 2.809019351693761E+05,      /* J = 23 */
(PID.TID 0000.0001)                 2.734046499619030E+05,      /* J = 24 */
(PID.TID 0000.0001)                 2.646201463834826E+05,      /* J = 25 */
(PID.TID 0000.0001)                 2.544372984215561E+05,      /* J = 26 */
(PID.TID 0000.0001)                 2.426774358027004E+05,      /* J = 27 */
(PID.TID 0000.0001)                 2.290479919481738E+05,      /* J = 28 */
(PID.TID 0000.0001)                 2.130490056267208E+05,      /* J = 29 */
(PID.TID 0000.0001)                 1.937548202849059E+05,      /* J = 30 */
(PID.TID 0000.0001)                 1.691744868129062E+05,      /* J = 31 */
(PID.TID 0000.0001)                 1.333130744933864E+05       /* J = 32 */
(PID.TID 0000.0001)     ;
(PID.TID 0000.0001) rA =  /* rA(:,1,:,1) ( m - cartesian, degrees - spherical ) */
(PID.TID 0000.0001)                 1.401900702255611E+10,      /* I =  1 */
(PID.TID 0000.0001)                 2.459906945574446E+10,      /* I =  2 */
(PID.TID 0000.0001)                 3.378518544307869E+10,      /* I =  3 */
(PID.TID 0000.0001)                 4.192037169898667E+10,      /* I =  4 */
(PID.TID 0000.0001)                 4.925938996118163E+10,      /* I =  5 */
(PID.TID 0000.0001)                 5.594154126607554E+10,      /* I =  6 */
(PID.TID 0000.0001)                 6.203683527772524E+10,      /* I =  7 */
(PID.TID 0000.0001)                 6.757541173817516E+10,      /* I =  8 */
(PID.TID 0000.0001)                 7.256353271748119E+10,      /* I =  9 */
(PID.TID 0000.0001)                 7.699293007098555E+10,      /* I = 10 */
(PID.TID 0000.0001)                 8.084683449728901E+10,      /* I = 11 */
(PID.TID 0000.0001)                 8.410423102796222E+10,      /* I = 12 */
(PID.TID 0000.0001)                 8.674306976737517E+10,      /* I = 13 */
(PID.TID 0000.0001)                 8.874277443041927E+10,      /* I = 14 */
(PID.TID 0000.0001)                 9.008620045350864E+10,      /* I = 15 */
(PID.TID 0000.0001)                 9.076111290418456E+10,      /* I = 16 */
(PID.TID 0000.0001)                 9.076111290422058E+10,      /* I = 17 */
(PID.TID 0000.0001)                 9.008620045354469E+10,      /* I = 18 */
(PID.TID 0000.0001)                 8.874277443041927E+10,      /* I = 19 */
(PID.TID 0000.0001)                 8.674306976741121E+10,      /* I = 20 */
(PID.TID 0000.0001)                 8.410423102799827E+10,      /* I = 21 */
(PID.TID 0000.0001)                 8.084683449728901E+10,      /* I = 22 */
(PID.TID 0000.0001)                 7.699293007098555E+10,      /* I = 23 */
(PID.TID 0000.0001)                 7.256353271748119E+10,      /* I = 24 */
(PID.TID 0000.0001)                 6.757541173817516E+10,      /* I = 25 */
(PID.TID 0000.0001)                 6.203683527772524E+10,      /* I = 26 */
(PID.TID 0000.0001)                 5.594154126611157E+10,      /* I = 27 */
(PID.TID 0000.0001)                 4.925938996118163E+10,      /* I = 28 */
(PID.TID 0000.0001)                 4.192037169898667E+10,      /* I = 29 */
(PID.TID 0000.0001)                 3.378518544304265E+10,      /* I = 30 */
(PID.TID 0000.0001)                 2.459906945574446E+10,      /* I = 31 */
(PID.TID 0000.0001)                 1.401900702259215E+10,      /* I = 32 */
(PID.TID 0000.0001)                 1.401900702255611E+10,      /* I = 33 */
(PID.TID 0000.0001)                 2.459906945574446E+10,      /* I = 34 */
(PID.TID 0000.0001)                 3.378518544307869E+10,      /* I = 35 */
(PID.TID 0000.0001)                 4.192037169898667E+10,      /* I = 36 */
(PID.TID 0000.0001)                 4.925938996118163E+10,      /* I = 37 */
(PID.TID 0000.0001)                 5.594154126607554E+10,      /* I = 38 */
(PID.TID 0000.0001)                 6.203683527772524E+10,      /* I = 39 */
(PID.TID 0000.0001)                 6.757541173817516E+10,      /* I = 40 */
(PID.TID 0000.0001)                 7.256353271748119E+10,      /* I = 41 */
(PID.TID 0000.0001)                 7.699293007098555E+10,      /* I = 42 */
(PID.TID 0000.0001)                 8.084683449728901E+10,      /* I = 43 */
(PID.TID 0000.0001)                 8.410423102796222E+10,      /* I = 44 */
(PID.TID 0000.0001)                 8.674306976737517E+10,      /* I = 45 */
(PID.TID 0000.0001)                 8.874277443041927E+10,      /* I = 46 */
(PID.TID 0000.0001)                 9.008620045350864E+10,      /* I = 47 */
(PID.TID 0000.0001)                 9.076111290418456E+10,      /* I = 48 */
(PID.TID 0000.0001)                 9.076111290422058E+10,      /* I = 49 */
(PID.TID 0000.0001)                 9.008620045354469E+10,      /* I = 50 */
(PID.TID 0000.0001)                 8.874277443041927E+10,      /* I = 51 */
(PID.TID 0000.0001)                 8.674306976741121E+10,      /* I = 52 */
(PID.TID 0000.0001)                 8.410423102799827E+10,      /* I = 53 */
(PID.TID 0000.0001)                 8.084683449728901E+10,      /* I = 54 */
(PID.TID 0000.0001)                 7.699293007098555E+10,      /* I = 55 */
(PID.TID 0000.0001)                 7.256353271748119E+10,      /* I = 56 */
(PID.TID 0000.0001)                 6.757541173817516E+10,      /* I = 57 */
(PID.TID 0000.0001)                 6.203683527772524E+10,      /* I = 58 */
(PID.TID 0000.0001)                 5.594154126611157E+10,      /* I = 59 */
(PID.TID 0000.0001)                 4.925938996118163E+10,      /* I = 60 */
(PID.TID 0000.0001)                 4.192037169898667E+10,      /* I = 61 */
(PID.TID 0000.0001)                 3.378518544304265E+10,      /* I = 62 */
(PID.TID 0000.0001)                 2.459906945574446E+10,      /* I = 63 */
(PID.TID 0000.0001)                 1.401900702259215E+10,      /* I = 64 */
(PID.TID 0000.0001)                 1.401900702255611E+10,      /* I = 65 */
(PID.TID 0000.0001)                 2.459906945574446E+10,      /* I = 66 */
(PID.TID 0000.0001)                 3.378518544307869E+10,      /* I = 67 */
(PID.TID 0000.0001)                 4.192037169898667E+10,      /* I = 68 */
(PID.TID 0000.0001)                 4.925938996118163E+10,      /* I = 69 */
(PID.TID 0000.0001)                 5.594154126607554E+10,      /* I = 70 */
(PID.TID 0000.0001)                 6.203683527772524E+10,      /* I = 71 */
(PID.TID 0000.0001)                 6.757541173817516E+10,      /* I = 72 */
(PID.TID 0000.0001)                 7.256353271748119E+10,      /* I = 73 */
(PID.TID 0000.0001)                 7.699293007098555E+10,      /* I = 74 */
(PID.TID 0000.0001)                 8.084683449728901E+10,      /* I = 75 */
(PID.TID 0000.0001)                 8.410423102796222E+10,      /* I = 76 */
(PID.TID 0000.0001)                 8.674306976737517E+10,      /* I = 77 */
(PID.TID 0000.0001)                 8.874277443041927E+10,      /* I = 78 */
(PID.TID 0000.0001)                 9.008620045350864E+10,      /* I = 79 */
(PID.TID 0000.0001)                 9.076111290418456E+10,      /* I = 80 */
(PID.TID 0000.0001)                 9.076111290422058E+10,      /* I = 81 */
(PID.TID 0000.0001)                 9.008620045354469E+10,      /* I = 82 */
(PID.TID 0000.0001)                 8.874277443041927E+10,      /* I = 83 */
(PID.TID 0000.0001)                 8.674306976741121E+10,      /* I = 84 */
(PID.TID 0000.0001)                 8.410423102799827E+10,      /* I = 85 */
(PID.TID 0000.0001)                 8.084683449728901E+10,      /* I = 86 */
(PID.TID 0000.0001)                 7.699293007098555E+10,      /* I = 87 */
(PID.TID 0000.0001)                 7.256353271748119E+10,      /* I = 88 */
(PID.TID 0000.0001)                 6.757541173817516E+10,      /* I = 89 */
(PID.TID 0000.0001)                 6.203683527772524E+10,      /* I = 90 */
(PID.TID 0000.0001)                 5.594154126611157E+10,      /* I = 91 */
(PID.TID 0000.0001)                 4.925938996118163E+10,      /* I = 92 */
(PID.TID 0000.0001)                 4.192037169898667E+10,      /* I = 93 */
(PID.TID 0000.0001)                 3.378518544304265E+10,      /* I = 94 */
(PID.TID 0000.0001)                 2.459906945574446E+10,      /* I = 95 */
(PID.TID 0000.0001)                 1.401900702259215E+10,      /* I = 96 */
(PID.TID 0000.0001)                 1.401900702255611E+10,      /* I = 97 */
(PID.TID 0000.0001)                 2.459906945574446E+10,      /* I = 98 */
(PID.TID 0000.0001)                 3.378518544307869E+10,      /* I = 99 */
(PID.TID 0000.0001)                 4.192037169898667E+10,      /* I =100 */
(PID.TID 0000.0001)                 4.925938996118163E+10,      /* I =101 */
(PID.TID 0000.0001)                 5.594154126607554E+10,      /* I =102 */
(PID.TID 0000.0001)                 6.203683527772524E+10,      /* I =103 */
(PID.TID 0000.0001)                 6.757541173817516E+10,      /* I =104 */
(PID.TID 0000.0001)                 7.256353271748119E+10,      /* I =105 */
(PID.TID 0000.0001)                 7.699293007098555E+10,      /* I =106 */
(PID.TID 0000.0001)                 8.084683449728901E+10,      /* I =107 */
(PID.TID 0000.0001)                 8.410423102796222E+10,      /* I =108 */
(PID.TID 0000.0001)                 8.674306976737517E+10,      /* I =109 */
(PID.TID 0000.0001)                 8.874277443041927E+10,      /* I =110 */
(PID.TID 0000.0001)                 9.008620045350864E+10,      /* I =111 */
(PID.TID 0000.0001)                 9.076111290418456E+10,      /* I =112 */
(PID.TID 0000.0001)                 9.076111290422058E+10,      /* I =113 */
(PID.TID 0000.0001)                 9.008620045354469E+10,      /* I =114 */
(PID.TID 0000.0001)                 8.874277443041927E+10,      /* I =115 */
(PID.TID 0000.0001)                 8.674306976741121E+10,      /* I =116 */
(PID.TID 0000.0001)                 8.410423102799827E+10,      /* I =117 */
(PID.TID 0000.0001)                 8.084683449728901E+10,      /* I =118 */
(PID.TID 0000.0001)                 7.699293007098555E+10,      /* I =119 */
(PID.TID 0000.0001)                 7.256353271748119E+10,      /* I =120 */
(PID.TID 0000.0001)                 6.757541173817516E+10,      /* I =121 */
(PID.TID 0000.0001)                 6.203683527772524E+10,      /* I =122 */
(PID.TID 0000.0001)                 5.594154126611157E+10,      /* I =123 */
(PID.TID 0000.0001)                 4.925938996118163E+10,      /* I =124 */
(PID.TID 0000.0001)                 4.192037169898667E+10,      /* I =125 */
(PID.TID 0000.0001)                 3.378518544304265E+10,      /* I =126 */
(PID.TID 0000.0001)                 2.459906945574446E+10,      /* I =127 */
(PID.TID 0000.0001)                 1.401900702259215E+10,      /* I =128 */
(PID.TID 0000.0001)                 1.401900702255611E+10,      /* I =129 */
(PID.TID 0000.0001)                 2.459906945574446E+10,      /* I =130 */
(PID.TID 0000.0001)                 3.378518544307869E+10,      /* I =131 */
(PID.TID 0000.0001)                 4.192037169898667E+10,      /* I =132 */
(PID.TID 0000.0001)                 4.925938996118163E+10,      /* I =133 */
(PID.TID 0000.0001)                 5.594154126607554E+10,      /* I =134 */
(PID.TID 0000.0001)                 6.203683527772524E+10,      /* I =135 */
(PID.TID 0000.0001)                 6.757541173817516E+10,      /* I =136 */
(PID.TID 0000.0001)                 7.256353271748119E+10,      /* I =137 */
(PID.TID 0000.0001)                 7.699293007098555E+10,      /* I =138 */
(PID.TID 0000.0001)                 8.084683449728901E+10,      /* I =139 */
(PID.TID 0000.0001)                 8.410423102796222E+10,      /* I =140 */
(PID.TID 0000.0001)                 8.674306976737517E+10,      /* I =141 */
(PID.TID 0000.0001)                 8.874277443041927E+10,      /* I =142 */
(PID.TID 0000.0001)                 9.008620045350864E+10,      /* I =143 */
(PID.TID 0000.0001)                 9.076111290418456E+10,      /* I =144 */
(PID.TID 0000.0001)                 9.076111290422058E+10,      /* I =145 */
(PID.TID 0000.0001)                 9.008620045354469E+10,      /* I =146 */
(PID.TID 0000.0001)                 8.874277443041927E+10,      /* I =147 */
(PID.TID 0000.0001)                 8.674306976741121E+10,      /* I =148 */
(PID.TID 0000.0001)                 8.410423102799827E+10,      /* I =149 */
(PID.TID 0000.0001)                 8.084683449728901E+10,      /* I =150 */
(PID.TID 0000.0001)                 7.699293007098555E+10,      /* I =151 */
(PID.TID 0000.0001)                 7.256353271748119E+10,      /* I =152 */
(PID.TID 0000.0001)                 6.757541173817516E+10,      /* I =153 */
(PID.TID 0000.0001)                 6.203683527772524E+10,      /* I =154 */
(PID.TID 0000.0001)                 5.594154126611157E+10,      /* I =155 */
(PID.TID 0000.0001)                 4.925938996118163E+10,      /* I =156 */
(PID.TID 0000.0001)                 4.192037169898667E+10,      /* I =157 */
(PID.TID 0000.0001)                 3.378518544304265E+10,      /* I =158 */
(PID.TID 0000.0001)                 2.459906945574446E+10,      /* I =159 */
(PID.TID 0000.0001)                 1.401900702259215E+10,      /* I =160 */
(PID.TID 0000.0001)                 1.401900702255611E+10,      /* I =161 */
(PID.TID 0000.0001)                 2.459906945574446E+10,      /* I =162 */
(PID.TID 0000.0001)                 3.378518544307869E+10,      /* I =163 */
(PID.TID 0000.0001)                 4.192037169898667E+10,      /* I =164 */
(PID.TID 0000.0001)                 4.925938996118163E+10,      /* I =165 */
(PID.TID 0000.0001)                 5.594154126607554E+10,      /* I =166 */
(PID.TID 0000.0001)                 6.203683527772524E+10,      /* I =167 */
(PID.TID 0000.0001)                 6.757541173817516E+10,      /* I =168 */
(PID.TID 0000.0001)                 7.256353271748119E+10,      /* I =169 */
(PID.TID 0000.0001)                 7.699293007098555E+10,      /* I =170 */
(PID.TID 0000.0001)                 8.084683449728901E+10,      /* I =171 */
(PID.TID 0000.0001)                 8.410423102796222E+10,      /* I =172 */
(PID.TID 0000.0001)                 8.674306976737517E+10,      /* I =173 */
(PID.TID 0000.0001)                 8.874277443041927E+10,      /* I =174 */
(PID.TID 0000.0001)                 9.008620045350864E+10,      /* I =175 */
(PID.TID 0000.0001)                 9.076111290418456E+10,      /* I =176 */
(PID.TID 0000.0001)                 9.076111290422058E+10,      /* I =177 */
(PID.TID 0000.0001)                 9.008620045354469E+10,      /* I =178 */
(PID.TID 0000.0001)                 8.874277443041927E+10,      /* I =179 */
(PID.TID 0000.0001)                 8.674306976741121E+10,      /* I =180 */
(PID.TID 0000.0001)                 8.410423102799827E+10,      /* I =181 */
(PID.TID 0000.0001)                 8.084683449728901E+10,      /* I =182 */
(PID.TID 0000.0001)                 7.699293007098555E+10,      /* I =183 */
(PID.TID 0000.0001)                 7.256353271748119E+10,      /* I =184 */
(PID.TID 0000.0001)                 6.757541173817516E+10,      /* I =185 */
(PID.TID 0000.0001)                 6.203683527772524E+10,      /* I =186 */
(PID.TID 0000.0001)                 5.594154126611157E+10,      /* I =187 */
(PID.TID 0000.0001)                 4.925938996118163E+10,      /* I =188 */
(PID.TID 0000.0001)                 4.192037169898667E+10,      /* I =189 */
(PID.TID 0000.0001)                 3.378518544304265E+10,      /* I =190 */
(PID.TID 0000.0001)                 2.459906945574446E+10,      /* I =191 */
(PID.TID 0000.0001)                 1.401900702259215E+10       /* I =192 */
(PID.TID 0000.0001)     ;
(PID.TID 0000.0001) rA =  /* rA(1,:,1,:) ( m - cartesian, degrees - spherical ) */
(PID.TID 0000.0001)                 1.401900702255611E+10,      /* J =  1 */
(PID.TID 0000.0001)                 2.459906945574446E+10,      /* J =  2 */
(PID.TID 0000.0001)                 3.378518544307869E+10,      /* J =  3 */
(PID.TID 0000.0001)                 4.192037169898667E+10,      /* J =  4 */
(PID.TID 0000.0001)                 4.925938996118163E+10,      /* J =  5 */
(PID.TID 0000.0001)                 5.594154126607554E+10,      /* J =  6 */
(PID.TID 0000.0001)                 6.203683527776127E+10,      /* J =  7 */
(PID.TID 0000.0001)                 6.757541173817516E+10,      /* J =  8 */
(PID.TID 0000.0001)                 7.256353271748119E+10,      /* J =  9 */
(PID.TID 0000.0001)                 7.699293007098555E+10,      /* J = 10 */
(PID.TID 0000.0001)                 8.084683449728901E+10,      /* J = 11 */
(PID.TID 0000.0001)                 8.410423102799827E+10,      /* J = 12 */
(PID.TID 0000.0001)                 8.674306976737517E+10,      /* J = 13 */
(PID.TID 0000.0001)                 8.874277443041927E+10,      /* J = 14 */
(PID.TID 0000.0001)                 9.008620045350864E+10,      /* J = 15 */
(PID.TID 0000.0001)                 9.076111290418456E+10,      /* J = 16 */
(PID.TID 0000.0001)                 9.076111290422058E+10,      /* J = 17 */
(PID.TID 0000.0001)                 9.008620045354469E+10,      /* J = 18 */
(PID.TID 0000.0001)                 8.874277443041927E+10,      /* J = 19 */
(PID.TID 0000.0001)                 8.674306976737517E+10,      /* J = 20 */
(PID.TID 0000.0001)                 8.410423102799827E+10,      /* J = 21 */
(PID.TID 0000.0001)                 8.084683449728901E+10,      /* J = 22 */
(PID.TID 0000.0001)                 7.699293007098555E+10,      /* J = 23 */
(PID.TID 0000.0001)                 7.256353271748119E+10,      /* J = 24 */
(PID.TID 0000.0001)                 6.757541173817516E+10,      /* J = 25 */
(PID.TID 0000.0001)                 6.203683527772524E+10,      /* J = 26 */
(PID.TID 0000.0001)                 5.594154126607554E+10,      /* J = 27 */
(PID.TID 0000.0001)                 4.925938996118163E+10,      /* J = 28 */
(PID.TID 0000.0001)                 4.192037169898667E+10,      /* J = 29 */
(PID.TID 0000.0001)                 3.378518544307869E+10,      /* J = 30 */
(PID.TID 0000.0001)                 2.459906945574446E+10,      /* J = 31 */
(PID.TID 0000.0001)                 1.401900702259215E+10       /* J = 32 */
(PID.TID 0000.0001)     ;
(PID.TID 0000.0001) rAw =  /* rAw(:,1,:,1) ( m - cartesian, degrees - spherical ) */
(PID.TID 0000.0001)                 1.216690346714270E+10,      /* I =  1 */
(PID.TID 0000.0001)                 1.974052138506315E+10,      /* I =  2 */
(PID.TID 0000.0001)                 2.943712825252015E+10,      /* I =  3 */
(PID.TID 0000.0001)                 3.801790263324359E+10,      /* I =  4 */
(PID.TID 0000.0001)                 4.571243814189866E+10,      /* I =  5 */
(PID.TID 0000.0001)                 5.269930713599979E+10,      /* I =  6 */
(PID.TID 0000.0001)                 5.907428494299064E+10,      /* I =  7 */
(PID.TID 0000.0001)                 6.488320895111515E+10,      /* I =  8 */
(PID.TID 0000.0001)                 7.014205907741883E+10,      /* I =  9 */
(PID.TID 0000.0001)                 7.484854821847499E+10,      /* I = 10 */
(PID.TID 0000.0001)                 7.898934631431560E+10,      /* I = 11 */
(PID.TID 0000.0001)                 8.254500894894537E+10,      /* I = 12 */
(PID.TID 0000.0001)                 8.549360686473493E+10,      /* I = 13 */
(PID.TID 0000.0001)                 8.781353403175085E+10,      /* I = 14 */
(PID.TID 0000.0001)                 8.948571540392020E+10,      /* I = 15 */
(PID.TID 0000.0001)                 9.049530583086168E+10,      /* I = 16 */
(PID.TID 0000.0001)                 9.083293515008307E+10,      /* I = 17 */
(PID.TID 0000.0001)                 9.049530583087069E+10,      /* I = 18 */
(PID.TID 0000.0001)                 8.948571540391121E+10,      /* I = 19 */
(PID.TID 0000.0001)                 8.781353403174184E+10,      /* I = 20 */
(PID.TID 0000.0001)                 8.549360686467183E+10,      /* I = 21 */
(PID.TID 0000.0001)                 8.254500894890933E+10,      /* I = 22 */
(PID.TID 0000.0001)                 7.898934631434262E+10,      /* I = 23 */
(PID.TID 0000.0001)                 7.484854821844796E+10,      /* I = 24 */
(PID.TID 0000.0001)                 7.014205907742783E+10,      /* I = 25 */
(PID.TID 0000.0001)                 6.488320895111515E+10,      /* I = 26 */
(PID.TID 0000.0001)                 5.907428494299064E+10,      /* I = 27 */
(PID.TID 0000.0001)                 5.269930713599078E+10,      /* I = 28 */
(PID.TID 0000.0001)                 4.571243814190768E+10,      /* I = 29 */
(PID.TID 0000.0001)                 3.801790263325260E+10,      /* I = 30 */
(PID.TID 0000.0001)                 2.943712825251114E+10,      /* I = 31 */
(PID.TID 0000.0001)                 1.974052138509018E+10,      /* I = 32 */
(PID.TID 0000.0001)                 1.216690346714270E+10,      /* I = 33 */
(PID.TID 0000.0001)                 1.974052138506315E+10,      /* I = 34 */
(PID.TID 0000.0001)                 2.943712825252015E+10,      /* I = 35 */
(PID.TID 0000.0001)                 3.801790263324359E+10,      /* I = 36 */
(PID.TID 0000.0001)                 4.571243814189866E+10,      /* I = 37 */
(PID.TID 0000.0001)                 5.269930713599979E+10,      /* I = 38 */
(PID.TID 0000.0001)                 5.907428494299064E+10,      /* I = 39 */
(PID.TID 0000.0001)                 6.488320895111515E+10,      /* I = 40 */
(PID.TID 0000.0001)                 7.014205907741883E+10,      /* I = 41 */
(PID.TID 0000.0001)                 7.484854821847499E+10,      /* I = 42 */
(PID.TID 0000.0001)                 7.898934631431560E+10,      /* I = 43 */
(PID.TID 0000.0001)                 8.254500894894537E+10,      /* I = 44 */
(PID.TID 0000.0001)                 8.549360686473493E+10,      /* I = 45 */
(PID.TID 0000.0001)                 8.781353403175085E+10,      /* I = 46 */
(PID.TID 0000.0001)                 8.948571540392020E+10,      /* I = 47 */
(PID.TID 0000.0001)                 9.049530583086168E+10,      /* I = 48 */
(PID.TID 0000.0001)                 9.083293515008307E+10,      /* I = 49 */
(PID.TID 0000.0001)                 9.049530583087069E+10,      /* I = 50 */
(PID.TID 0000.0001)                 8.948571540391121E+10,      /* I = 51 */
(PID.TID 0000.0001)                 8.781353403174184E+10,      /* I = 52 */
(PID.TID 0000.0001)                 8.549360686467183E+10,      /* I = 53 */
(PID.TID 0000.0001)                 8.254500894890933E+10,      /* I = 54 */
(PID.TID 0000.0001)                 7.898934631434262E+10,      /* I = 55 */
(PID.TID 0000.0001)                 7.484854821844796E+10,      /* I = 56 */
(PID.TID 0000.0001)                 7.014205907742783E+10,      /* I = 57 */
(PID.TID 0000.0001)                 6.488320895111515E+10,      /* I = 58 */
(PID.TID 0000.0001)                 5.907428494299064E+10,      /* I = 59 */
(PID.TID 0000.0001)                 5.269930713599078E+10,      /* I = 60 */
(PID.TID 0000.0001)                 4.571243814190768E+10,      /* I = 61 */
(PID.TID 0000.0001)                 3.801790263325260E+10,      /* I = 62 */
(PID.TID 0000.0001)                 2.943712825251114E+10,      /* I = 63 */
(PID.TID 0000.0001)                 1.974052138509018E+10,      /* I = 64 */
(PID.TID 0000.0001)                 1.216690346714270E+10,      /* I = 65 */
(PID.TID 0000.0001)                 1.974052138506315E+10,      /* I = 66 */
(PID.TID 0000.0001)                 2.943712825252015E+10,      /* I = 67 */
(PID.TID 0000.0001)                 3.801790263324359E+10,      /* I = 68 */
(PID.TID 0000.0001)                 4.571243814189866E+10,      /* I = 69 */
(PID.TID 0000.0001)                 5.269930713599979E+10,      /* I = 70 */
(PID.TID 0000.0001)                 5.907428494299064E+10,      /* I = 71 */
(PID.TID 0000.0001)                 6.488320895111515E+10,      /* I = 72 */
(PID.TID 0000.0001)                 7.014205907741883E+10,      /* I = 73 */
(PID.TID 0000.0001)                 7.484854821847499E+10,      /* I = 74 */
(PID.TID 0000.0001)                 7.898934631431560E+10,      /* I = 75 */
(PID.TID 0000.0001)                 8.254500894894537E+10,      /* I = 76 */
(PID.TID 0000.0001)                 8.549360686473493E+10,      /* I = 77 */
(PID.TID 0000.0001)                 8.781353403175085E+10,      /* I = 78 */
(PID.TID 0000.0001)                 8.948571540392020E+10,      /* I = 79 */
(PID.TID 0000.0001)                 9.049530583086168E+10,      /* I = 80 */
(PID.TID 0000.0001)                 9.083293515008307E+10,      /* I = 81 */
(PID.TID 0000.0001)                 9.049530583087069E+10,      /* I = 82 */
(PID.TID 0000.0001)                 8.948571540391121E+10,      /* I = 83 */
(PID.TID 0000.0001)                 8.781353403174184E+10,      /* I = 84 */
(PID.TID 0000.0001)                 8.549360686467183E+10,      /* I = 85 */
(PID.TID 0000.0001)                 8.254500894890933E+10,      /* I = 86 */
(PID.TID 0000.0001)                 7.898934631434262E+10,      /* I = 87 */
(PID.TID 0000.0001)                 7.484854821844796E+10,      /* I = 88 */
(PID.TID 0000.0001)                 7.014205907742783E+10,      /* I = 89 */
(PID.TID 0000.0001)                 6.488320895111515E+10,      /* I = 90 */
(PID.TID 0000.0001)                 5.907428494299064E+10,      /* I = 91 */
(PID.TID 0000.0001)                 5.269930713599078E+10,      /* I = 92 */
(PID.TID 0000.0001)                 4.571243814190768E+10,      /* I = 93 */
(PID.TID 0000.0001)                 3.801790263325260E+10,      /* I = 94 */
(PID.TID 0000.0001)                 2.943712825251114E+10,      /* I = 95 */
(PID.TID 0000.0001)                 1.974052138509018E+10,      /* I = 96 */
(PID.TID 0000.0001)                 1.216690346714270E+10,      /* I = 97 */
(PID.TID 0000.0001)                 1.974052138506315E+10,      /* I = 98 */
(PID.TID 0000.0001)                 2.943712825252015E+10,      /* I = 99 */
(PID.TID 0000.0001)                 3.801790263324359E+10,      /* I =100 */
(PID.TID 0000.0001)                 4.571243814189866E+10,      /* I =101 */
(PID.TID 0000.0001)                 5.269930713599979E+10,      /* I =102 */
(PID.TID 0000.0001)                 5.907428494299064E+10,      /* I =103 */
(PID.TID 0000.0001)                 6.488320895111515E+10,      /* I =104 */
(PID.TID 0000.0001)                 7.014205907741883E+10,      /* I =105 */
(PID.TID 0000.0001)                 7.484854821847499E+10,      /* I =106 */
(PID.TID 0000.0001)                 7.898934631431560E+10,      /* I =107 */
(PID.TID 0000.0001)                 8.254500894894537E+10,      /* I =108 */
(PID.TID 0000.0001)                 8.549360686473493E+10,      /* I =109 */
(PID.TID 0000.0001)                 8.781353403175085E+10,      /* I =110 */
(PID.TID 0000.0001)                 8.948571540392020E+10,      /* I =111 */
(PID.TID 0000.0001)                 9.049530583086168E+10,      /* I =112 */
(PID.TID 0000.0001)                 9.083293515008307E+10,      /* I =113 */
(PID.TID 0000.0001)                 9.049530583087069E+10,      /* I =114 */
(PID.TID 0000.0001)                 8.948571540391121E+10,      /* I =115 */
(PID.TID 0000.0001)                 8.781353403174184E+10,      /* I =116 */
(PID.TID 0000.0001)                 8.549360686467183E+10,      /* I =117 */
(PID.TID 0000.0001)                 8.254500894890933E+10,      /* I =118 */
(PID.TID 0000.0001)                 7.898934631434262E+10,      /* I =119 */
(PID.TID 0000.0001)                 7.484854821844796E+10,      /* I =120 */
(PID.TID 0000.0001)                 7.014205907742783E+10,      /* I =121 */
(PID.TID 0000.0001)                 6.488320895111515E+10,      /* I =122 */
(PID.TID 0000.0001)                 5.907428494299064E+10,      /* I =123 */
(PID.TID 0000.0001)                 5.269930713599078E+10,      /* I =124 */
(PID.TID 0000.0001)                 4.571243814190768E+10,      /* I =125 */
(PID.TID 0000.0001)                 3.801790263325260E+10,      /* I =126 */
(PID.TID 0000.0001)                 2.943712825251114E+10,      /* I =127 */
(PID.TID 0000.0001)                 1.974052138509018E+10,      /* I =128 */
(PID.TID 0000.0001)                 1.216690346714270E+10,      /* I =129 */
(PID.TID 0000.0001)                 1.974052138506315E+10,      /* I =130 */
(PID.TID 0000.0001)                 2.943712825252015E+10,      /* I =131 */
(PID.TID 0000.0001)                 3.801790263324359E+10,      /* I =132 */
(PID.TID 0000.0001)                 4.571243814189866E+10,      /* I =133 */
(PID.TID 0000.0001)                 5.269930713599979E+10,      /* I =134 */
(PID.TID 0000.0001)                 5.907428494299064E+10,      /* I =135 */
(PID.TID 0000.0001)                 6.488320895111515E+10,      /* I =136 */
(PID.TID 0000.0001)                 7.014205907741883E+10,      /* I =137 */
(PID.TID 0000.0001)                 7.484854821847499E+10,      /* I =138 */
(PID.TID 0000.0001)                 7.898934631431560E+10,      /* I =139 */
(PID.TID 0000.0001)                 8.254500894894537E+10,      /* I =140 */
(PID.TID 0000.0001)                 8.549360686473493E+10,      /* I =141 */
(PID.TID 0000.0001)                 8.781353403175085E+10,      /* I =142 */
(PID.TID 0000.0001)                 8.948571540392020E+10,      /* I =143 */
(PID.TID 0000.0001)                 9.049530583086168E+10,      /* I =144 */
(PID.TID 0000.0001)                 9.083293515008307E+10,      /* I =145 */
(PID.TID 0000.0001)                 9.049530583087069E+10,      /* I =146 */
(PID.TID 0000.0001)                 8.948571540391121E+10,      /* I =147 */
(PID.TID 0000.0001)                 8.781353403174184E+10,      /* I =148 */
(PID.TID 0000.0001)                 8.549360686467183E+10,      /* I =149 */
(PID.TID 0000.0001)                 8.254500894890933E+10,      /* I =150 */
(PID.TID 0000.0001)                 7.898934631434262E+10,      /* I =151 */
(PID.TID 0000.0001)                 7.484854821844796E+10,      /* I =152 */
(PID.TID 0000.0001)                 7.014205907742783E+10,      /* I =153 */
(PID.TID 0000.0001)                 6.488320895111515E+10,      /* I =154 */
(PID.TID 0000.0001)                 5.907428494299064E+10,      /* I =155 */
(PID.TID 0000.0001)                 5.269930713599078E+10,      /* I =156 */
(PID.TID 0000.0001)                 4.571243814190768E+10,      /* I =157 */
(PID.TID 0000.0001)                 3.801790263325260E+10,      /* I =158 */
(PID.TID 0000.0001)                 2.943712825251114E+10,      /* I =159 */
(PID.TID 0000.0001)                 1.974052138509018E+10,      /* I =160 */
(PID.TID 0000.0001)                 1.216690346714270E+10,      /* I =161 */
(PID.TID 0000.0001)                 1.974052138506315E+10,      /* I =162 */
(PID.TID 0000.0001)                 2.943712825252015E+10,      /* I =163 */
(PID.TID 0000.0001)                 3.801790263324359E+10,      /* I =164 */
(PID.TID 0000.0001)                 4.571243814189866E+10,      /* I =165 */
(PID.TID 0000.0001)                 5.269930713599979E+10,      /* I =166 */
(PID.TID 0000.0001)                 5.907428494299064E+10,      /* I =167 */
(PID.TID 0000.0001)                 6.488320895111515E+10,      /* I =168 */
(PID.TID 0000.0001)                 7.014205907741883E+10,      /* I =169 */
(PID.TID 0000.0001)                 7.484854821847499E+10,      /* I =170 */
(PID.TID 0000.0001)                 7.898934631431560E+10,      /* I =171 */
(PID.TID 0000.0001)                 8.254500894894537E+10,      /* I =172 */
(PID.TID 0000.0001)                 8.549360686473493E+10,      /* I =173 */
(PID.TID 0000.0001)                 8.781353403175085E+10,      /* I =174 */
(PID.TID 0000.0001)                 8.948571540392020E+10,      /* I =175 */
(PID.TID 0000.0001)                 9.049530583086168E+10,      /* I =176 */
(PID.TID 0000.0001)                 9.083293515008307E+10,      /* I =177 */
(PID.TID 0000.0001)                 9.049530583087069E+10,      /* I =178 */
(PID.TID 0000.0001)                 8.948571540391121E+10,      /* I =179 */
(PID.TID 0000.0001)                 8.781353403174184E+10,      /* I =180 */
(PID.TID 0000.0001)                 8.549360686467183E+10,      /* I =181 */
(PID.TID 0000.0001)                 8.254500894890933E+10,      /* I =182 */
(PID.TID 0000.0001)                 7.898934631434262E+10,      /* I =183 */
(PID.TID 0000.0001)                 7.484854821844796E+10,      /* I =184 */
(PID.TID 0000.0001)                 7.014205907742783E+10,      /* I =185 */
(PID.TID 0000.0001)                 6.488320895111515E+10,      /* I =186 */
(PID.TID 0000.0001)                 5.907428494299064E+10,      /* I =187 */
(PID.TID 0000.0001)                 5.269930713599078E+10,      /* I =188 */
(PID.TID 0000.0001)                 4.571243814190768E+10,      /* I =189 */
(PID.TID 0000.0001)                 3.801790263325260E+10,      /* I =190 */
(PID.TID 0000.0001)                 2.943712825251114E+10,      /* I =191 */
(PID.TID 0000.0001)                 1.974052138509018E+10       /* I =192 */
(PID.TID 0000.0001)     ;
(PID.TID 0000.0001) rAw =  /* rAw(1,:,1,:) ( m - cartesian, degrees - spherical ) */
(PID.TID 0000.0001)                 1.216690346714270E+10,      /* J =  1 */
(PID.TID 0000.0001)                 2.390126200743558E+10,      /* J =  2 */
(PID.TID 0000.0001)                 3.341968103208270E+10,      /* J =  3 */
(PID.TID 0000.0001)                 4.168532893152940E+10,      /* J =  4 */
(PID.TID 0000.0001)                 4.909074590409594E+10,      /* J =  5 */
(PID.TID 0000.0001)                 5.581203765722642E+10,      /* J =  6 */
(PID.TID 0000.0001)                 6.193257577506789E+10,      /* J =  7 */
(PID.TID 0000.0001)                 6.748840226738273E+10,      /* J =  8 */
(PID.TID 0000.0001)                 7.248875782324816E+10,      /* J =  9 */
(PID.TID 0000.0001)                 7.692702995909871E+10,      /* J = 10 */
(PID.TID 0000.0001)                 8.078743937057303E+10,      /* J = 11 */
(PID.TID 0000.0001)                 8.404959656062837E+10,      /* J = 12 */
(PID.TID 0000.0001)                 8.669186205742539E+10,      /* J = 13 */
(PID.TID 0000.0001)                 8.869393350723612E+10,      /* J = 14 */
(PID.TID 0000.0001)                 9.003884657168852E+10,      /* J = 15 */
(PID.TID 0000.0001)     2 @  9.071447638299398E+10,             /* J = 16: 17 */
(PID.TID 0000.0001)                 9.003884657168852E+10,      /* J = 18 */
(PID.TID 0000.0001)                 8.869393350723612E+10,      /* J = 19 */
(PID.TID 0000.0001)                 8.669186205742539E+10,      /* J = 20 */
(PID.TID 0000.0001)                 8.404959656062837E+10,      /* J = 21 */
(PID.TID 0000.0001)                 8.078743937057303E+10,      /* J = 22 */
(PID.TID 0000.0001)                 7.692702995909871E+10,      /* J = 23 */
(PID.TID 0000.0001)                 7.248875782324816E+10,      /* J = 24 */
(PID.TID 0000.0001)                 6.748840226738273E+10,      /* J = 25 */
(PID.TID 0000.0001)                 6.193257577506789E+10,      /* J = 26 */
(PID.TID 0000.0001)                 5.581203765722642E+10,      /* J = 27 */
(PID.TID 0000.0001)                 4.909074590409594E+10,      /* J = 28 */
(PID.TID 0000.0001)                 4.168532893152940E+10,      /* J = 29 */
(PID.TID 0000.0001)                 3.341968103208270E+10,      /* J = 30 */
(PID.TID 0000.0001)                 2.390126200743558E+10,      /* J = 31 */
(PID.TID 0000.0001)                 1.216690346714270E+10       /* J = 32 */
(PID.TID 0000.0001)     ;
(PID.TID 0000.0001) rAs =  /* rAs(:,1,:,1) ( m - cartesian, degrees - spherical ) */
(PID.TID 0000.0001)                 1.216690346714270E+10,      /* I =  1 */
(PID.TID 0000.0001)                 2.390126200743558E+10,      /* I =  2 */
(PID.TID 0000.0001)                 3.341968103208270E+10,      /* I =  3 */
(PID.TID 0000.0001)                 4.168532893152940E+10,      /* I =  4 */
(PID.TID 0000.0001)                 4.909074590409594E+10,      /* I =  5 */
(PID.TID 0000.0001)                 5.581203765722642E+10,      /* I =  6 */
(PID.TID 0000.0001)                 6.193257577506789E+10,      /* I =  7 */
(PID.TID 0000.0001)                 6.748840226738273E+10,      /* I =  8 */
(PID.TID 0000.0001)                 7.248875782324816E+10,      /* I =  9 */
(PID.TID 0000.0001)                 7.692702995909871E+10,      /* I = 10 */
(PID.TID 0000.0001)                 8.078743937057303E+10,      /* I = 11 */
(PID.TID 0000.0001)                 8.404959656062837E+10,      /* I = 12 */
(PID.TID 0000.0001)                 8.669186205742539E+10,      /* I = 13 */
(PID.TID 0000.0001)                 8.869393350723612E+10,      /* I = 14 */
(PID.TID 0000.0001)                 9.003884657168852E+10,      /* I = 15 */
(PID.TID 0000.0001)     2 @  9.071447638299398E+10,             /* I = 16: 17 */
(PID.TID 0000.0001)                 9.003884657168852E+10,      /* I = 18 */
(PID.TID 0000.0001)                 8.869393350723612E+10,      /* I = 19 */
(PID.TID 0000.0001)                 8.669186205742539E+10,      /* I = 20 */
(PID.TID 0000.0001)                 8.404959656062837E+10,      /* I = 21 */
(PID.TID 0000.0001)                 8.078743937057303E+10,      /* I = 22 */
(PID.TID 0000.0001)                 7.692702995909871E+10,      /* I = 23 */
(PID.TID 0000.0001)                 7.248875782324816E+10,      /* I = 24 */
(PID.TID 0000.0001)                 6.748840226738273E+10,      /* I = 25 */
(PID.TID 0000.0001)                 6.193257577506789E+10,      /* I = 26 */
(PID.TID 0000.0001)                 5.581203765722642E+10,      /* I = 27 */
(PID.TID 0000.0001)                 4.909074590409594E+10,      /* I = 28 */
(PID.TID 0000.0001)                 4.168532893152940E+10,      /* I = 29 */
(PID.TID 0000.0001)                 3.341968103208270E+10,      /* I = 30 */
(PID.TID 0000.0001)                 2.390126200743558E+10,      /* I = 31 */
(PID.TID 0000.0001)     2 @  1.216690346714270E+10,             /* I = 32: 33 */
(PID.TID 0000.0001)                 2.390126200743558E+10,      /* I = 34 */
(PID.TID 0000.0001)                 3.341968103208270E+10,      /* I = 35 */
(PID.TID 0000.0001)                 4.168532893152940E+10,      /* I = 36 */
(PID.TID 0000.0001)                 4.909074590409594E+10,      /* I = 37 */
(PID.TID 0000.0001)                 5.581203765722642E+10,      /* I = 38 */
(PID.TID 0000.0001)                 6.193257577506789E+10,      /* I = 39 */
(PID.TID 0000.0001)                 6.748840226738273E+10,      /* I = 40 */
(PID.TID 0000.0001)                 7.248875782324816E+10,      /* I = 41 */
(PID.TID 0000.0001)                 7.692702995909871E+10,      /* I = 42 */
(PID.TID 0000.0001)                 8.078743937057303E+10,      /* I = 43 */
(PID.TID 0000.0001)                 8.404959656062837E+10,      /* I = 44 */
(PID.TID 0000.0001)                 8.669186205742539E+10,      /* I = 45 */
(PID.TID 0000.0001)                 8.869393350723612E+10,      /* I = 46 */
(PID.TID 0000.0001)                 9.003884657168852E+10,      /* I = 47 */
(PID.TID 0000.0001)     2 @  9.071447638299398E+10,             /* I = 48: 49 */
(PID.TID 0000.0001)                 9.003884657168852E+10,      /* I = 50 */
(PID.TID 0000.0001)                 8.869393350723612E+10,      /* I = 51 */
(PID.TID 0000.0001)                 8.669186205742539E+10,      /* I = 52 */
(PID.TID 0000.0001)                 8.404959656062837E+10,      /* I = 53 */
(PID.TID 0000.0001)                 8.078743937057303E+10,      /* I = 54 */
(PID.TID 0000.0001)                 7.692702995909871E+10,      /* I = 55 */
(PID.TID 0000.0001)                 7.248875782324816E+10,      /* I = 56 */
(PID.TID 0000.0001)                 6.748840226738273E+10,      /* I = 57 */
(PID.TID 0000.0001)                 6.193257577506789E+10,      /* I = 58 */
(PID.TID 0000.0001)                 5.581203765722642E+10,      /* I = 59 */
(PID.TID 0000.0001)                 4.909074590409594E+10,      /* I = 60 */
(PID.TID 0000.0001)                 4.168532893152940E+10,      /* I = 61 */
(PID.TID 0000.0001)                 3.341968103208270E+10,      /* I = 62 */
(PID.TID 0000.0001)                 2.390126200743558E+10,      /* I = 63 */
(PID.TID 0000.0001)     2 @  1.216690346714270E+10,             /* I = 64: 65 */
(PID.TID 0000.0001)                 2.390126200743558E+10,      /* I = 66 */
(PID.TID 0000.0001)                 3.341968103208270E+10,      /* I = 67 */
(PID.TID 0000.0001)                 4.168532893152940E+10,      /* I = 68 */
(PID.TID 0000.0001)                 4.909074590409594E+10,      /* I = 69 */
(PID.TID 0000.0001)                 5.581203765722642E+10,      /* I = 70 */
(PID.TID 0000.0001)                 6.193257577506789E+10,      /* I = 71 */
(PID.TID 0000.0001)                 6.748840226738273E+10,      /* I = 72 */
(PID.TID 0000.0001)                 7.248875782324816E+10,      /* I = 73 */
(PID.TID 0000.0001)                 7.692702995909871E+10,      /* I = 74 */
(PID.TID 0000.0001)                 8.078743937057303E+10,      /* I = 75 */
(PID.TID 0000.0001)                 8.404959656062837E+10,      /* I = 76 */
(PID.TID 0000.0001)                 8.669186205742539E+10,      /* I = 77 */
(PID.TID 0000.0001)                 8.869393350723612E+10,      /* I = 78 */
(PID.TID 0000.0001)                 9.003884657168852E+10,      /* I = 79 */
(PID.TID 0000.0001)     2 @  9.071447638299398E+10,             /* I = 80: 81 */
(PID.TID 0000.0001)                 9.003884657168852E+10,      /* I = 82 */
(PID.TID 0000.0001)                 8.869393350723612E+10,      /* I = 83 */
(PID.TID 0000.0001)                 8.669186205742539E+10,      /* I = 84 */
(PID.TID 0000.0001)                 8.404959656062837E+10,      /* I = 85 */
(PID.TID 0000.0001)                 8.078743937057303E+10,      /* I = 86 */
(PID.TID 0000.0001)                 7.692702995909871E+10,      /* I = 87 */
(PID.TID 0000.0001)                 7.248875782324816E+10,      /* I = 88 */
(PID.TID 0000.0001)                 6.748840226738273E+10,      /* I = 89 */
(PID.TID 0000.0001)                 6.193257577506789E+10,      /* I = 90 */
(PID.TID 0000.0001)                 5.581203765722642E+10,      /* I = 91 */
(PID.TID 0000.0001)                 4.909074590409594E+10,      /* I = 92 */
(PID.TID 0000.0001)                 4.168532893152940E+10,      /* I = 93 */
(PID.TID 0000.0001)                 3.341968103208270E+10,      /* I = 94 */
(PID.TID 0000.0001)                 2.390126200743558E+10,      /* I = 95 */
(PID.TID 0000.0001)     2 @  1.216690346714270E+10,             /* I = 96: 97 */
(PID.TID 0000.0001)                 2.390126200743558E+10,      /* I = 98 */
(PID.TID 0000.0001)                 3.341968103208270E+10,      /* I = 99 */
(PID.TID 0000.0001)                 4.168532893152940E+10,      /* I =100 */
(PID.TID 0000.0001)                 4.909074590409594E+10,      /* I =101 */
(PID.TID 0000.0001)                 5.581203765722642E+10,      /* I =102 */
(PID.TID 0000.0001)                 6.193257577506789E+10,      /* I =103 */
(PID.TID 0000.0001)                 6.748840226738273E+10,      /* I =104 */
(PID.TID 0000.0001)                 7.248875782324816E+10,      /* I =105 */
(PID.TID 0000.0001)                 7.692702995909871E+10,      /* I =106 */
(PID.TID 0000.0001)                 8.078743937057303E+10,      /* I =107 */
(PID.TID 0000.0001)                 8.404959656062837E+10,      /* I =108 */
(PID.TID 0000.0001)                 8.669186205742539E+10,      /* I =109 */
(PID.TID 0000.0001)                 8.869393350723612E+10,      /* I =110 */
(PID.TID 0000.0001)                 9.003884657168852E+10,      /* I =111 */
(PID.TID 0000.0001)     2 @  9.071447638299398E+10,             /* I =112:113 */
(PID.TID 0000.0001)                 9.003884657168852E+10,      /* I =114 */
(PID.TID 0000.0001)                 8.869393350723612E+10,      /* I =115 */
(PID.TID 0000.0001)                 8.669186205742539E+10,      /* I =116 */
(PID.TID 0000.0001)                 8.404959656062837E+10,      /* I =117 */
(PID.TID 0000.0001)                 8.078743937057303E+10,      /* I =118 */
(PID.TID 0000.0001)                 7.692702995909871E+10,      /* I =119 */
(PID.TID 0000.0001)                 7.248875782324816E+10,      /* I =120 */
(PID.TID 0000.0001)                 6.748840226738273E+10,      /* I =121 */
(PID.TID 0000.0001)                 6.193257577506789E+10,      /* I =122 */
(PID.TID 0000.0001)                 5.581203765722642E+10,      /* I =123 */
(PID.TID 0000.0001)                 4.909074590409594E+10,      /* I =124 */
(PID.TID 0000.0001)                 4.168532893152940E+10,      /* I =125 */
(PID.TID 0000.0001)                 3.341968103208270E+10,      /* I =126 */
(PID.TID 0000.0001)                 2.390126200743558E+10,      /* I =127 */
(PID.TID 0000.0001)     2 @  1.216690346714270E+10,             /* I =128:129 */
(PID.TID 0000.0001)                 2.390126200743558E+10,      /* I =130 */
(PID.TID 0000.0001)                 3.341968103208270E+10,      /* I =131 */
(PID.TID 0000.0001)                 4.168532893152940E+10,      /* I =132 */
(PID.TID 0000.0001)                 4.909074590409594E+10,      /* I =133 */
(PID.TID 0000.0001)                 5.581203765722642E+10,      /* I =134 */
(PID.TID 0000.0001)                 6.193257577506789E+10,      /* I =135 */
(PID.TID 0000.0001)                 6.748840226738273E+10,      /* I =136 */
(PID.TID 0000.0001)                 7.248875782324816E+10,      /* I =137 */
(PID.TID 0000.0001)                 7.692702995909871E+10,      /* I =138 */
(PID.TID 0000.0001)                 8.078743937057303E+10,      /* I =139 */
(PID.TID 0000.0001)                 8.404959656062837E+10,      /* I =140 */
(PID.TID 0000.0001)                 8.669186205742539E+10,      /* I =141 */
(PID.TID 0000.0001)                 8.869393350723612E+10,      /* I =142 */
(PID.TID 0000.0001)                 9.003884657168852E+10,      /* I =143 */
(PID.TID 0000.0001)     2 @  9.071447638299398E+10,             /* I =144:145 */
(PID.TID 0000.0001)                 9.003884657168852E+10,      /* I =146 */
(PID.TID 0000.0001)                 8.869393350723612E+10,      /* I =147 */
(PID.TID 0000.0001)                 8.669186205742539E+10,      /* I =148 */
(PID.TID 0000.0001)                 8.404959656062837E+10,      /* I =149 */
(PID.TID 0000.0001)                 8.078743937057303E+10,      /* I =150 */
(PID.TID 0000.0001)                 7.692702995909871E+10,      /* I =151 */
(PID.TID 0000.0001)                 7.248875782324816E+10,      /* I =152 */
(PID.TID 0000.0001)                 6.748840226738273E+10,      /* I =153 */
(PID.TID 0000.0001)                 6.193257577506789E+10,      /* I =154 */
(PID.TID 0000.0001)                 5.581203765722642E+10,      /* I =155 */
(PID.TID 0000.0001)                 4.909074590409594E+10,      /* I =156 */
(PID.TID 0000.0001)                 4.168532893152940E+10,      /* I =157 */
(PID.TID 0000.0001)                 3.341968103208270E+10,      /* I =158 */
(PID.TID 0000.0001)                 2.390126200743558E+10,      /* I =159 */
(PID.TID 0000.0001)     2 @  1.216690346714270E+10,             /* I =160:161 */
(PID.TID 0000.0001)                 2.390126200743558E+10,      /* I =162 */
(PID.TID 0000.0001)                 3.341968103208270E+10,      /* I =163 */
(PID.TID 0000.0001)                 4.168532893152940E+10,      /* I =164 */
(PID.TID 0000.0001)                 4.909074590409594E+10,      /* I =165 */
(PID.TID 0000.0001)                 5.581203765722642E+10,      /* I =166 */
(PID.TID 0000.0001)                 6.193257577506789E+10,      /* I =167 */
(PID.TID 0000.0001)                 6.748840226738273E+10,      /* I =168 */
(PID.TID 0000.0001)                 7.248875782324816E+10,      /* I =169 */
(PID.TID 0000.0001)                 7.692702995909871E+10,      /* I =170 */
(PID.TID 0000.0001)                 8.078743937057303E+10,      /* I =171 */
(PID.TID 0000.0001)                 8.404959656062837E+10,      /* I =172 */
(PID.TID 0000.0001)                 8.669186205742539E+10,      /* I =173 */
(PID.TID 0000.0001)                 8.869393350723612E+10,      /* I =174 */
(PID.TID 0000.0001)                 9.003884657168852E+10,      /* I =175 */
(PID.TID 0000.0001)     2 @  9.071447638299398E+10,             /* I =176:177 */
(PID.TID 0000.0001)                 9.003884657168852E+10,      /* I =178 */
(PID.TID 0000.0001)                 8.869393350723612E+10,      /* I =179 */
(PID.TID 0000.0001)                 8.669186205742539E+10,      /* I =180 */
(PID.TID 0000.0001)                 8.404959656062837E+10,      /* I =181 */
(PID.TID 0000.0001)                 8.078743937057303E+10,      /* I =182 */
(PID.TID 0000.0001)                 7.692702995909871E+10,      /* I =183 */
(PID.TID 0000.0001)                 7.248875782324816E+10,      /* I =184 */
(PID.TID 0000.0001)                 6.748840226738273E+10,      /* I =185 */
(PID.TID 0000.0001)                 6.193257577506789E+10,      /* I =186 */
(PID.TID 0000.0001)                 5.581203765722642E+10,      /* I =187 */
(PID.TID 0000.0001)                 4.909074590409594E+10,      /* I =188 */
(PID.TID 0000.0001)                 4.168532893152940E+10,      /* I =189 */
(PID.TID 0000.0001)                 3.341968103208270E+10,      /* I =190 */
(PID.TID 0000.0001)                 2.390126200743558E+10,      /* I =191 */
(PID.TID 0000.0001)                 1.216690346714270E+10       /* I =192 */
(PID.TID 0000.0001)     ;
(PID.TID 0000.0001) rAs =  /* rAs(1,:,1,:) ( m - cartesian, degrees - spherical ) */
(PID.TID 0000.0001)                 1.216690346714270E+10,      /* J =  1 */
(PID.TID 0000.0001)                 1.974052138506315E+10,      /* J =  2 */
(PID.TID 0000.0001)                 2.943712825252015E+10,      /* J =  3 */
(PID.TID 0000.0001)                 3.801790263324359E+10,      /* J =  4 */
(PID.TID 0000.0001)                 4.571243814189866E+10,      /* J =  5 */
(PID.TID 0000.0001)                 5.269930713599979E+10,      /* J =  6 */
(PID.TID 0000.0001)                 5.907428494299064E+10,      /* J =  7 */
(PID.TID 0000.0001)                 6.488320895111515E+10,      /* J =  8 */
(PID.TID 0000.0001)                 7.014205907741883E+10,      /* J =  9 */
(PID.TID 0000.0001)                 7.484854821847499E+10,      /* J = 10 */
(PID.TID 0000.0001)                 7.898934631431560E+10,      /* J = 11 */
(PID.TID 0000.0001)                 8.254500894894537E+10,      /* J = 12 */
(PID.TID 0000.0001)                 8.549360686473493E+10,      /* J = 13 */
(PID.TID 0000.0001)                 8.781353403175085E+10,      /* J = 14 */
(PID.TID 0000.0001)                 8.948571540392020E+10,      /* J = 15 */
(PID.TID 0000.0001)                 9.049530583086168E+10,      /* J = 16 */
(PID.TID 0000.0001)                 9.083293515008307E+10,      /* J = 17 */
(PID.TID 0000.0001)                 9.049530583087069E+10,      /* J = 18 */
(PID.TID 0000.0001)                 8.948571540391121E+10,      /* J = 19 */
(PID.TID 0000.0001)                 8.781353403174184E+10,      /* J = 20 */
(PID.TID 0000.0001)                 8.549360686467183E+10,      /* J = 21 */
(PID.TID 0000.0001)                 8.254500894890933E+10,      /* J = 22 */
(PID.TID 0000.0001)                 7.898934631434262E+10,      /* J = 23 */
(PID.TID 0000.0001)                 7.484854821844796E+10,      /* J = 24 */
(PID.TID 0000.0001)                 7.014205907742783E+10,      /* J = 25 */
(PID.TID 0000.0001)                 6.488320895111515E+10,      /* J = 26 */
(PID.TID 0000.0001)                 5.907428494299064E+10,      /* J = 27 */
(PID.TID 0000.0001)                 5.269930713599078E+10,      /* J = 28 */
(PID.TID 0000.0001)                 4.571243814190768E+10,      /* J = 29 */
(PID.TID 0000.0001)                 3.801790263325260E+10,      /* J = 30 */
(PID.TID 0000.0001)                 2.943712825251114E+10,      /* J = 31 */
(PID.TID 0000.0001)                 1.974052138509018E+10       /* J = 32 */
(PID.TID 0000.0001)     ;
(PID.TID 0000.0001) 
(PID.TID 0000.0001) // =======================================================
(PID.TID 0000.0001) // Field Ocean mixed-layer depth on atmos grid at iteration          1
(PID.TID 0000.0001) // CMIN =          5.000000000000000E+01
(PID.TID 0000.0001) // CMAX =          5.000000000000000E+01
(PID.TID 0000.0001) // CINT =          0.000000000000000E+00
(PID.TID 0000.0001) // SYMBOLS (CMIN->CMAX): -abcdefghijklmnopqrstuvwxyz+
(PID.TID 0000.0001) //                  0.0: .
(PID.TID 0000.0001) // RANGE I (Lo:Hi:Step):(  -1: 194:   1)
(PID.TID 0000.0001) // RANGE J (Lo:Hi:Step):(  34:  -1:  -1)
(PID.TID 0000.0001) // RANGE K (Lo:Hi:Step):(   1:   1:   1)
(PID.TID 0000.0001) // =======================================================
(PID.TID 0000.0001) // =======================================================
(PID.TID 0000.0001) // END OF FIELD                                          =
(PID.TID 0000.0001) // =======================================================
(PID.TID 0000.0001) 
(PID.TID 0000.0001) // =======================================================
(PID.TID 0000.0001) // Field Initial Temperature at iteration          1
(PID.TID 0000.0001) // CMIN =          2.896000000000000E+02
(PID.TID 0000.0001) // CMAX =          2.896000000000000E+02
(PID.TID 0000.0001) // CINT =          0.000000000000000E+00
(PID.TID 0000.0001) // SYMBOLS (CMIN->CMAX): -abcdefghijklmnopqrstuvwxyz+
(PID.TID 0000.0001) //                  0.0: .
(PID.TID 0000.0001) // RANGE I (Lo:Hi:Step):(   1: 192:   1)
(PID.TID 0000.0001) // RANGE J (Lo:Hi:Step):(  32:   1:  -1)
(PID.TID 0000.0001) // RANGE K (Lo:Hi:Step):(   1:   1:   1)
(PID.TID 0000.0001) // =======================================================
(PID.TID 0000.0001) // =======================================================
(PID.TID 0000.0001) // END OF FIELD                                          =
(PID.TID 0000.0001) // =======================================================
(PID.TID 0000.0001) 
(PID.TID 0000.0001) // =======================================================
(PID.TID 0000.0001) // Field Initial Salinity at iteration          1
(PID.TID 0000.0001) // CMIN =          1.000000000000000E+32
(PID.TID 0000.0001) // CMAX =         -1.000000000000000E+32
(PID.TID 0000.0001) // CINT =          0.000000000000000E+00
(PID.TID 0000.0001) // SYMBOLS (CMIN->CMAX): -abcdefghijklmnopqrstuvwxyz+
(PID.TID 0000.0001) //                  0.0: .
(PID.TID 0000.0001) // RANGE I (Lo:Hi:Step):(   1: 192:   1)
(PID.TID 0000.0001) // RANGE J (Lo:Hi:Step):(  32:   1:  -1)
(PID.TID 0000.0001) // RANGE K (Lo:Hi:Step):(   1:   1:   1)
(PID.TID 0000.0001) // =======================================================
(PID.TID 0000.0001) // =======================================================
(PID.TID 0000.0001) // END OF FIELD                                          =
(PID.TID 0000.0001) // =======================================================
(PID.TID 0000.0001) 
(PID.TID 0000.0001) Start initial hydrostatic pressure computation
(PID.TID 0000.0001) Pressure is predetermined for buoyancyRelation ATMOSPHERIC
(PID.TID 0000.0001) 
(PID.TID 0000.0001)  MDSREADFIELD: opening global file: land_grT_ini.cpl.bin
(PID.TID 0000.0001)  MDSREADFIELD: opening global file: land_grW_ini.mn.bin
(PID.TID 0000.0001)  MDSREADFIELD: opening global file: land_snw_ini.cpl.bin
(PID.TID 0000.0001) // =======================================================
(PID.TID 0000.0001) // Model current state
(PID.TID 0000.0001) // =======================================================
(PID.TID 0000.0001) 
(PID.TID 0000.0001) // =======================================================
(PID.TID 0000.0001) // Begin MONITOR dynamic field statistics
(PID.TID 0000.0001) // =======================================================
(PID.TID 0000.0001) %MON time_tsnumber                =                     0
(PID.TID 0000.0001) %MON time_secondsf                =   0.0000000000000E+00
(PID.TID 0000.0001) %MON dynstat_eta_max              =   0.0000000000000E+00
(PID.TID 0000.0001) %MON dynstat_eta_min              =   0.0000000000000E+00
(PID.TID 0000.0001) %MON dynstat_eta_mean             =   0.0000000000000E+00
(PID.TID 0000.0001) %MON dynstat_eta_sd               =   0.0000000000000E+00
(PID.TID 0000.0001) %MON dynstat_eta_del2             =   0.0000000000000E+00
(PID.TID 0000.0001) %MON dynstat_uvel_max             =   0.0000000000000E+00
(PID.TID 0000.0001) %MON dynstat_uvel_min             =   0.0000000000000E+00
(PID.TID 0000.0001) %MON dynstat_uvel_mean            =   0.0000000000000E+00
(PID.TID 0000.0001) %MON dynstat_uvel_sd              =   0.0000000000000E+00
(PID.TID 0000.0001) %MON dynstat_uvel_del2            =   0.0000000000000E+00
(PID.TID 0000.0001) %MON dynstat_vvel_max             =   0.0000000000000E+00
(PID.TID 0000.0001) %MON dynstat_vvel_min             =   0.0000000000000E+00
(PID.TID 0000.0001) %MON dynstat_vvel_mean            =   0.0000000000000E+00
(PID.TID 0000.0001) %MON dynstat_vvel_sd              =   0.0000000000000E+00
(PID.TID 0000.0001) %MON dynstat_vvel_del2            =   0.0000000000000E+00
(PID.TID 0000.0001) %MON dynstat_wvel_max             =   0.0000000000000E+00
(PID.TID 0000.0001) %MON dynstat_wvel_min             =   0.0000000000000E+00
(PID.TID 0000.0001) %MON dynstat_wvel_mean            =   0.0000000000000E+00
(PID.TID 0000.0001) %MON dynstat_wvel_sd              =   0.0000000000000E+00
(PID.TID 0000.0001) %MON dynstat_wvel_del2            =   0.0000000000000E+00
(PID.TID 0000.0001) %MON dynstat_theta_max            =   4.3740000000000E+02
(PID.TID 0000.0001) %MON dynstat_theta_min            =   2.8960000000000E+02
(PID.TID 0000.0001) %MON dynstat_theta_mean           =   3.3171566851928E+02
(PID.TID 0000.0001) %MON dynstat_theta_sd             =   4.7418367738381E+01
(PID.TID 0000.0001) %MON dynstat_theta_del2           =   0.0000000000000E+00
(PID.TID 0000.0001) %MON dynstat_salt_max             =   0.0000000000000E+00
(PID.TID 0000.0001) %MON dynstat_salt_min             =   0.0000000000000E+00
(PID.TID 0000.0001) %MON dynstat_salt_mean            =   0.0000000000000E+00
(PID.TID 0000.0001) %MON dynstat_salt_sd              =   0.0000000000000E+00
(PID.TID 0000.0001) %MON dynstat_salt_del2            =   0.0000000000000E+00
(PID.TID 0000.0001) %MON advcfl_uvel_max              =   0.0000000000000E+00
(PID.TID 0000.0001) %MON advcfl_vvel_max              =   0.0000000000000E+00
(PID.TID 0000.0001) %MON advcfl_wvel_max              =   0.0000000000000E+00
(PID.TID 0000.0001) %MON advcfl_W_hf_max              =   0.0000000000000E+00
(PID.TID 0000.0001) %MON pe_b_mean                    =   0.0000000000000E+00
(PID.TID 0000.0001) %MON ke_max                       =   0.0000000000000E+00
(PID.TID 0000.0001) %MON ke_mean                      =   0.0000000000000E+00
(PID.TID 0000.0001) %MON ke_vol                       =   4.9523908919847E+19
(PID.TID 0000.0001) %MON vort_r_min                   =   0.0000000000000E+00
(PID.TID 0000.0001) %MON vort_r_max                   =   0.0000000000000E+00
(PID.TID 0000.0001) %MON vort_a_mean                  =   6.7059142262023E-08
(PID.TID 0000.0001) %MON vort_a_sd                    =   8.3707550193536E-05
(PID.TID 0000.0001) %MON vort_p_mean                  =   6.8751141692627E-08
(PID.TID 0000.0001) %MON vort_p_sd                    =   9.1376237406444E-05
(PID.TID 0000.0001) %MON surfExpan_theta_mean         =   0.0000000000000E+00
(PID.TID 0000.0001) %MON surfExpan_salt_mean          =   0.0000000000000E+00
(PID.TID 0000.0001) %MON surfExpan_Heat_mean          =   0.0000000000000E+00
(PID.TID 0000.0001) %MON En_Budget_T2PE_mean          =   0.0000000000000E+00
(PID.TID 0000.0001) // =======================================================
(PID.TID 0000.0001) // End MONITOR dynamic field statistics
(PID.TID 0000.0001) // =======================================================
(PID.TID 0000.0001) // =======================================================
(PID.TID 0000.0001) // Begin MONITOR Land statistics
(PID.TID 0000.0001) // =======================================================
(PID.TID 0000.0001) %MON land_time_sec                =   0.0000000000000E+00
(PID.TID 0000.0001) %MON land_SnwH_ave_G              =   1.5327595968918E-01
(PID.TID 0000.0001) %MON land_SnwH_ave_S              =   5.5906277570341E-01
(PID.TID 0000.0001) %MON land_SnwH_ave_T              =   2.7405468051285E-07
(PID.TID 0000.0001) %MON land_SnwH_ave_N              =   1.2399418417812E-01
(PID.TID 0000.0001) %MON land_SnwH_max_S              =   1.0000000000000E+00
(PID.TID 0000.0001) %MON land_SnwH_max_T              =   7.7654719504950E-05
(PID.TID 0000.0001) %MON land_SnwH_max_N              =   1.0000000000000E+00
(PID.TID 0000.0001) %MON land_TotEnerg_G              =  -6.2318014275423E+21
(PID.TID 0000.0001) %MON land_TotEnerg_S              =  -4.9893442833974E+21
(PID.TID 0000.0001) %MON land_TotEnerg_T              =   7.3640891470528E+21
(PID.TID 0000.0001) %MON land_TotEnerg_N              =  -8.6065462911976E+21
(PID.TID 0000.0001) %MON land_Tsrf_ave_G              =  -2.5815959216687E+00
(PID.TID 0000.0001) %MON land_Tsrf_ave_S              =  -3.3132697963695E+00
(PID.TID 0000.0001) %MON land_Tsrf_ave_T              =   2.0149199094728E+01
(PID.TID 0000.0001) %MON land_Tsrf_ave_N              =  -1.7523201785581E+01
(PID.TID 0000.0001) %MON land_Tsrf_min_S              =  -3.8985871813098E+01
(PID.TID 0000.0001) %MON land_Tsrf_min_T              =  -8.0316451094858E+00
(PID.TID 0000.0001) %MON land_Tsrf_min_N              =  -5.5018877502675E+01
(PID.TID 0000.0001) %MON land_Tsrf_max_S              =   3.3608904510445E+01
(PID.TID 0000.0001) %MON land_Tsrf_max_T              =   3.7568273139015E+01
(PID.TID 0000.0001) %MON land_Tsrf_max_N              =   1.5686208531239E+01
(PID.TID 0000.0001) %MON land_Tgr1_ave_G              =  -2.5815959216687E+00
(PID.TID 0000.0001) %MON land_Tgr1_ave_S              =  -3.3132697963695E+00
(PID.TID 0000.0001) %MON land_Tgr1_ave_T              =   2.0149199094728E+01
(PID.TID 0000.0001) %MON land_Tgr1_ave_N              =  -1.7523201785581E+01
(PID.TID 0000.0001) %MON land_Tgr1_min_S              =  -3.8985871813098E+01
(PID.TID 0000.0001) %MON land_Tgr1_min_T              =  -8.0316451094858E+00
(PID.TID 0000.0001) %MON land_Tgr1_min_N              =  -5.5018877502675E+01
(PID.TID 0000.0001) %MON land_Tgr1_max_S              =   3.3608904510445E+01
(PID.TID 0000.0001) %MON land_Tgr1_max_T              =   3.7568273139015E+01
(PID.TID 0000.0001) %MON land_Tgr1_max_N              =   1.5686208531239E+01
(PID.TID 0000.0001) %MON land_Tgr2_ave_G              =   4.2075844789702E+00
(PID.TID 0000.0001) %MON land_Tgr2_ave_S              =  -1.8731900381715E+01
(PID.TID 0000.0001) %MON land_Tgr2_ave_T              =   2.2013117275370E+01
(PID.TID 0000.0001) %MON land_Tgr2_ave_N              =  -2.4099755438273E-01
(PID.TID 0000.0001) %MON land_Tgr2_min_S              =  -6.4762296561906E+01
(PID.TID 0000.0001) %MON land_Tgr2_min_T              =  -9.7051070040243E+00
(PID.TID 0000.0001) %MON land_Tgr2_min_N              =  -4.0193619391069E+01
(PID.TID 0000.0001) %MON land_Tgr2_max_S              =   2.3360008819708E+01
(PID.TID 0000.0001) %MON land_Tgr2_max_T              =   3.1360925912704E+01
(PID.TID 0000.0001) %MON land_Tgr2_max_N              =   2.9833038898793E+01
(PID.TID 0000.0001) %MON land_grdW_ave_G              =   4.8705004606900E-01
(PID.TID 0000.0001) %MON land_grdW_ave_S              =   3.0877764965169E-01
(PID.TID 0000.0001) %MON land_grdW_ave_T              =   5.6494425086260E-01
(PID.TID 0000.0001) %MON land_grdW_ave_N              =   4.9286506610416E-01
(PID.TID 0000.0001) %MON land_grdW_min_S              =   2.5944074829007E-02
(PID.TID 0000.0001) %MON land_grdW_min_T              =   0.0000000000000E+00
(PID.TID 0000.0001) %MON land_grdW_min_N              =   0.0000000000000E+00
(PID.TID 0000.0001) // =======================================================
(PID.TID 0000.0001) // End MONITOR Land statistics
(PID.TID 0000.0001) // =======================================================
(PID.TID 0000.0001) // =======================================================
(PID.TID 0000.0001) // Begin MONITOR Therm.SeaIce statistics
(PID.TID 0000.0001) // =======================================================
(PID.TID 0000.0001) %MON thSI_time_sec                =   0.0000000000000E+00
(PID.TID 0000.0001) %MON thSI_Ice_Area_G              =   0.0000000000000E+00
(PID.TID 0000.0001) %MON thSI_Ice_Area_S              =   0.0000000000000E+00
(PID.TID 0000.0001) %MON thSI_Ice_Area_N              =   0.0000000000000E+00
(PID.TID 0000.0001) %MON thSI_IceH_ave_G              =   0.0000000000000E+00
(PID.TID 0000.0001) %MON thSI_IceH_ave_S              =   0.0000000000000E+00
(PID.TID 0000.0001) %MON thSI_IceH_ave_N              =   0.0000000000000E+00
(PID.TID 0000.0001) %MON thSI_IceH_max_S              =   0.0000000000000E+00
(PID.TID 0000.0001) %MON thSI_IceH_max_N              =   0.0000000000000E+00
(PID.TID 0000.0001) %MON thSI_SnwH_ave_G              =   0.0000000000000E+00
(PID.TID 0000.0001) %MON thSI_SnwH_ave_S              =   0.0000000000000E+00
(PID.TID 0000.0001) %MON thSI_SnwH_ave_N              =   0.0000000000000E+00
(PID.TID 0000.0001) %MON thSI_SnwH_max_S              =   0.0000000000000E+00
(PID.TID 0000.0001) %MON thSI_SnwH_max_N              =   0.0000000000000E+00
(PID.TID 0000.0001) %MON thSI_TotEnerg_G              =   0.0000000000000E+00
(PID.TID 0000.0001) %MON thSI_Tsrf_ave_G              =   0.0000000000000E+00
(PID.TID 0000.0001) %MON thSI_Tsrf_ave_S              =   0.0000000000000E+00
(PID.TID 0000.0001) %MON thSI_Tsrf_ave_N              =   0.0000000000000E+00
(PID.TID 0000.0001) %MON thSI_Tsrf_min_S              =   0.0000000000000E+00
(PID.TID 0000.0001) %MON thSI_Tsrf_min_N              =   0.0000000000000E+00
(PID.TID 0000.0001) %MON thSI_Tsrf_max_S              =   0.0000000000000E+00
(PID.TID 0000.0001) %MON thSI_Tsrf_max_N              =   0.0000000000000E+00
(PID.TID 0000.0001) %MON thSI_Tic1_ave_G              =   0.0000000000000E+00
(PID.TID 0000.0001) %MON thSI_Tic1_ave_S              =   0.0000000000000E+00
(PID.TID 0000.0001) %MON thSI_Tic1_ave_N              =   0.0000000000000E+00
(PID.TID 0000.0001) %MON thSI_Tic1_min_S              =   0.0000000000000E+00
(PID.TID 0000.0001) %MON thSI_Tic1_min_N              =   0.0000000000000E+00
(PID.TID 0000.0001) %MON thSI_Tic1_max_S              =   0.0000000000000E+00
(PID.TID 0000.0001) %MON thSI_Tic1_max_N              =   0.0000000000000E+00
(PID.TID 0000.0001) %MON thSI_Tic2_ave_G              =   0.0000000000000E+00
(PID.TID 0000.0001) %MON thSI_Tic2_ave_S              =   0.0000000000000E+00
(PID.TID 0000.0001) %MON thSI_Tic2_ave_N              =   0.0000000000000E+00
(PID.TID 0000.0001) %MON thSI_Tic2_min_S              =   0.0000000000000E+00
(PID.TID 0000.0001) %MON thSI_Tic2_min_N              =   0.0000000000000E+00
(PID.TID 0000.0001) %MON thSI_Tic2_max_S              =   0.0000000000000E+00
(PID.TID 0000.0001) %MON thSI_Tic2_max_N              =   0.0000000000000E+00
(PID.TID 0000.0001) // =======================================================
(PID.TID 0000.0001) // End MONITOR Therm.SeaIce statistics
(PID.TID 0000.0001) // =======================================================
(PID.TID 0000.0001)  MDSREADFIELD: opening global file: albedo_cs32.bin
(PID.TID 0000.0001)  MDSREADFIELD: opening global file: vegetFrc.cpl_FM.bin
(PID.TID 0000.0001)  MDSREADFIELD: opening global file: seaSurfT.cpl_FM.bin
(PID.TID 0000.0001)  MDSREADFIELD: opening global file: seaSurfT.cpl_FM.bin
(PID.TID 0000.0001)  MDSREADFIELD: opening global file: lndSurfT.cpl_FM.bin
(PID.TID 0000.0001)  MDSREADFIELD: opening global file: lndSurfT.cpl_FM.bin
(PID.TID 0000.0001)  MDSREADFIELD: opening global file: seaIce.cpl3FM.bin
(PID.TID 0000.0001)  MDSREADFIELD: opening global file: seaIce.cpl3FM.bin
(PID.TID 0000.0001)  MDSREADFIELD: opening global file: snowDepth.cpl_FM.bin
(PID.TID 0000.0001)  MDSREADFIELD: opening global file: snowDepth.cpl_FM.bin
(PID.TID 0000.0001)  MDSREADFIELD: opening global file: soilMoist.cpl_FM.bin
(PID.TID 0000.0001)  MDSREADFIELD: opening global file: soilMoist.cpl_FM.bin
(PID.TID 0000.0001)  MDSREADFIELD: opening global file: soilMoist.cpl_FM.bin
(PID.TID 0000.0001)  MDSREADFIELD: opening global file: soilMoist.cpl_FM.bin
 cg2d: Sum(rhs),rhsMax =   3.97903932025656E-12  4.56406615217961E+03
(PID.TID 0000.0001)                    cg2d_init_res =    2.69435642942126E+04
(PID.TID 0000.0001)                       cg2d_iters =    16
(PID.TID 0000.0001)                         cg2d_res =    1.06445831620481E-10
(PID.TID 0000.0001) // =======================================================
(PID.TID 0000.0001) // Begin MONITOR dynamic field statistics
(PID.TID 0000.0001) // =======================================================
(PID.TID 0000.0001) %MON time_tsnumber                =                     1
(PID.TID 0000.0001) %MON time_secondsf                =   4.5000000000000E+02
(PID.TID 0000.0001) %MON dynstat_eta_max              =   4.9613836014184E+02
(PID.TID 0000.0001) %MON dynstat_eta_min              =  -4.3215362210608E+02
(PID.TID 0000.0001) %MON dynstat_eta_mean             =  -1.3414280178485E-16
(PID.TID 0000.0001) %MON dynstat_eta_sd               =   4.9165804759269E+01
(PID.TID 0000.0001) %MON dynstat_eta_del2             =   1.4268407331310E+01
(PID.TID 0000.0001) %MON dynstat_uvel_max             =   3.4896271935293E+00
(PID.TID 0000.0001) %MON dynstat_uvel_min             =  -2.8043477370503E+00
(PID.TID 0000.0001) %MON dynstat_uvel_mean            =  -8.6186344161884E-04
(PID.TID 0000.0001) %MON dynstat_uvel_sd              =   2.3938982710456E-01
(PID.TID 0000.0001) %MON dynstat_uvel_del2            =   3.3130023277177E-02
(PID.TID 0000.0001) %MON dynstat_vvel_max             =   3.6044902563287E+00
(PID.TID 0000.0001) %MON dynstat_vvel_min             =  -3.8832729647589E+00
(PID.TID 0000.0001) %MON dynstat_vvel_mean            =   1.0770655299200E-03
(PID.TID 0000.0001) %MON dynstat_vvel_sd              =   2.3140373950851E-01
(PID.TID 0000.0001) %MON dynstat_vvel_del2            =   3.3576370990052E-02
(PID.TID 0000.0001) %MON dynstat_wvel_max             =   4.7528267180664E-02
(PID.TID 0000.0001) %MON dynstat_wvel_min             =  -3.2491026139051E-01
(PID.TID 0000.0001) %MON dynstat_wvel_mean            =  -1.2601788696702E-03
(PID.TID 0000.0001) %MON dynstat_wvel_sd              =   1.0323039191429E-02
(PID.TID 0000.0001) %MON dynstat_wvel_del2            =   1.1364719435226E-03
(PID.TID 0000.0001) %MON dynstat_theta_max            =   4.3742421279788E+02
(PID.TID 0000.0001) %MON dynstat_theta_min            =   2.8934446142959E+02
(PID.TID 0000.0001) %MON dynstat_theta_mean           =   3.3171681702165E+02
(PID.TID 0000.0001) %MON dynstat_theta_sd             =   4.7417090058469E+01
(PID.TID 0000.0001) %MON dynstat_theta_del2           =   1.8085142586785E-03
(PID.TID 0000.0001) %MON dynstat_salt_max             =   4.8330616477211E-01
(PID.TID 0000.0001) %MON dynstat_salt_min             =  -3.6274129363502E-03
(PID.TID 0000.0001) %MON dynstat_salt_mean            =   4.0932545346172E-03
(PID.TID 0000.0001) %MON dynstat_salt_sd              =   1.7925045604470E-02
(PID.TID 0000.0001) %MON dynstat_salt_del2            =   7.2186794348067E-04
(PID.TID 0000.0001) %MON advcfl_uvel_max              =   5.0093339770585E-03
(PID.TID 0000.0001) %MON advcfl_vvel_max              =   5.5233695889847E-03
(PID.TID 0000.0001) %MON advcfl_wvel_max              =   5.3167133682084E-03
(PID.TID 0000.0001) %MON advcfl_W_hf_max              =   1.3330281514811E-02
(PID.TID 0000.0001) %MON pe_b_mean                    =  -1.2347200430462E-01
(PID.TID 0000.0001) %MON ke_max                       =   6.1065189290563E+00
(PID.TID 0000.0001) %MON ke_mean                      =   5.5101768014871E-02
(PID.TID 0000.0001) %MON ke_vol                       =   4.9523908919847E+19
(PID.TID 0000.0001) %MON vort_r_min                   =  -9.4580139346488E-06
(PID.TID 0000.0001) %MON vort_r_max                   =   7.4909088464658E-06
(PID.TID 0000.0001) %MON vort_a_mean                  =   6.7059142262051E-08
(PID.TID 0000.0001) %MON vort_a_sd                    =   8.3707668575653E-05
(PID.TID 0000.0001) %MON vort_p_mean                  =   6.8751141692655E-08
(PID.TID 0000.0001) %MON vort_p_sd                    =   9.1371923286236E-05
(PID.TID 0000.0001) %MON surfExpan_theta_mean         =   1.1973498188410E-01
(PID.TID 0000.0001) %MON surfExpan_salt_mean          =   1.8113429030607E-06
(PID.TID 0000.0001) %MON surfExpan_Heat_mean          =  -9.8251693184337E+00
(PID.TID 0000.0001) %MON En_Budget_T2PE_mean          =   1.8746045010892E+01
(PID.TID 0000.0001) // =======================================================
(PID.TID 0000.0001) // End MONITOR dynamic field statistics
(PID.TID 0000.0001) // =======================================================
(PID.TID 0000.0001) // =======================================================
(PID.TID 0000.0001) // Begin MONITOR Land statistics
(PID.TID 0000.0001) // =======================================================
(PID.TID 0000.0001) %MON land_time_sec                =   4.5000000000000E+02
(PID.TID 0000.0001) %MON land_SnwH_ave_G              =   1.5324899397338E-01
(PID.TID 0000.0001) %MON land_SnwH_ave_S              =   5.5906218965844E-01
(PID.TID 0000.0001) %MON land_SnwH_ave_T              =   0.0000000000000E+00
(PID.TID 0000.0001) %MON land_SnwH_ave_N              =   1.2394083715153E-01
(PID.TID 0000.0001) %MON land_SnwH_max_S              =   9.9999995109566E-01
(PID.TID 0000.0001) %MON land_SnwH_max_T              =   0.0000000000000E+00
(PID.TID 0000.0001) %MON land_SnwH_max_N              =   9.9999994050054E-01
(PID.TID 0000.0001) %MON LAND : Area= 1.460176263E+14 ; Lat sep= -24.00  24.00
(PID.TID 0000.0001) %MON LAND : LatA= 2.377676559E+13 4.894489218E+13 7.329596851E+13
(PID.TID 0000.0001) %MON land_TotEnerg_G              =  -6.2449515374219E+21
(PID.TID 0000.0001) %MON land_TotEnerg_S              =  -4.9909822313117E+21
(PID.TID 0000.0001) %MON land_TotEnerg_T              =   7.3535791679035E+21
(PID.TID 0000.0001) %MON land_TotEnerg_N              =  -8.6075484740138E+21
(PID.TID 0000.0001) %MON land_Tsrf_ave_G              =  -4.5052770691886E+00
(PID.TID 0000.0001) %MON land_Tsrf_ave_S              =  -4.8557437392646E+00
(PID.TID 0000.0001) %MON land_Tsrf_ave_T              =   1.8966286014486E+01
(PID.TID 0000.0001) %MON land_Tsrf_ave_N              =  -2.0065207357261E+01
(PID.TID 0000.0001) %MON land_Tsrf_min_S              =  -3.4789766254951E+01
(PID.TID 0000.0001) %MON land_Tsrf_min_T              =  -7.7792666782447E+00
(PID.TID 0000.0001) %MON land_Tsrf_min_N              =  -5.2214355600519E+01
(PID.TID 0000.0001) %MON land_Tsrf_max_S              =   3.1948450259187E+01
(PID.TID 0000.0001) %MON land_Tsrf_max_T              =   3.5749274328408E+01
(PID.TID 0000.0001) %MON land_Tsrf_max_N              =   1.5372300088674E+01
(PID.TID 0000.0001) %MON land_Tgr1_ave_G              =  -3.1128744327563E+00
(PID.TID 0000.0001) %MON land_Tgr1_ave_S              =  -3.7817603349593E+00
(PID.TID 0000.0001) %MON land_Tgr1_ave_T              =   1.8966286014486E+01
(PID.TID 0000.0001) %MON land_Tgr1_ave_N              =  -1.7639705931337E+01
(PID.TID 0000.0001) %MON land_Tgr1_min_S              =  -3.8998400972344E+01
(PID.TID 0000.0001) %MON land_Tgr1_min_T              =  -7.7792666782447E+00
(PID.TID 0000.0001) %MON land_Tgr1_min_N              =  -5.5006040010541E+01
(PID.TID 0000.0001) %MON land_Tgr1_max_S              =   3.1948450259187E+01
(PID.TID 0000.0001) %MON land_Tgr1_max_T              =   3.5749274328408E+01
(PID.TID 0000.0001) %MON land_Tgr1_max_N              =   1.5372300088674E+01
(PID.TID 0000.0001) %MON land_Tgr2_ave_G              =   4.2074719542915E+00
(PID.TID 0000.0001) %MON land_Tgr2_ave_S              =  -1.8731652801597E+01
(PID.TID 0000.0001) %MON land_Tgr2_ave_T              =   2.2013064780622E+01
(PID.TID 0000.0001) %MON land_Tgr2_ave_N              =  -2.4126698108521E-01
(PID.TID 0000.0001) %MON land_Tgr2_min_S              =  -6.4761861869264E+01
(PID.TID 0000.0001) %MON land_Tgr2_min_T              =  -9.7050826694738E+00
(PID.TID 0000.0001) %MON land_Tgr2_min_N              =  -4.0193860864839E+01
(PID.TID 0000.0001) %MON land_Tgr2_max_S              =   2.3360154761154E+01
(PID.TID 0000.0001) %MON land_Tgr2_max_T              =   3.1360681941136E+01
(PID.TID 0000.0001) %MON land_Tgr2_max_N              =   2.9832408494537E+01
(PID.TID 0000.0001) %MON land_grdW_ave_G              =   4.8703719987843E-01
(PID.TID 0000.0001) %MON land_grdW_ave_S              =   3.0876198463413E-01
(PID.TID 0000.0001) %MON land_grdW_ave_T              =   5.6488810374958E-01
(PID.TID 0000.0001) %MON land_grdW_ave_N              =   4.9288204940644E-01
(PID.TID 0000.0001) %MON land_grdW_min_S              =   2.5934335757901E-02
(PID.TID 0000.0001) %MON land_grdW_min_T              =   0.0000000000000E+00
(PID.TID 0000.0001) %MON land_grdW_min_N              =   0.0000000000000E+00
(PID.TID 0000.0001) // =======================================================
(PID.TID 0000.0001) // End MONITOR Land statistics
(PID.TID 0000.0001) // =======================================================
(PID.TID 0000.0001) // =======================================================
(PID.TID 0000.0001) // Begin MONITOR Therm.SeaIce statistics
(PID.TID 0000.0001) // =======================================================
(PID.TID 0000.0001) %MON thSI_time_sec                =   4.5000000000000E+02
(PID.TID 0000.0001) %MON thSI_Ice_Area_G              =   0.0000000000000E+00
(PID.TID 0000.0001) %MON thSI_Ice_Area_S              =   0.0000000000000E+00
(PID.TID 0000.0001) %MON thSI_Ice_Area_N              =   0.0000000000000E+00
(PID.TID 0000.0001) %MON thSI_IceH_ave_G              =   0.0000000000000E+00
(PID.TID 0000.0001) %MON thSI_IceH_ave_S              =   0.0000000000000E+00
(PID.TID 0000.0001) %MON thSI_IceH_ave_N              =   0.0000000000000E+00
(PID.TID 0000.0001) %MON thSI_IceH_max_S              =   0.0000000000000E+00
(PID.TID 0000.0001) %MON thSI_IceH_max_N              =   0.0000000000000E+00
(PID.TID 0000.0001) %MON thSI_SnwH_ave_G              =   0.0000000000000E+00
(PID.TID 0000.0001) %MON thSI_SnwH_ave_S              =   0.0000000000000E+00
(PID.TID 0000.0001) %MON thSI_SnwH_ave_N              =   0.0000000000000E+00
(PID.TID 0000.0001) %MON thSI_SnwH_max_S              =   0.0000000000000E+00
(PID.TID 0000.0001) %MON thSI_SnwH_max_N              =   0.0000000000000E+00
(PID.TID 0000.0001) %MON thSI_TotEnerg_G              =   0.0000000000000E+00
(PID.TID 0000.0001) %MON thSI_Tsrf_ave_G              =   0.0000000000000E+00
(PID.TID 0000.0001) %MON thSI_Tsrf_ave_S              =   0.0000000000000E+00
(PID.TID 0000.0001) %MON thSI_Tsrf_ave_N              =   0.0000000000000E+00
(PID.TID 0000.0001) %MON thSI_Tsrf_min_S              =   0.0000000000000E+00
(PID.TID 0000.0001) %MON thSI_Tsrf_min_N              =   0.0000000000000E+00
(PID.TID 0000.0001) %MON thSI_Tsrf_max_S              =   0.0000000000000E+00
(PID.TID 0000.0001) %MON thSI_Tsrf_max_N              =   0.0000000000000E+00
(PID.TID 0000.0001) %MON thSI_Tic1_ave_G              =   0.0000000000000E+00
(PID.TID 0000.0001) %MON thSI_Tic1_ave_S              =   0.0000000000000E+00
(PID.TID 0000.0001) %MON thSI_Tic1_ave_N              =   0.0000000000000E+00
(PID.TID 0000.0001) %MON thSI_Tic1_min_S              =   0.0000000000000E+00
(PID.TID 0000.0001) %MON thSI_Tic1_min_N              =   0.0000000000000E+00
(PID.TID 0000.0001) %MON thSI_Tic1_max_S              =   0.0000000000000E+00
(PID.TID 0000.0001) %MON thSI_Tic1_max_N              =   0.0000000000000E+00
(PID.TID 0000.0001) %MON thSI_Tic2_ave_G              =   0.0000000000000E+00
(PID.TID 0000.0001) %MON thSI_Tic2_ave_S              =   0.0000000000000E+00
(PID.TID 0000.0001) %MON thSI_Tic2_ave_N              =   0.0000000000000E+00
(PID.TID 0000.0001) %MON thSI_Tic2_min_S              =   0.0000000000000E+00
(PID.TID 0000.0001) %MON thSI_Tic2_min_N              =   0.0000000000000E+00
(PID.TID 0000.0001) %MON thSI_Tic2_max_S              =   0.0000000000000E+00
(PID.TID 0000.0001) %MON thSI_Tic2_max_N              =   0.0000000000000E+00
(PID.TID 0000.0001) // =======================================================
(PID.TID 0000.0001) // End MONITOR Therm.SeaIce statistics
(PID.TID 0000.0001) // =======================================================
 cg2d: Sum(rhs),rhsMax =   2.61479726759717E-11  9.58127141787032E+03
(PID.TID 0000.0001)                    cg2d_init_res =    3.46512972524963E+04
(PID.TID 0000.0001)                       cg2d_iters =    17
(PID.TID 0000.0001)                         cg2d_res =    1.39562264115310E-11
(PID.TID 0000.0001) // =======================================================
(PID.TID 0000.0001) // Begin MONITOR dynamic field statistics
(PID.TID 0000.0001) // =======================================================
(PID.TID 0000.0001) %MON time_tsnumber                =                     2
(PID.TID 0000.0001) %MON time_secondsf                =   9.0000000000000E+02
(PID.TID 0000.0001) %MON dynstat_eta_max              =   1.0853837205655E+03
(PID.TID 0000.0001) %MON dynstat_eta_min              =  -1.0760014959369E+03
(PID.TID 0000.0001) %MON dynstat_eta_mean             =   1.0919694741784E-15
(PID.TID 0000.0001) %MON dynstat_eta_sd               =   1.1831474778460E+02
(PID.TID 0000.0001) %MON dynstat_eta_del2             =   2.9870991246472E+01
(PID.TID 0000.0001) %MON dynstat_uvel_max             =   5.5536211907643E+00
(PID.TID 0000.0001) %MON dynstat_uvel_min             =  -4.8926411721435E+00
(PID.TID 0000.0001) %MON dynstat_uvel_mean            =  -1.7330174369675E-03
(PID.TID 0000.0001) %MON dynstat_uvel_sd              =   4.1489620466505E-01
(PID.TID 0000.0001) %MON dynstat_uvel_del2            =   4.0973895233727E-02
(PID.TID 0000.0001) %MON dynstat_vvel_max             =   5.9063974307231E+00
(PID.TID 0000.0001) %MON dynstat_vvel_min             =  -6.6425490613952E+00
(PID.TID 0000.0001) %MON dynstat_vvel_mean            =   2.2431559998338E-03
(PID.TID 0000.0001) %MON dynstat_vvel_sd              =   3.9223498918768E-01
(PID.TID 0000.0001) %MON dynstat_vvel_del2            =   4.1440427054519E-02
(PID.TID 0000.0001) %MON dynstat_wvel_max             =   6.4751425440134E-02
(PID.TID 0000.0001) %MON dynstat_wvel_min             =  -5.1947526909760E-01
(PID.TID 0000.0001) %MON dynstat_wvel_mean            =  -2.0758373682716E-03
(PID.TID 0000.0001) %MON dynstat_wvel_sd              =   1.6609250029926E-02
(PID.TID 0000.0001) %MON dynstat_wvel_del2            =   1.6500645097932E-03
(PID.TID 0000.0001) %MON dynstat_theta_max            =   4.3746525739514E+02
(PID.TID 0000.0001) %MON dynstat_theta_min            =   2.8908988093864E+02
(PID.TID 0000.0001) %MON dynstat_theta_mean           =   3.3171704069541E+02
(PID.TID 0000.0001) %MON dynstat_theta_sd             =   4.7416582814060E+01
(PID.TID 0000.0001) %MON dynstat_theta_del2           =   3.7580432588706E-03
(PID.TID 0000.0001) %MON dynstat_salt_max             =   9.1989085658658E-01
(PID.TID 0000.0001) %MON dynstat_salt_min             =  -2.9761879225298E-03
(PID.TID 0000.0001) %MON dynstat_salt_mean            =   8.0610877071412E-03
(PID.TID 0000.0001) %MON dynstat_salt_sd              =   3.5137495038170E-02
(PID.TID 0000.0001) %MON dynstat_salt_del2            =   1.4146111317528E-03
(PID.TID 0000.0001) %MON advcfl_uvel_max              =   7.9721820652341E-03
(PID.TID 0000.0001) %MON advcfl_vvel_max              =   9.4480233071452E-03
(PID.TID 0000.0001) %MON advcfl_wvel_max              =   8.5005044034152E-03
(PID.TID 0000.0001) %MON advcfl_W_hf_max              =   2.1179804564864E-02
(PID.TID 0000.0001) %MON pe_b_mean                    =  -2.8685542012209E-01
(PID.TID 0000.0001) %MON ke_max                       =   1.6261925222565E+01
(PID.TID 0000.0001) %MON ke_mean                      =   1.6203684469815E-01
(PID.TID 0000.0001) %MON ke_vol                       =   4.9523908919847E+19
(PID.TID 0000.0001) %MON vort_r_min                   =  -1.6352533598108E-05
(PID.TID 0000.0001) %MON vort_r_max                   =   1.1014442477771E-05
(PID.TID 0000.0001) %MON vort_a_mean                  =   6.7059142262093E-08
(PID.TID 0000.0001) %MON vort_a_sd                    =   8.3708269724057E-05
(PID.TID 0000.0001) %MON vort_p_mean                  =   6.8751141547716E-08
(PID.TID 0000.0001) %MON vort_p_sd                    =   9.1387045934525E-05
(PID.TID 0000.0001) %MON surfExpan_theta_mean         =   1.9852034152384E-01
(PID.TID 0000.0001) %MON surfExpan_salt_mean          =   3.2118603948871E-06
(PID.TID 0000.0001) %MON surfExpan_Heat_mean          =  -1.6220173518290E+01
(PID.TID 0000.0001) %MON En_Budget_T2PE_mean          =   3.0984158248170E+01
(PID.TID 0000.0001) // =======================================================
(PID.TID 0000.0001) // End MONITOR dynamic field statistics
(PID.TID 0000.0001) // =======================================================
(PID.TID 0000.0001) // =======================================================
(PID.TID 0000.0001) // Begin MONITOR Land statistics
(PID.TID 0000.0001) // =======================================================
(PID.TID 0000.0001) %MON land_time_sec                =   9.0000000000000E+02
(PID.TID 0000.0001) %MON land_SnwH_ave_G              =   1.5324757180288E-01
(PID.TID 0000.0001) %MON land_SnwH_ave_S              =   5.5906150893174E-01
(PID.TID 0000.0001) %MON land_SnwH_ave_T              =   0.0000000000000E+00
(PID.TID 0000.0001) %MON land_SnwH_ave_N              =   1.2393822477755E-01
(PID.TID 0000.0001) %MON land_SnwH_max_S              =   9.9999903262772E-01
(PID.TID 0000.0001) %MON land_SnwH_max_T              =   0.0000000000000E+00
(PID.TID 0000.0001) %MON land_SnwH_max_N              =   9.9999987508519E-01
(PID.TID 0000.0001) %MON land_TotEnerg_G              =  -6.2564815981555E+21
(PID.TID 0000.0001) %MON land_TotEnerg_S              =  -4.9923928092335E+21
(PID.TID 0000.0001) %MON land_TotEnerg_T              =   7.3445863825786E+21
(PID.TID 0000.0001) %MON land_TotEnerg_N              =  -8.6086751715005E+21
(PID.TID 0000.0001) %MON land_Tsrf_ave_G              =  -5.0729810493905E+00
(PID.TID 0000.0001) %MON land_Tsrf_ave_S              =  -5.5210817235628E+00
(PID.TID 0000.0001) %MON land_Tsrf_ave_T              =   1.7948308757744E+01
(PID.TID 0000.0001) %MON land_Tsrf_ave_N              =  -2.0300560209664E+01
(PID.TID 0000.0001) %MON land_Tsrf_min_S              =  -3.4815105324779E+01
(PID.TID 0000.0001) %MON land_Tsrf_min_T              =  -7.5297669231034E+00
(PID.TID 0000.0001) %MON land_Tsrf_min_N              =  -5.1963151921060E+01
(PID.TID 0000.0001) %MON land_Tsrf_max_S              =   3.0526181518945E+01
(PID.TID 0000.0001) %MON land_Tsrf_max_T              =   3.4123624732855E+01
(PID.TID 0000.0001) %MON land_Tsrf_max_N              =   1.4714640077056E+01
(PID.TID 0000.0001) %MON land_Tgr1_ave_G              =  -3.5654987529590E+00
(PID.TID 0000.0001) %MON land_Tgr1_ave_S              =  -4.1884721128682E+00
(PID.TID 0000.0001) %MON land_Tgr1_ave_T              =   1.7948308757744E+01
(PID.TID 0000.0001) %MON land_Tgr1_ave_N              =  -1.7729697936234E+01
(PID.TID 0000.0001) %MON land_Tgr1_min_S              =  -3.9010948749135E+01
(PID.TID 0000.0001) %MON land_Tgr1_min_T              =  -7.5297669231034E+00
(PID.TID 0000.0001) %MON land_Tgr1_min_N              =  -5.4992979126799E+01
(PID.TID 0000.0001) %MON land_Tgr1_max_S              =   3.0526181518945E+01
(PID.TID 0000.0001) %MON land_Tgr1_max_T              =   3.4123624732855E+01
(PID.TID 0000.0001) %MON land_Tgr1_max_N              =   1.4714640077056E+01
(PID.TID 0000.0001) %MON land_Tgr2_ave_G              =   4.2073557436823E+00
(PID.TID 0000.0001) %MON land_Tgr2_ave_S              =  -1.8731411682876E+01
(PID.TID 0000.0001) %MON land_Tgr2_ave_T              =   2.2012996564059E+01
(PID.TID 0000.0001) %MON land_Tgr2_ave_N              =  -2.4153115616481E-01
(PID.TID 0000.0001) %MON land_Tgr2_min_S              =  -6.4761427410580E+01
(PID.TID 0000.0001) %MON land_Tgr2_min_T              =  -9.7050551832179E+00
(PID.TID 0000.0001) %MON land_Tgr2_min_N              =  -4.0194102086638E+01
(PID.TID 0000.0001) %MON land_Tgr2_max_S              =   2.3360276042964E+01
(PID.TID 0000.0001) %MON land_Tgr2_max_T              =   3.1360419768050E+01
(PID.TID 0000.0001) %MON land_Tgr2_max_N              =   2.9832066072572E+01
(PID.TID 0000.0001) %MON land_grdW_ave_G              =   4.8701735000288E-01
(PID.TID 0000.0001) %MON land_grdW_ave_S              =   3.0874741400574E-01
(PID.TID 0000.0001) %MON land_grdW_ave_T              =   5.6483645251184E-01
(PID.TID 0000.0001) %MON land_grdW_ave_N              =   4.9288172298968E-01
(PID.TID 0000.0001) %MON land_grdW_min_S              =   2.5938631222264E-02
(PID.TID 0000.0001) %MON land_grdW_min_T              =   0.0000000000000E+00
(PID.TID 0000.0001) %MON land_grdW_min_N              =   0.0000000000000E+00
(PID.TID 0000.0001) // =======================================================
(PID.TID 0000.0001) // End MONITOR Land statistics
(PID.TID 0000.0001) // =======================================================
(PID.TID 0000.0001) // =======================================================
(PID.TID 0000.0001) // Begin MONITOR Therm.SeaIce statistics
(PID.TID 0000.0001) // =======================================================
(PID.TID 0000.0001) %MON thSI_time_sec                =   9.0000000000000E+02
(PID.TID 0000.0001) %MON thSI_Ice_Area_G              =   1.4228206176723E+10
(PID.TID 0000.0001) %MON thSI_Ice_Area_S              =   0.0000000000000E+00
(PID.TID 0000.0001) %MON thSI_Ice_Area_N              =   1.4228206176723E+10
(PID.TID 0000.0001) %MON thSI_IceH_ave_G              =   1.0000000000000E-01
(PID.TID 0000.0001) %MON thSI_IceH_ave_S              =   0.0000000000000E+00
(PID.TID 0000.0001) %MON thSI_IceH_ave_N              =   1.0000000000000E-01
(PID.TID 0000.0001) %MON thSI_IceH_max_S              =   0.0000000000000E+00
(PID.TID 0000.0001) %MON thSI_IceH_max_N              =   1.0000000000000E-01
(PID.TID 0000.0001) %MON thSI_SnwH_ave_G              =   0.0000000000000E+00
(PID.TID 0000.0001) %MON thSI_SnwH_ave_S              =   0.0000000000000E+00
(PID.TID 0000.0001) %MON thSI_SnwH_ave_N              =   0.0000000000000E+00
(PID.TID 0000.0001) %MON thSI_SnwH_max_S              =   0.0000000000000E+00
(PID.TID 0000.0001) %MON thSI_SnwH_max_N              =   0.0000000000000E+00
(PID.TID 0000.0001) %MON thSI_TotEnerg_G              =  -4.2531549312148E+17
(PID.TID 0000.0001) %MON thSI_Tsrf_ave_G              =  -1.6648040993130E+00
(PID.TID 0000.0001) %MON thSI_Tsrf_ave_S              =   0.0000000000000E+00
(PID.TID 0000.0001) %MON thSI_Tsrf_ave_N              =  -1.6648040993130E+00
(PID.TID 0000.0001) %MON thSI_Tsrf_min_S              =   0.0000000000000E+00
(PID.TID 0000.0001) %MON thSI_Tsrf_min_N              =  -1.7019828369658E+00
(PID.TID 0000.0001) %MON thSI_Tsrf_max_S              =   0.0000000000000E+00
(PID.TID 0000.0001) %MON thSI_Tsrf_max_N              =  -1.6162307215484E+00
(PID.TID 0000.0001) %MON thSI_Tic1_ave_G              =  -1.6648040993130E+00
(PID.TID 0000.0001) %MON thSI_Tic1_ave_S              =   0.0000000000000E+00
(PID.TID 0000.0001) %MON thSI_Tic1_ave_N              =  -1.6648040993130E+00
(PID.TID 0000.0001) %MON thSI_Tic1_min_S              =   0.0000000000000E+00
(PID.TID 0000.0001) %MON thSI_Tic1_min_N              =  -1.7019828369658E+00
(PID.TID 0000.0001) %MON thSI_Tic1_max_S              =   0.0000000000000E+00
(PID.TID 0000.0001) %MON thSI_Tic1_max_N              =  -1.6162307215484E+00
(PID.TID 0000.0001) %MON thSI_Tic2_ave_G              =  -1.6648040993130E+00
(PID.TID 0000.0001) %MON thSI_Tic2_ave_S              =   0.0000000000000E+00
(PID.TID 0000.0001) %MON thSI_Tic2_ave_N              =  -1.6648040993130E+00
(PID.TID 0000.0001) %MON thSI_Tic2_min_S              =   0.0000000000000E+00
(PID.TID 0000.0001) %MON thSI_Tic2_min_N              =  -1.7019828369658E+00
(PID.TID 0000.0001) %MON thSI_Tic2_max_S              =   0.0000000000000E+00
(PID.TID 0000.0001) %MON thSI_Tic2_max_N              =  -1.6162307215484E+00
(PID.TID 0000.0001) // =======================================================
(PID.TID 0000.0001) // End MONITOR Therm.SeaIce statistics
(PID.TID 0000.0001) // =======================================================
 cg2d: Sum(rhs),rhsMax =  -3.18323145620525E-11  1.30305617090506E+04
(PID.TID 0000.0001)                    cg2d_init_res =    3.21677555501445E+04
(PID.TID 0000.0001)                       cg2d_iters =    17
(PID.TID 0000.0001)                         cg2d_res =    1.32048214290725E-11
(PID.TID 0000.0001) // =======================================================
(PID.TID 0000.0001) // Begin MONITOR dynamic field statistics
(PID.TID 0000.0001) // =======================================================
(PID.TID 0000.0001) %MON time_tsnumber                =                     3
(PID.TID 0000.0001) %MON time_secondsf                =   1.3500000000000E+03
(PID.TID 0000.0001) %MON dynstat_eta_max              =   1.7332674587251E+03
(PID.TID 0000.0001) %MON dynstat_eta_min              =  -1.7700856383590E+03
(PID.TID 0000.0001) %MON dynstat_eta_mean             =  -2.4475177869516E-16
(PID.TID 0000.0001) %MON dynstat_eta_sd               =   1.8801857114289E+02
(PID.TID 0000.0001) %MON dynstat_eta_del2             =   4.0437524761084E+01
(PID.TID 0000.0001) %MON dynstat_uvel_max             =   6.2743164578449E+00
(PID.TID 0000.0001) %MON dynstat_uvel_min             =  -6.2706966459370E+00
(PID.TID 0000.0001) %MON dynstat_uvel_mean            =  -2.6021109965875E-03
(PID.TID 0000.0001) %MON dynstat_uvel_sd              =   5.3868904952689E-01
(PID.TID 0000.0001) %MON dynstat_uvel_del2            =   3.5246613107730E-02
(PID.TID 0000.0001) %MON dynstat_vvel_max             =   7.0874669007818E+00
(PID.TID 0000.0001) %MON dynstat_vvel_min             =  -8.1796107197721E+00
(PID.TID 0000.0001) %MON dynstat_vvel_mean            =   3.4288462667133E-03
(PID.TID 0000.0001) %MON dynstat_vvel_sd              =   5.0058235455242E-01
(PID.TID 0000.0001) %MON dynstat_vvel_del2            =   3.5409242257356E-02
(PID.TID 0000.0001) %MON dynstat_wvel_max             =   5.9021815045418E-02
(PID.TID 0000.0001) %MON dynstat_wvel_min             =  -6.0038425181913E-01
(PID.TID 0000.0001) %MON dynstat_wvel_mean            =  -2.4816363150869E-03
(PID.TID 0000.0001) %MON dynstat_wvel_sd              =   1.9350880733017E-02
(PID.TID 0000.0001) %MON dynstat_wvel_del2            =   1.7135668378310E-03
(PID.TID 0000.0001) %MON dynstat_theta_max            =   4.3749846784008E+02
(PID.TID 0000.0001) %MON dynstat_theta_min            =   2.8883949440021E+02
(PID.TID 0000.0001) %MON dynstat_theta_mean           =   3.3171695442128E+02
(PID.TID 0000.0001) %MON dynstat_theta_sd             =   4.7416660127159E+01
(PID.TID 0000.0001) %MON dynstat_theta_del2           =   5.3737990444707E-03
(PID.TID 0000.0001) %MON dynstat_salt_max             =   1.2942924021754E+00
(PID.TID 0000.0001) %MON dynstat_salt_min             =  -2.2984342634313E-03
(PID.TID 0000.0001) %MON dynstat_salt_mean            =   1.1973886911292E-02
(PID.TID 0000.0001) %MON dynstat_salt_sd              =   5.1977154083771E-02
(PID.TID 0000.0001) %MON dynstat_salt_del2            =   2.0700553509443E-03
(PID.TID 0000.0001) %MON advcfl_uvel_max              =   9.0067347805461E-03
(PID.TID 0000.0001) %MON advcfl_vvel_max              =   1.1634261487494E-02
(PID.TID 0000.0001) %MON advcfl_wvel_max              =   9.8244695752221E-03
(PID.TID 0000.0001) %MON advcfl_W_hf_max              =   2.4449331392285E-02
(PID.TID 0000.0001) %MON pe_b_mean                    =  -4.4124605914132E-01
(PID.TID 0000.0001) %MON ke_max                       =   2.3380454357042E+01
(PID.TID 0000.0001) %MON ke_mean                      =   2.6879984318233E-01
(PID.TID 0000.0001) %MON ke_vol                       =   4.9523908919847E+19
(PID.TID 0000.0001) %MON vort_r_min                   =  -2.0633703041873E-05
(PID.TID 0000.0001) %MON vort_r_max                   =   1.2393219208592E-05
(PID.TID 0000.0001) %MON vort_a_mean                  =   6.7059142262108E-08
(PID.TID 0000.0001) %MON vort_a_sd                    =   8.3709216212476E-05
(PID.TID 0000.0001) %MON vort_p_mean                  =   6.8751141658106E-08
(PID.TID 0000.0001) %MON vort_p_sd                    =   9.1409428313303E-05
(PID.TID 0000.0001) %MON surfExpan_theta_mean         =   2.3862270807511E-01
(PID.TID 0000.0001) %MON surfExpan_salt_mean          =   1.7485596026655E-06
(PID.TID 0000.0001) %MON surfExpan_Heat_mean          =  -1.9469632144701E+01
(PID.TID 0000.0001) %MON En_Budget_T2PE_mean          =   3.7182095884153E+01
(PID.TID 0000.0001) // =======================================================
(PID.TID 0000.0001) // End MONITOR dynamic field statistics
(PID.TID 0000.0001) // =======================================================
(PID.TID 0000.0001) // =======================================================
(PID.TID 0000.0001) // Begin MONITOR Land statistics
(PID.TID 0000.0001) // =======================================================
(PID.TID 0000.0001) %MON land_time_sec                =   1.3500000000000E+03
(PID.TID 0000.0001) %MON land_SnwH_ave_G              =   1.5324622328604E-01
(PID.TID 0000.0001) %MON land_SnwH_ave_S              =   5.5906076491936E-01
(PID.TID 0000.0001) %MON land_SnwH_ave_T              =   0.0000000000000E+00
(PID.TID 0000.0001) %MON land_SnwH_ave_N              =   1.2393577966327E-01
(PID.TID 0000.0001) %MON land_SnwH_max_S              =   9.9999852974913E-01
(PID.TID 0000.0001) %MON land_SnwH_max_T              =   0.0000000000000E+00
(PID.TID 0000.0001) %MON land_SnwH_max_N              =   9.9999980255624E-01
(PID.TID 0000.0001) %MON land_TotEnerg_G              =  -6.2665864200579E+21
(PID.TID 0000.0001) %MON land_TotEnerg_S              =  -4.9936184745706E+21
(PID.TID 0000.0001) %MON land_TotEnerg_T              =   7.3367862288428E+21
(PID.TID 0000.0001) %MON land_TotEnerg_N              =  -8.6097541743301E+21
(PID.TID 0000.0001) %MON land_Tsrf_ave_G              =  -5.4214512972882E+00
(PID.TID 0000.0001) %MON land_Tsrf_ave_S              =  -5.7076700890096E+00
(PID.TID 0000.0001) %MON land_Tsrf_ave_T              =   1.7061714869906E+01
(PID.TID 0000.0001) %MON land_Tsrf_ave_N              =  -2.0342200813060E+01
(PID.TID 0000.0001) %MON land_Tsrf_min_S              =  -3.4758813974790E+01
(PID.TID 0000.0001) %MON land_Tsrf_min_T              =  -7.2831021353506E+00
(PID.TID 0000.0001) %MON land_Tsrf_min_N              =  -5.1364629456327E+01
(PID.TID 0000.0001) %MON land_Tsrf_max_S              =   2.9347005381482E+01
(PID.TID 0000.0001) %MON land_Tsrf_max_T              =   3.2666614600307E+01
(PID.TID 0000.0001) %MON land_Tsrf_max_N              =   1.4113857323966E+01
(PID.TID 0000.0001) %MON land_Tgr1_ave_G              =  -3.9629310179976E+00
(PID.TID 0000.0001) %MON land_Tgr1_ave_S              =  -4.5441715400401E+00
(PID.TID 0000.0001) %MON land_Tgr1_ave_T              =   1.7061714869906E+01
(PID.TID 0000.0001) %MON land_Tgr1_ave_N              =  -1.7814020333887E+01
(PID.TID 0000.0001) %MON land_Tgr1_min_S              =  -3.9023408469890E+01
(PID.TID 0000.0001) %MON land_Tgr1_min_T              =  -7.2831021353506E+00
(PID.TID 0000.0001) %MON land_Tgr1_min_N              =  -5.4979357035009E+01
(PID.TID 0000.0001) %MON land_Tgr1_max_S              =   2.9347005381482E+01
(PID.TID 0000.0001) %MON land_Tgr1_max_T              =   3.2666614600307E+01
(PID.TID 0000.0001) %MON land_Tgr1_max_N              =   1.4113857323966E+01
(PID.TID 0000.0001) %MON land_Tgr2_ave_G              =   4.2072329172532E+00
(PID.TID 0000.0001) %MON land_Tgr2_ave_S              =  -1.8731176220945E+01
(PID.TID 0000.0001) %MON land_Tgr2_ave_T              =   2.2012913713626E+01
(PID.TID 0000.0001) %MON land_Tgr2_ave_N              =  -2.4179690394982E-01
(PID.TID 0000.0001) %MON land_Tgr2_min_S              =  -6.4760993184559E+01
(PID.TID 0000.0001) %MON land_Tgr2_min_T              =  -9.7050245811221E+00
(PID.TID 0000.0001) %MON land_Tgr2_min_N              =  -4.0194343044151E+01
(PID.TID 0000.0001) %MON land_Tgr2_max_S              =   2.3360375667258E+01
(PID.TID 0000.0001) %MON land_Tgr2_max_T              =   3.1360140929686E+01
(PID.TID 0000.0001) %MON land_Tgr2_max_N              =   2.9831710314010E+01
(PID.TID 0000.0001) %MON land_grdW_ave_G              =   4.8699895613215E-01
(PID.TID 0000.0001) %MON land_grdW_ave_S              =   3.0873374238021E-01
(PID.TID 0000.0001) %MON land_grdW_ave_T              =   5.6478870575005E-01
(PID.TID 0000.0001) %MON land_grdW_ave_N              =   4.9288139824878E-01
(PID.TID 0000.0001) %MON land_grdW_min_S              =   2.5954897405885E-02
(PID.TID 0000.0001) %MON land_grdW_min_T              =   0.0000000000000E+00
(PID.TID 0000.0001) %MON land_grdW_min_N              =   0.0000000000000E+00
(PID.TID 0000.0001) // =======================================================
(PID.TID 0000.0001) // End MONITOR Land statistics
(PID.TID 0000.0001) // =======================================================
(PID.TID 0000.0001) // =======================================================
(PID.TID 0000.0001) // Begin MONITOR Therm.SeaIce statistics
(PID.TID 0000.0001) // =======================================================
(PID.TID 0000.0001) %MON thSI_time_sec                =   1.3500000000000E+03
(PID.TID 0000.0001) %MON thSI_Ice_Area_G              =   2.7746569899466E+10
(PID.TID 0000.0001) %MON thSI_Ice_Area_S              =   0.0000000000000E+00
(PID.TID 0000.0001) %MON thSI_Ice_Area_N              =   2.7746569899466E+10
(PID.TID 0000.0001) %MON thSI_IceH_ave_G              =   1.0238171908867E-01
(PID.TID 0000.0001) %MON thSI_IceH_ave_S              =   0.0000000000000E+00
(PID.TID 0000.0001) %MON thSI_IceH_ave_N              =   1.0238171908867E-01
(PID.TID 0000.0001) %MON thSI_IceH_max_S              =   0.0000000000000E+00
(PID.TID 0000.0001) %MON thSI_IceH_max_N              =   1.0298623095705E-01
(PID.TID 0000.0001) %MON thSI_SnwH_ave_G              =   0.0000000000000E+00
(PID.TID 0000.0001) %MON thSI_SnwH_ave_S              =   0.0000000000000E+00
(PID.TID 0000.0001) %MON thSI_SnwH_ave_N              =   0.0000000000000E+00
(PID.TID 0000.0001) %MON thSI_SnwH_max_S              =   0.0000000000000E+00
(PID.TID 0000.0001) %MON thSI_SnwH_max_N              =   0.0000000000000E+00
(PID.TID 0000.0001) %MON thSI_TotEnerg_G              =  -8.5184830659526E+17
(PID.TID 0000.0001) %MON thSI_Tsrf_ave_G              =  -4.2578833541690E+00
(PID.TID 0000.0001) %MON thSI_Tsrf_ave_S              =   0.0000000000000E+00
(PID.TID 0000.0001) %MON thSI_Tsrf_ave_N              =  -4.2578833541690E+00
(PID.TID 0000.0001) %MON thSI_Tsrf_min_S              =   0.0000000000000E+00
(PID.TID 0000.0001) %MON thSI_Tsrf_min_N              =  -4.2984914603075E+00
(PID.TID 0000.0001) %MON thSI_Tsrf_max_S              =   0.0000000000000E+00
(PID.TID 0000.0001) %MON thSI_Tsrf_max_N              =  -4.2044607118794E+00
(PID.TID 0000.0001) %MON thSI_Tic1_ave_G              =  -1.8992943955399E+00
(PID.TID 0000.0001) %MON thSI_Tic1_ave_S              =   0.0000000000000E+00
(PID.TID 0000.0001) %MON thSI_Tic1_ave_N              =  -1.8992943955399E+00
(PID.TID 0000.0001) %MON thSI_Tic1_min_S              =   0.0000000000000E+00
(PID.TID 0000.0001) %MON thSI_Tic1_min_N              =  -1.9435809676229E+00
(PID.TID 0000.0001) %MON thSI_Tic1_max_S              =   0.0000000000000E+00
(PID.TID 0000.0001) %MON thSI_Tic1_max_N              =  -1.8413732016456E+00
(PID.TID 0000.0001) %MON thSI_Tic2_ave_G              =  -1.6934459691886E+00
(PID.TID 0000.0001) %MON thSI_Tic2_ave_S              =   0.0000000000000E+00
(PID.TID 0000.0001) %MON thSI_Tic2_ave_N              =  -1.6934459691886E+00
(PID.TID 0000.0001) %MON thSI_Tic2_min_S              =   0.0000000000000E+00
(PID.TID 0000.0001) %MON thSI_Tic2_min_N              =  -1.7314921152591E+00
(PID.TID 0000.0001) %MON thSI_Tic2_max_S              =   0.0000000000000E+00
(PID.TID 0000.0001) %MON thSI_Tic2_max_N              =  -1.6437300738105E+00
(PID.TID 0000.0001) // =======================================================
(PID.TID 0000.0001) // End MONITOR Therm.SeaIce statistics
(PID.TID 0000.0001) // =======================================================
 cg2d: Sum(rhs),rhsMax =   9.31095200940035E-11  1.49235565902529E+04
(PID.TID 0000.0001)                    cg2d_init_res =    2.74418551141844E+04
(PID.TID 0000.0001)                       cg2d_iters =    16
(PID.TID 0000.0001)                         cg2d_res =    1.12195281366451E-10
(PID.TID 0000.0001) // =======================================================
(PID.TID 0000.0001) // Begin MONITOR dynamic field statistics
(PID.TID 0000.0001) // =======================================================
(PID.TID 0000.0001) %MON time_tsnumber                =                     4
(PID.TID 0000.0001) %MON time_secondsf                =   1.8000000000000E+03
(PID.TID 0000.0001) %MON dynstat_eta_max              =   2.5069385920826E+03
(PID.TID 0000.0001) %MON dynstat_eta_min              =  -2.3444612437512E+03
(PID.TID 0000.0001) %MON dynstat_eta_mean             =   7.7818514251794E-16
(PID.TID 0000.0001) %MON dynstat_eta_sd               =   2.4936797295716E+02
(PID.TID 0000.0001) %MON dynstat_eta_del2             =   4.5050556895618E+01
(PID.TID 0000.0001) %MON dynstat_uvel_max             =   7.1223705675369E+00
(PID.TID 0000.0001) %MON dynstat_uvel_min             =  -7.0658940907227E+00
(PID.TID 0000.0001) %MON dynstat_uvel_mean            =  -3.4405576245238E-03
(PID.TID 0000.0001) %MON dynstat_uvel_sd              =   6.2636749089231E-01
(PID.TID 0000.0001) %MON dynstat_uvel_del2            =   2.7358477314960E-02
(PID.TID 0000.0001) %MON dynstat_vvel_max             =   7.5134771699574E+00
(PID.TID 0000.0001) %MON dynstat_vvel_min             =  -8.7187715920209E+00
(PID.TID 0000.0001) %MON dynstat_vvel_mean            =   4.6662446650598E-03
(PID.TID 0000.0001) %MON dynstat_vvel_sd              =   5.7918293452571E-01
(PID.TID 0000.0001) %MON dynstat_vvel_del2            =   2.6769515591405E-02
(PID.TID 0000.0001) %MON dynstat_wvel_max             =   5.7915391450081E-02
(PID.TID 0000.0001) %MON dynstat_wvel_min             =  -6.0297438750693E-01
(PID.TID 0000.0001) %MON dynstat_wvel_mean            =  -2.5888558371647E-03
(PID.TID 0000.0001) %MON dynstat_wvel_sd              =   1.9703342845079E-02
(PID.TID 0000.0001) %MON dynstat_wvel_del2            =   1.5712348184179E-03
(PID.TID 0000.0001) %MON dynstat_theta_max            =   4.3752944209414E+02
(PID.TID 0000.0001) %MON dynstat_theta_min            =   2.8859308781463E+02
(PID.TID 0000.0001) %MON dynstat_theta_mean           =   3.3171664728432E+02
(PID.TID 0000.0001) %MON dynstat_theta_sd             =   4.7417165336388E+01
(PID.TID 0000.0001) %MON dynstat_theta_del2           =   6.6360445135895E-03
(PID.TID 0000.0001) %MON dynstat_salt_max             =   1.6281643703977E+00
(PID.TID 0000.0001) %MON dynstat_salt_min             =  -1.6256389197818E-03
(PID.TID 0000.0001) %MON dynstat_salt_mean            =   1.5838279346579E-02
(PID.TID 0000.0001) %MON dynstat_salt_sd              =   6.8449638553071E-02
(PID.TID 0000.0001) %MON dynstat_salt_del2            =   2.6743598855878E-03
(PID.TID 0000.0001) %MON advcfl_uvel_max              =   1.0097869775811E-02
(PID.TID 0000.0001) %MON advcfl_vvel_max              =   1.2401136438695E-02
(PID.TID 0000.0001) %MON advcfl_wvel_max              =   9.8668536137497E-03
(PID.TID 0000.0001) %MON advcfl_W_hf_max              =   2.4510748323706E-02
(PID.TID 0000.0001) %MON pe_b_mean                    =  -5.7499258861046E-01
(PID.TID 0000.0001) %MON ke_max                       =   2.9081579949962E+01
(PID.TID 0000.0001) %MON ke_mean                      =   3.6176658451525E-01
(PID.TID 0000.0001) %MON ke_vol                       =   4.9523908919847E+19
(PID.TID 0000.0001) %MON vort_r_min                   =  -2.3035488397483E-05
(PID.TID 0000.0001) %MON vort_r_max                   =   1.2760234648406E-05
(PID.TID 0000.0001) %MON vort_a_mean                  =   6.7059142262083E-08
(PID.TID 0000.0001) %MON vort_a_sd                    =   8.3710509811078E-05
(PID.TID 0000.0001) %MON vort_p_mean                  =   6.8751141903038E-08
(PID.TID 0000.0001) %MON vort_p_sd                    =   9.1436906914756E-05
(PID.TID 0000.0001) %MON surfExpan_theta_mean         =   2.4998934676122E-01
(PID.TID 0000.0001) %MON surfExpan_salt_mean          =  -3.8376061653337E-06
(PID.TID 0000.0001) %MON surfExpan_Heat_mean          =  -2.0423649496234E+01
(PID.TID 0000.0001) %MON En_Budget_T2PE_mean          =   3.8943987398961E+01
(PID.TID 0000.0001) // =======================================================
(PID.TID 0000.0001) // End MONITOR dynamic field statistics
(PID.TID 0000.0001) // =======================================================
(PID.TID 0000.0001) // =======================================================
(PID.TID 0000.0001) // Begin MONITOR Land statistics
(PID.TID 0000.0001) // =======================================================
(PID.TID 0000.0001) %MON land_time_sec                =   1.8000000000000E+03
(PID.TID 0000.0001) %MON land_SnwH_ave_G              =   1.5324495077510E-01
(PID.TID 0000.0001) %MON land_SnwH_ave_S              =   5.5905997275344E-01
(PID.TID 0000.0001) %MON land_SnwH_ave_T              =   0.0000000000000E+00
(PID.TID 0000.0001) %MON land_SnwH_ave_N              =   1.2393350158593E-01
(PID.TID 0000.0001) %MON land_SnwH_max_S              =   9.9999802230261E-01
(PID.TID 0000.0001) %MON land_SnwH_max_T              =   0.0000000000000E+00
(PID.TID 0000.0001) %MON land_SnwH_max_N              =   9.9999972369891E-01
(PID.TID 0000.0001) %MON land_TotEnerg_G              =  -6.2755336058635E+21
(PID.TID 0000.0001) %MON land_TotEnerg_S              =  -4.9946903346815E+21
(PID.TID 0000.0001) %MON land_TotEnerg_T              =   7.3299482578019E+21
(PID.TID 0000.0001) %MON land_TotEnerg_N              =  -8.6107915289839E+21
(PID.TID 0000.0001) %MON land_Tsrf_ave_G              =  -5.7258883513092E+00
(PID.TID 0000.0001) %MON land_Tsrf_ave_S              =  -5.8196499017646E+00
(PID.TID 0000.0001) %MON land_Tsrf_ave_T              =   1.6282164059252E+01
(PID.TID 0000.0001) %MON land_Tsrf_ave_N              =  -2.0391802829665E+01
(PID.TID 0000.0001) %MON land_Tsrf_min_S              =  -3.4693266776224E+01
(PID.TID 0000.0001) %MON land_Tsrf_min_T              =  -7.0446213842636E+00
(PID.TID 0000.0001) %MON land_Tsrf_min_N              =  -5.0887065308297E+01
(PID.TID 0000.0001) %MON land_Tsrf_max_S              =   2.8299047508212E+01
(PID.TID 0000.0001) %MON land_Tsrf_max_T              =   3.1357689496295E+01
(PID.TID 0000.0001) %MON land_Tsrf_max_N              =   1.3560120010640E+01
(PID.TID 0000.0001) %MON land_Tgr1_ave_G              =  -4.3146646106947E+00
(PID.TID 0000.0001) %MON land_Tgr1_ave_S              =  -4.8569702716184E+00
(PID.TID 0000.0001) %MON land_Tgr1_ave_T              =   1.6282164059252E+01
(PID.TID 0000.0001) %MON land_Tgr1_ave_N              =  -1.7892700402034E+01
(PID.TID 0000.0001) %MON land_Tgr1_min_S              =  -3.9035767758393E+01
(PID.TID 0000.0001) %MON land_Tgr1_min_T              =  -7.0446213842636E+00
(PID.TID 0000.0001) %MON land_Tgr1_min_N              =  -5.4965292430961E+01
(PID.TID 0000.0001) %MON land_Tgr1_max_S              =   2.8299047508212E+01
(PID.TID 0000.0001) %MON land_Tgr1_max_T              =   3.1357689496295E+01
(PID.TID 0000.0001) %MON land_Tgr1_max_N              =   1.3560120010640E+01
(PID.TID 0000.0001) %MON land_Tgr2_ave_G              =   4.2071042627750E+00
(PID.TID 0000.0001) %MON land_Tgr2_ave_S              =  -1.8730945736077E+01
(PID.TID 0000.0001) %MON land_Tgr2_ave_T              =   2.2012818085713E+01
(PID.TID 0000.0001) %MON land_Tgr2_ave_N              =  -2.4206411521179E-01
(PID.TID 0000.0001) %MON land_Tgr2_min_S              =  -6.4760559189761E+01
(PID.TID 0000.0001) %MON land_Tgr2_min_T              =  -9.7049909660397E+00
(PID.TID 0000.0001) %MON land_Tgr2_min_N              =  -4.0194583728202E+01
(PID.TID 0000.0001) %MON land_Tgr2_max_S              =   2.3360456186479E+01
(PID.TID 0000.0001) %MON land_Tgr2_max_T              =   3.1359846826595E+01
(PID.TID 0000.0001) %MON land_Tgr2_max_N              =   2.9831342279016E+01
(PID.TID 0000.0001) %MON land_grdW_ave_G              =   4.8698180261537E-01
(PID.TID 0000.0001) %MON land_grdW_ave_S              =   3.0872082528687E-01
(PID.TID 0000.0001) %MON land_grdW_ave_T              =   5.6474430670679E-01
(PID.TID 0000.0001) %MON land_grdW_ave_N              =   4.9288106422336E-01
(PID.TID 0000.0001) %MON land_grdW_min_S              =   2.5981425099992E-02
(PID.TID 0000.0001) %MON land_grdW_min_T              =   0.0000000000000E+00
(PID.TID 0000.0001) %MON land_grdW_min_N              =   0.0000000000000E+00
(PID.TID 0000.0001) // =======================================================
(PID.TID 0000.0001) // End MONITOR Land statistics
(PID.TID 0000.0001) // =======================================================
(PID.TID 0000.0001) // =======================================================
(PID.TID 0000.0001) // Begin MONITOR Therm.SeaIce statistics
(PID.TID 0000.0001) // =======================================================
(PID.TID 0000.0001) %MON thSI_time_sec                =   1.8000000000000E+03
(PID.TID 0000.0001) %MON thSI_Ice_Area_G              =   4.0610398317479E+10
(PID.TID 0000.0001) %MON thSI_Ice_Area_S              =   0.0000000000000E+00
(PID.TID 0000.0001) %MON thSI_Ice_Area_N              =   4.0610398317479E+10
(PID.TID 0000.0001) %MON thSI_IceH_ave_G              =   1.0476420831831E-01
(PID.TID 0000.0001) %MON thSI_IceH_ave_S              =   0.0000000000000E+00
(PID.TID 0000.0001) %MON thSI_IceH_ave_N              =   1.0476420831831E-01
(PID.TID 0000.0001) %MON thSI_IceH_max_S              =   0.0000000000000E+00
(PID.TID 0000.0001) %MON thSI_IceH_max_N              =   1.0597824224851E-01
(PID.TID 0000.0001) %MON thSI_SnwH_ave_G              =   0.0000000000000E+00
(PID.TID 0000.0001) %MON thSI_SnwH_ave_S              =   0.0000000000000E+00
(PID.TID 0000.0001) %MON thSI_SnwH_ave_N              =   0.0000000000000E+00
(PID.TID 0000.0001) %MON thSI_SnwH_max_S              =   0.0000000000000E+00
(PID.TID 0000.0001) %MON thSI_SnwH_max_N              =   0.0000000000000E+00
(PID.TID 0000.0001) %MON thSI_TotEnerg_G              =  -1.2794997675528E+18
(PID.TID 0000.0001) %MON thSI_Tsrf_ave_G              =  -4.5670141089923E+00
(PID.TID 0000.0001) %MON thSI_Tsrf_ave_S              =   0.0000000000000E+00
(PID.TID 0000.0001) %MON thSI_Tsrf_ave_N              =  -4.5670141089923E+00
(PID.TID 0000.0001) %MON thSI_Tsrf_min_S              =   0.0000000000000E+00
(PID.TID 0000.0001) %MON thSI_Tsrf_min_N              =  -4.6125308657246E+00
(PID.TID 0000.0001) %MON thSI_Tsrf_max_S              =   0.0000000000000E+00
(PID.TID 0000.0001) %MON thSI_Tsrf_max_N              =  -4.4992769454002E+00
(PID.TID 0000.0001) %MON thSI_Tic1_ave_G              =  -2.1906223748285E+00
(PID.TID 0000.0001) %MON thSI_Tic1_ave_S              =   0.0000000000000E+00
(PID.TID 0000.0001) %MON thSI_Tic1_ave_N              =  -2.1906223748285E+00
(PID.TID 0000.0001) %MON thSI_Tic1_min_S              =   0.0000000000000E+00
(PID.TID 0000.0001) %MON thSI_Tic1_min_N              =  -2.2374052925838E+00
(PID.TID 0000.0001) %MON thSI_Tic1_max_S              =   0.0000000000000E+00
(PID.TID 0000.0001) %MON thSI_Tic1_max_N              =  -2.1212199002998E+00
(PID.TID 0000.0001) %MON thSI_Tic2_ave_G              =  -1.7447422163690E+00
(PID.TID 0000.0001) %MON thSI_Tic2_ave_S              =   0.0000000000000E+00
(PID.TID 0000.0001) %MON thSI_Tic2_ave_N              =  -1.7447422163690E+00
(PID.TID 0000.0001) %MON thSI_Tic2_min_S              =   0.0000000000000E+00
(PID.TID 0000.0001) %MON thSI_Tic2_min_N              =  -1.7839270345737E+00
(PID.TID 0000.0001) %MON thSI_Tic2_max_S              =   0.0000000000000E+00
(PID.TID 0000.0001) %MON thSI_Tic2_max_N              =  -1.6931827702811E+00
(PID.TID 0000.0001) // =======================================================
(PID.TID 0000.0001) // End MONITOR Therm.SeaIce statistics
(PID.TID 0000.0001) // =======================================================
 cg2d: Sum(rhs),rhsMax =  -6.00266503170133E-11  1.79860046182160E+04
(PID.TID 0000.0001)                    cg2d_init_res =    2.42216367083298E+04
(PID.TID 0000.0001)                       cg2d_iters =    16
(PID.TID 0000.0001)                         cg2d_res =    9.14120365291196E-11
(PID.TID 0000.0001) // =======================================================
(PID.TID 0000.0001) // Begin MONITOR dynamic field statistics
(PID.TID 0000.0001) // =======================================================
(PID.TID 0000.0001) %MON time_tsnumber                =                     5
(PID.TID 0000.0001) %MON time_secondsf                =   2.2500000000000E+03
(PID.TID 0000.0001) %MON dynstat_eta_max              =   3.1711841483295E+03
(PID.TID 0000.0001) %MON dynstat_eta_min              =  -2.7174314698894E+03
(PID.TID 0000.0001) %MON dynstat_eta_mean             =   2.2215930681561E-15
(PID.TID 0000.0001) %MON dynstat_eta_sd               =   3.0044756559199E+02
(PID.TID 0000.0001) %MON dynstat_eta_del2             =   4.5479862907941E+01
(PID.TID 0000.0001) %MON dynstat_uvel_max             =   7.7270259419287E+00
(PID.TID 0000.0001) %MON dynstat_uvel_min             =  -7.5715237161599E+00
(PID.TID 0000.0001) %MON dynstat_uvel_mean            =  -4.2296722260645E-03
(PID.TID 0000.0001) %MON dynstat_uvel_sd              =   6.8858700108800E-01
(PID.TID 0000.0001) %MON dynstat_uvel_del2            =   2.3183095479417E-02
(PID.TID 0000.0001) %MON dynstat_vvel_max             =   7.5410580870815E+00
(PID.TID 0000.0001) %MON dynstat_vvel_min             =  -8.6014624296788E+00
(PID.TID 0000.0001) %MON dynstat_vvel_mean            =   5.9826499972758E-03
(PID.TID 0000.0001) %MON dynstat_vvel_sd              =   6.4308649399297E-01
(PID.TID 0000.0001) %MON dynstat_vvel_del2            =   2.1392771354383E-02
(PID.TID 0000.0001) %MON dynstat_wvel_max             =   5.0732425555711E-02
(PID.TID 0000.0001) %MON dynstat_wvel_min             =  -5.6098960582115E-01
(PID.TID 0000.0001) %MON dynstat_wvel_mean            =  -2.5152210597130E-03
(PID.TID 0000.0001) %MON dynstat_wvel_sd              =   1.8783477173339E-02
(PID.TID 0000.0001) %MON dynstat_wvel_del2            =   1.4138365065371E-03
(PID.TID 0000.0001) %MON dynstat_theta_max            =   4.3754930149476E+02
(PID.TID 0000.0001) %MON dynstat_theta_min            =   2.8834953457668E+02
(PID.TID 0000.0001) %MON dynstat_theta_mean           =   3.3171614852605E+02
(PID.TID 0000.0001) %MON dynstat_theta_sd             =   4.7417983701918E+01
(PID.TID 0000.0001) %MON dynstat_theta_del2           =   7.6303575598736E-03
(PID.TID 0000.0001) %MON dynstat_salt_max             =   1.9274174616767E+00
(PID.TID 0000.0001) %MON dynstat_salt_min             =  -9.6141039579405E-04
(PID.TID 0000.0001) %MON dynstat_salt_mean            =   1.9659199800462E-02
(PID.TID 0000.0001) %MON dynstat_salt_sd              =   8.4604713677172E-02
(PID.TID 0000.0001) %MON dynstat_salt_del2            =   3.2336019830865E-03
(PID.TID 0000.0001) %MON advcfl_uvel_max              =   1.0843003536447E-02
(PID.TID 0000.0001) %MON advcfl_vvel_max              =   1.2234281863786E-02
(PID.TID 0000.0001) %MON advcfl_wvel_max              =   9.1798299134370E-03
(PID.TID 0000.0001) %MON advcfl_W_hf_max              =   2.2670071278086E-02
(PID.TID 0000.0001) %MON pe_b_mean                    =  -6.8994088438373E-01
(PID.TID 0000.0001) %MON ke_max                       =   3.3071157379259E+01
(PID.TID 0000.0001) %MON ke_mean                      =   4.4126735844714E-01
(PID.TID 0000.0001) %MON ke_vol                       =   4.9523908919847E+19
(PID.TID 0000.0001) %MON vort_r_min                   =  -2.4862401063121E-05
(PID.TID 0000.0001) %MON vort_r_max                   =   1.2321509161715E-05
(PID.TID 0000.0001) %MON vort_a_mean                  =   6.7059142262115E-08
(PID.TID 0000.0001) %MON vort_a_sd                    =   8.3712115150948E-05
(PID.TID 0000.0001) %MON vort_p_mean                  =   6.8751142086885E-08
(PID.TID 0000.0001) %MON vort_p_sd                    =   9.1467010949621E-05
(PID.TID 0000.0001) %MON surfExpan_theta_mean         =   2.4366046236919E-01
(PID.TID 0000.0001) %MON surfExpan_salt_mean          =  -1.3414094695293E-05
(PID.TID 0000.0001) %MON surfExpan_Heat_mean          =  -1.9968175299150E+01
(PID.TID 0000.0001) %MON En_Budget_T2PE_mean          =   3.7985657067564E+01
(PID.TID 0000.0001) // =======================================================
(PID.TID 0000.0001) // End MONITOR dynamic field statistics
(PID.TID 0000.0001) // =======================================================
(PID.TID 0000.0001) // =======================================================
(PID.TID 0000.0001) // Begin MONITOR Land statistics
(PID.TID 0000.0001) // =======================================================
(PID.TID 0000.0001) %MON land_time_sec                =   2.2500000000000E+03
(PID.TID 0000.0001) %MON land_SnwH_ave_G              =   1.5324375291032E-01
(PID.TID 0000.0001) %MON land_SnwH_ave_S              =   5.5905913630468E-01
(PID.TID 0000.0001) %MON land_SnwH_ave_T              =   0.0000000000000E+00
(PID.TID 0000.0001) %MON land_SnwH_ave_N              =   1.2393138658113E-01
(PID.TID 0000.0001) %MON land_SnwH_max_S              =   9.9999750912849E-01
(PID.TID 0000.0001) %MON land_SnwH_max_T              =   0.0000000000000E+00
(PID.TID 0000.0001) %MON land_SnwH_max_N              =   9.9999964347532E-01
(PID.TID 0000.0001) %MON land_TotEnerg_G              =  -6.2835107576604E+21
(PID.TID 0000.0001) %MON land_TotEnerg_S              =  -4.9956323357481E+21
(PID.TID 0000.0001) %MON land_TotEnerg_T              =   7.3239135364579E+21
(PID.TID 0000.0001) %MON land_TotEnerg_N              =  -8.6117919583703E+21
(PID.TID 0000.0001) %MON land_Tsrf_ave_G              =  -6.0030426589962E+00
(PID.TID 0000.0001) %MON land_Tsrf_ave_S              =  -5.9127813421942E+00
(PID.TID 0000.0001) %MON land_Tsrf_ave_T              =   1.5592627412823E+01
(PID.TID 0000.0001) %MON land_Tsrf_ave_N              =  -2.0453276236366E+01
(PID.TID 0000.0001) %MON land_Tsrf_min_S              =  -3.4616210472559E+01
(PID.TID 0000.0001) %MON land_Tsrf_min_T              =  -6.8157567544749E+00
(PID.TID 0000.0001) %MON land_Tsrf_min_N              =  -5.0782199475913E+01
(PID.TID 0000.0001) %MON land_Tsrf_max_S              =   2.7365902069962E+01
(PID.TID 0000.0001) %MON land_Tsrf_max_T              =   3.0179564334877E+01
(PID.TID 0000.0001) %MON land_Tsrf_max_N              =   1.3045558119263E+01
(PID.TID 0000.0001) %MON land_Tgr1_ave_G              =  -4.6277653161447E+00
(PID.TID 0000.0001) %MON land_Tgr1_ave_S              =  -5.1332314050005E+00
(PID.TID 0000.0001) %MON land_Tgr1_ave_T              =   1.5592627412823E+01
(PID.TID 0000.0001) %MON land_Tgr1_ave_N              =  -1.7966378789602E+01
(PID.TID 0000.0001) %MON land_Tgr1_min_S              =  -3.9048015087046E+01
(PID.TID 0000.0001) %MON land_Tgr1_min_T              =  -6.8157567544749E+00
(PID.TID 0000.0001) %MON land_Tgr1_min_N              =  -5.4951148933787E+01
(PID.TID 0000.0001) %MON land_Tgr1_max_S              =   2.7365902069962E+01
(PID.TID 0000.0001) %MON land_Tgr1_max_T              =   3.0179564334877E+01
(PID.TID 0000.0001) %MON land_Tgr1_max_N              =   1.3045558119263E+01
(PID.TID 0000.0001) %MON land_Tgr2_ave_G              =   4.2069704455807E+00
(PID.TID 0000.0001) %MON land_Tgr2_ave_S              =  -1.8730719647439E+01
(PID.TID 0000.0001) %MON land_Tgr2_ave_T              =   2.2012711236211E+01
(PID.TID 0000.0001) %MON land_Tgr2_ave_N              =  -2.4233269189774E-01
(PID.TID 0000.0001) %MON land_Tgr2_min_S              =  -6.4760125424559E+01
(PID.TID 0000.0001) %MON land_Tgr2_min_T              =  -9.7049544593593E+00
(PID.TID 0000.0001) %MON land_Tgr2_min_N              =  -4.0194824137325E+01
(PID.TID 0000.0001) %MON land_Tgr2_max_S              =   2.3360519792017E+01
(PID.TID 0000.0001) %MON land_Tgr2_max_T              =   3.1359538740373E+01
(PID.TID 0000.0001) %MON land_Tgr2_max_N              =   2.9830962849096E+01
(PID.TID 0000.0001) %MON land_grdW_ave_G              =   4.8696573098318E-01
(PID.TID 0000.0001) %MON land_grdW_ave_S              =   3.0870854723171E-01
(PID.TID 0000.0001) %MON land_grdW_ave_T              =   5.6470284843542E-01
(PID.TID 0000.0001) %MON land_grdW_ave_N              =   4.9288071442893E-01
(PID.TID 0000.0001) %MON land_grdW_min_S              =   2.6016778690328E-02
(PID.TID 0000.0001) %MON land_grdW_min_T              =   0.0000000000000E+00
(PID.TID 0000.0001) %MON land_grdW_min_N              =   0.0000000000000E+00
(PID.TID 0000.0001) // =======================================================
(PID.TID 0000.0001) // End MONITOR Land statistics
(PID.TID 0000.0001) // =======================================================
(PID.TID 0000.0001) // =======================================================
(PID.TID 0000.0001) // Begin MONITOR Therm.SeaIce statistics
(PID.TID 0000.0001) // =======================================================
(PID.TID 0000.0001) %MON thSI_time_sec                =   2.2500000000000E+03
(PID.TID 0000.0001) %MON thSI_Ice_Area_G              =   5.2869265693069E+10
(PID.TID 0000.0001) %MON thSI_Ice_Area_S              =   0.0000000000000E+00
(PID.TID 0000.0001) %MON thSI_Ice_Area_N              =   5.2869265693069E+10
(PID.TID 0000.0001) %MON thSI_IceH_ave_G              =   1.0714929296432E-01
(PID.TID 0000.0001) %MON thSI_IceH_ave_S              =   0.0000000000000E+00
(PID.TID 0000.0001) %MON thSI_IceH_ave_N              =   1.0714929296432E-01
(PID.TID 0000.0001) %MON thSI_IceH_max_S              =   0.0000000000000E+00
(PID.TID 0000.0001) %MON thSI_IceH_max_N              =   1.0897737865155E-01
(PID.TID 0000.0001) %MON thSI_SnwH_ave_G              =   0.0000000000000E+00
(PID.TID 0000.0001) %MON thSI_SnwH_ave_S              =   0.0000000000000E+00
(PID.TID 0000.0001) %MON thSI_SnwH_ave_N              =   0.0000000000000E+00
(PID.TID 0000.0001) %MON thSI_SnwH_max_S              =   0.0000000000000E+00
(PID.TID 0000.0001) %MON thSI_SnwH_max_N              =   0.0000000000000E+00
(PID.TID 0000.0001) %MON thSI_TotEnerg_G              =  -1.7081698187563E+18
(PID.TID 0000.0001) %MON thSI_Tsrf_ave_G              =  -4.8862557234906E+00
(PID.TID 0000.0001) %MON thSI_Tsrf_ave_S              =   0.0000000000000E+00
(PID.TID 0000.0001) %MON thSI_Tsrf_ave_N              =  -4.8862557234906E+00
(PID.TID 0000.0001) %MON thSI_Tsrf_min_S              =   0.0000000000000E+00
(PID.TID 0000.0001) %MON thSI_Tsrf_min_N              =  -4.9395637203462E+00
(PID.TID 0000.0001) %MON thSI_Tsrf_max_S              =   0.0000000000000E+00
(PID.TID 0000.0001) %MON thSI_Tsrf_max_N              =  -4.8066825150595E+00
(PID.TID 0000.0001) %MON thSI_Tic1_ave_G              =  -2.5005635114122E+00
(PID.TID 0000.0001) %MON thSI_Tic1_ave_S              =   0.0000000000000E+00
(PID.TID 0000.0001) %MON thSI_Tic1_ave_N              =  -2.5005635114122E+00
(PID.TID 0000.0001) %MON thSI_Tic1_min_S              =   0.0000000000000E+00
(PID.TID 0000.0001) %MON thSI_Tic1_min_N              =  -2.5535277990330E+00
(PID.TID 0000.0001) %MON thSI_Tic1_max_S              =   0.0000000000000E+00
(PID.TID 0000.0001) %MON thSI_Tic1_max_N              =  -2.4216615249726E+00
(PID.TID 0000.0001) %MON thSI_Tic2_ave_G              =  -1.8109521262629E+00
(PID.TID 0000.0001) %MON thSI_Tic2_ave_S              =   0.0000000000000E+00
(PID.TID 0000.0001) %MON thSI_Tic2_ave_N              =  -1.8109521262629E+00
(PID.TID 0000.0001) %MON thSI_Tic2_min_S              =   0.0000000000000E+00
(PID.TID 0000.0001) %MON thSI_Tic2_min_N              =  -1.8520846957509E+00
(PID.TID 0000.0001) %MON thSI_Tic2_max_S              =   0.0000000000000E+00
(PID.TID 0000.0001) %MON thSI_Tic2_max_N              =  -1.7575186265747E+00
(PID.TID 0000.0001) // =======================================================
(PID.TID 0000.0001) // End MONITOR Therm.SeaIce statistics
(PID.TID 0000.0001) // =======================================================
 cg2d: Sum(rhs),rhsMax =  -3.50610207533464E-10  2.06452430645551E+04
(PID.TID 0000.0001)                    cg2d_init_res =    2.25059755576555E+04
(PID.TID 0000.0001)                       cg2d_iters =    16
(PID.TID 0000.0001)                         cg2d_res =    8.39084855471906E-11
(PID.TID 0000.0001) // =======================================================
(PID.TID 0000.0001) // Begin MONITOR dynamic field statistics
(PID.TID 0000.0001) // =======================================================
(PID.TID 0000.0001) %MON time_tsnumber                =                     6
(PID.TID 0000.0001) %MON time_secondsf                =   2.7000000000000E+03
(PID.TID 0000.0001) %MON dynstat_eta_max              =   3.6542263048085E+03
(PID.TID 0000.0001) %MON dynstat_eta_min              =  -2.8734140722450E+03
(PID.TID 0000.0001) %MON dynstat_eta_mean             =   1.1170722207112E-15
(PID.TID 0000.0001) %MON dynstat_eta_sd               =   3.4255957032389E+02
(PID.TID 0000.0001) %MON dynstat_eta_del2             =   4.3860804414238E+01
(PID.TID 0000.0001) %MON dynstat_uvel_max             =   7.8599966338734E+00
(PID.TID 0000.0001) %MON dynstat_uvel_min             =  -7.8174467158426E+00
(PID.TID 0000.0001) %MON dynstat_uvel_mean            =  -4.9637559315667E-03
(PID.TID 0000.0001) %MON dynstat_uvel_sd              =   7.3180947353021E-01
(PID.TID 0000.0001) %MON dynstat_uvel_del2            =   2.1846421273735E-02
(PID.TID 0000.0001) %MON dynstat_vvel_max             =   7.4229094015923E+00
(PID.TID 0000.0001) %MON dynstat_vvel_min             =  -8.4833646971704E+00
(PID.TID 0000.0001) %MON dynstat_vvel_mean            =   7.3906287058045E-03
(PID.TID 0000.0001) %MON dynstat_vvel_sd              =   6.9875926177489E-01
(PID.TID 0000.0001) %MON dynstat_vvel_del2            =   2.0404945622529E-02
(PID.TID 0000.0001) %MON dynstat_wvel_max             =   6.4643873190484E-02
(PID.TID 0000.0001) %MON dynstat_wvel_min             =  -4.9956811804688E-01
(PID.TID 0000.0001) %MON dynstat_wvel_mean            =  -2.3536615456012E-03
(PID.TID 0000.0001) %MON dynstat_wvel_sd              =   1.7429863992106E-02
(PID.TID 0000.0001) %MON dynstat_wvel_del2            =   1.3197472674038E-03
(PID.TID 0000.0001) %MON dynstat_theta_max            =   4.3755717021701E+02
(PID.TID 0000.0001) %MON dynstat_theta_min            =   2.8810744240282E+02
(PID.TID 0000.0001) %MON dynstat_theta_mean           =   3.3171546730923E+02
(PID.TID 0000.0001) %MON dynstat_theta_sd             =   4.7419034368812E+01
(PID.TID 0000.0001) %MON dynstat_theta_del2           =   8.4622087405321E-03
(PID.TID 0000.0001) %MON dynstat_salt_max             =   2.1966507023522E+00
(PID.TID 0000.0001) %MON dynstat_salt_min             =  -1.0186551443062E-03
(PID.TID 0000.0001) %MON dynstat_salt_mean            =   2.3440564131044E-02
(PID.TID 0000.0001) %MON dynstat_salt_sd              =   1.0048326079378E-01
(PID.TID 0000.0001) %MON dynstat_salt_del2            =   3.7557946620593E-03
(PID.TID 0000.0001) %MON advcfl_uvel_max              =   1.1195184161539E-02
(PID.TID 0000.0001) %MON advcfl_vvel_max              =   1.2032137905749E-02
(PID.TID 0000.0001) %MON advcfl_wvel_max              =   8.1747510225853E-03
(PID.TID 0000.0001) %MON advcfl_W_hf_max              =   1.9921714154372E-02
(PID.TID 0000.0001) %MON pe_b_mean                    =  -7.8870053651256E-01
(PID.TID 0000.0001) %MON ke_max                       =   3.5155197442984E+01
(PID.TID 0000.0001) %MON ke_mean                      =   5.0892859337133E-01
(PID.TID 0000.0001) %MON ke_vol                       =   4.9523908919847E+19
(PID.TID 0000.0001) %MON vort_r_min                   =  -2.6409346258922E-05
(PID.TID 0000.0001) %MON vort_r_max                   =   1.2350503683585E-05
(PID.TID 0000.0001) %MON vort_a_mean                  =   6.7059142262006E-08
(PID.TID 0000.0001) %MON vort_a_sd                    =   8.3713969215601E-05
(PID.TID 0000.0001) %MON vort_p_mean                  =   6.8751142164651E-08
(PID.TID 0000.0001) %MON vort_p_sd                    =   9.1497357414734E-05
(PID.TID 0000.0001) %MON surfExpan_theta_mean         =   2.2855807292599E-01
(PID.TID 0000.0001) %MON surfExpan_salt_mean          =  -2.6200066198900E-05
(PID.TID 0000.0001) %MON surfExpan_Heat_mean          =  -1.8803650148751E+01
(PID.TID 0000.0001) %MON En_Budget_T2PE_mean          =   3.5674617387730E+01
(PID.TID 0000.0001) // =======================================================
(PID.TID 0000.0001) // End MONITOR dynamic field statistics
(PID.TID 0000.0001) // =======================================================
(PID.TID 0000.0001) // =======================================================
(PID.TID 0000.0001) // Begin MONITOR Land statistics
(PID.TID 0000.0001) // =======================================================
(PID.TID 0000.0001) %MON land_time_sec                =   2.7000000000000E+03
(PID.TID 0000.0001) %MON land_SnwH_ave_G              =   1.5324262650598E-01
(PID.TID 0000.0001) %MON land_SnwH_ave_S              =   5.5905826212373E-01
(PID.TID 0000.0001) %MON land_SnwH_ave_T              =   0.0000000000000E+00
(PID.TID 0000.0001) %MON land_SnwH_ave_N              =   1.2392942617737E-01
(PID.TID 0000.0001) %MON land_SnwH_max_S              =   9.9999698854034E-01
(PID.TID 0000.0001) %MON land_SnwH_max_T              =   0.0000000000000E+00
(PID.TID 0000.0001) %MON land_SnwH_max_N              =   9.9999956679599E-01
(PID.TID 0000.0001) %MON land_TotEnerg_G              =  -6.2906584980874E+21
(PID.TID 0000.0001) %MON land_TotEnerg_S              =  -4.9964629174855E+21
(PID.TID 0000.0001) %MON land_TotEnerg_T              =   7.3185633255923E+21
(PID.TID 0000.0001) %MON land_TotEnerg_N              =  -8.6127589061942E+21
(PID.TID 0000.0001) %MON land_Tsrf_ave_G              =  -6.2567984122990E+00
(PID.TID 0000.0001) %MON land_Tsrf_ave_S              =  -6.0006237604859E+00
(PID.TID 0000.0001) %MON land_Tsrf_ave_T              =   1.4980197269518E+01
(PID.TID 0000.0001) %MON land_Tsrf_ave_N              =  -2.0521341055410E+01
(PID.TID 0000.0001) %MON land_Tsrf_min_S              =  -3.4523320880079E+01
(PID.TID 0000.0001) %MON land_Tsrf_min_T              =  -6.5960249674770E+00
(PID.TID 0000.0001) %MON land_Tsrf_min_N              =  -5.1015587031593E+01
(PID.TID 0000.0001) %MON land_Tsrf_max_S              =   2.6533746338937E+01
(PID.TID 0000.0001) %MON land_Tsrf_max_T              =   2.9117636075977E+01
(PID.TID 0000.0001) %MON land_Tsrf_max_N              =   1.2563781269944E+01
(PID.TID 0000.0001) %MON land_Tgr1_ave_G              =  -4.9077619316282E+00
(PID.TID 0000.0001) %MON land_Tgr1_ave_S              =  -5.3779403377101E+00
(PID.TID 0000.0001) %MON land_Tgr1_ave_T              =   1.4980197269518E+01
(PID.TID 0000.0001) %MON land_Tgr1_ave_N              =  -1.8035833181190E+01
(PID.TID 0000.0001) %MON land_Tgr1_min_S              =  -3.9060137613183E+01
(PID.TID 0000.0001) %MON land_Tgr1_min_T              =  -6.5960249674770E+00
(PID.TID 0000.0001) %MON land_Tgr1_min_N              =  -5.4937256028042E+01
(PID.TID 0000.0001) %MON land_Tgr1_max_S              =   2.6533746338937E+01
(PID.TID 0000.0001) %MON land_Tgr1_max_T              =   2.9117636075977E+01
(PID.TID 0000.0001) %MON land_Tgr1_max_N              =   1.2563781269944E+01
(PID.TID 0000.0001) %MON land_Tgr2_ave_G              =   4.2068320362328E+00
(PID.TID 0000.0001) %MON land_Tgr2_ave_S              =  -1.8730497453119E+01
(PID.TID 0000.0001) %MON land_Tgr2_ave_T              =   2.2012594499892E+01
(PID.TID 0000.0001) %MON land_Tgr2_ave_N              =  -2.4260255148944E-01
(PID.TID 0000.0001) %MON land_Tgr2_min_S              =  -6.4759691887075E+01
(PID.TID 0000.0001) %MON land_Tgr2_min_T              =  -9.7049151765598E+00
(PID.TID 0000.0001) %MON land_Tgr2_min_N              =  -4.0195064276890E+01
(PID.TID 0000.0001) %MON land_Tgr2_max_S              =   2.3360568380361E+01
(PID.TID 0000.0001) %MON land_Tgr2_max_T              =   3.1359217933660E+01
(PID.TID 0000.0001) %MON land_Tgr2_max_N              =   2.9830572760883E+01
(PID.TID 0000.0001) %MON land_grdW_ave_G              =   4.8695061608011E-01
(PID.TID 0000.0001) %MON land_grdW_ave_S              =   3.0869682091771E-01
(PID.TID 0000.0001) %MON land_grdW_ave_T              =   5.6466400422878E-01
(PID.TID 0000.0001) %MON land_grdW_ave_N              =   4.9288034601926E-01
(PID.TID 0000.0001) %MON land_grdW_min_S              =   2.6059750228024E-02
(PID.TID 0000.0001) %MON land_grdW_min_T              =   0.0000000000000E+00
(PID.TID 0000.0001) %MON land_grdW_min_N              =   0.0000000000000E+00
(PID.TID 0000.0001) // =======================================================
(PID.TID 0000.0001) // End MONITOR Land statistics
(PID.TID 0000.0001) // =======================================================
(PID.TID 0000.0001) // =======================================================
(PID.TID 0000.0001) // Begin MONITOR Therm.SeaIce statistics
(PID.TID 0000.0001) // =======================================================
(PID.TID 0000.0001) %MON thSI_time_sec                =   2.7000000000000E+03
(PID.TID 0000.0001) %MON thSI_Ice_Area_G              =   6.4567679420806E+10
(PID.TID 0000.0001) %MON thSI_Ice_Area_S              =   0.0000000000000E+00
(PID.TID 0000.0001) %MON thSI_Ice_Area_N              =   6.4567679420806E+10
(PID.TID 0000.0001) %MON thSI_IceH_ave_G              =   1.0953801778684E-01
(PID.TID 0000.0001) %MON thSI_IceH_ave_S              =   0.0000000000000E+00
(PID.TID 0000.0001) %MON thSI_IceH_ave_N              =   1.0953801778684E-01
(PID.TID 0000.0001) %MON thSI_IceH_max_S              =   0.0000000000000E+00
(PID.TID 0000.0001) %MON thSI_IceH_max_N              =   1.1198421564636E-01
(PID.TID 0000.0001) %MON thSI_SnwH_ave_G              =   0.0000000000000E+00
(PID.TID 0000.0001) %MON thSI_SnwH_ave_S              =   0.0000000000000E+00
(PID.TID 0000.0001) %MON thSI_SnwH_ave_N              =   0.0000000000000E+00
(PID.TID 0000.0001) %MON thSI_SnwH_max_S              =   0.0000000000000E+00
(PID.TID 0000.0001) %MON thSI_SnwH_max_N              =   0.0000000000000E+00
(PID.TID 0000.0001) %MON thSI_TotEnerg_G              =  -2.1377680671181E+18
(PID.TID 0000.0001) %MON thSI_Tsrf_ave_G              =  -5.2122419864182E+00
(PID.TID 0000.0001) %MON thSI_Tsrf_ave_S              =   0.0000000000000E+00
(PID.TID 0000.0001) %MON thSI_Tsrf_ave_N              =  -5.2122419864182E+00
(PID.TID 0000.0001) %MON thSI_Tsrf_min_S              =   0.0000000000000E+00
(PID.TID 0000.0001) %MON thSI_Tsrf_min_N              =  -5.2756791270103E+00
(PID.TID 0000.0001) %MON thSI_Tsrf_max_S              =   0.0000000000000E+00
(PID.TID 0000.0001) %MON thSI_Tsrf_max_N              =  -5.1238905895580E+00
(PID.TID 0000.0001) %MON thSI_Tic1_ave_G              =  -2.8195897614639E+00
(PID.TID 0000.0001) %MON thSI_Tic1_ave_S              =   0.0000000000000E+00
(PID.TID 0000.0001) %MON thSI_Tic1_ave_N              =  -2.8195897614639E+00
(PID.TID 0000.0001) %MON thSI_Tic1_min_S              =   0.0000000000000E+00
(PID.TID 0000.0001) %MON thSI_Tic1_min_N              =  -2.8766834020947E+00
(PID.TID 0000.0001) %MON thSI_Tic1_max_S              =   0.0000000000000E+00
(PID.TID 0000.0001) %MON thSI_Tic1_max_N              =  -2.7339724968947E+00
(PID.TID 0000.0001) %MON thSI_Tic2_ave_G              =  -1.8866741407476E+00
(PID.TID 0000.0001) %MON thSI_Tic2_ave_S              =   0.0000000000000E+00
(PID.TID 0000.0001) %MON thSI_Tic2_ave_N              =  -1.8866741407476E+00
(PID.TID 0000.0001) %MON thSI_Tic2_min_S              =   0.0000000000000E+00
(PID.TID 0000.0001) %MON thSI_Tic2_min_N              =  -1.9307075962721E+00
(PID.TID 0000.0001) %MON thSI_Tic2_max_S              =   0.0000000000000E+00
(PID.TID 0000.0001) %MON thSI_Tic2_max_N              =  -1.8317478206433E+00
(PID.TID 0000.0001) // =======================================================
(PID.TID 0000.0001) // End MONITOR Therm.SeaIce statistics
(PID.TID 0000.0001) // =======================================================
 cg2d: Sum(rhs),rhsMax =  -3.63797880709171E-11  2.21103678681406E+04
(PID.TID 0000.0001)                    cg2d_init_res =    2.13603098624168E+04
(PID.TID 0000.0001)                       cg2d_iters =    16
(PID.TID 0000.0001)                         cg2d_res =    7.62863165271507E-11
(PID.TID 0000.0001) // =======================================================
(PID.TID 0000.0001) // Begin MONITOR dynamic field statistics
(PID.TID 0000.0001) // =======================================================
(PID.TID 0000.0001) %MON time_tsnumber                =                     7
(PID.TID 0000.0001) %MON time_secondsf                =   3.1500000000000E+03
(PID.TID 0000.0001) %MON dynstat_eta_max              =   3.9356643558114E+03
(PID.TID 0000.0001) %MON dynstat_eta_min              =  -2.8399486795752E+03
(PID.TID 0000.0001) %MON dynstat_eta_mean             =   1.5814730315687E-15
(PID.TID 0000.0001) %MON dynstat_eta_sd               =   3.7782672307319E+02
(PID.TID 0000.0001) %MON dynstat_eta_del2             =   4.1766401467700E+01
(PID.TID 0000.0001) %MON dynstat_uvel_max             =   7.6486532289480E+00
(PID.TID 0000.0001) %MON dynstat_uvel_min             =  -7.9888141817821E+00
(PID.TID 0000.0001) %MON dynstat_uvel_mean            =  -5.6482214684193E-03
(PID.TID 0000.0001) %MON dynstat_uvel_sd              =   7.6035491484739E-01
(PID.TID 0000.0001) %MON dynstat_uvel_del2            =   2.1082100390749E-02
(PID.TID 0000.0001) %MON dynstat_vvel_max             =   7.3533441366095E+00
(PID.TID 0000.0001) %MON dynstat_vvel_min             =  -8.6757106144185E+00
(PID.TID 0000.0001) %MON dynstat_vvel_mean            =   8.8873845903921E-03
(PID.TID 0000.0001) %MON dynstat_vvel_sd              =   7.4736372835541E-01
(PID.TID 0000.0001) %MON dynstat_vvel_del2            =   2.0330988001801E-02
(PID.TID 0000.0001) %MON dynstat_wvel_max             =   7.1121307575980E-02
(PID.TID 0000.0001) %MON dynstat_wvel_min             =  -4.3388522344621E-01
(PID.TID 0000.0001) %MON dynstat_wvel_mean            =  -2.1630564751047E-03
(PID.TID 0000.0001) %MON dynstat_wvel_sd              =   1.6134240789659E-02
(PID.TID 0000.0001) %MON dynstat_wvel_del2            =   1.2837647531294E-03
(PID.TID 0000.0001) %MON dynstat_theta_max            =   4.3755507566557E+02
(PID.TID 0000.0001) %MON dynstat_theta_min            =   2.8786562754599E+02
(PID.TID 0000.0001) %MON dynstat_theta_mean           =   3.3171461483361E+02
(PID.TID 0000.0001) %MON dynstat_theta_sd             =   4.7420260324541E+01
(PID.TID 0000.0001) %MON dynstat_theta_del2           =   9.2365431010174E-03
(PID.TID 0000.0001) %MON dynstat_salt_max             =   2.4395991440948E+00
(PID.TID 0000.0001) %MON dynstat_salt_min             =  -1.1553691686596E-03
(PID.TID 0000.0001) %MON dynstat_salt_mean            =   2.7186081917688E-02
(PID.TID 0000.0001) %MON dynstat_salt_sd              =   1.1612666360676E-01
(PID.TID 0000.0001) %MON dynstat_salt_del2            =   4.2499435379958E-03
(PID.TID 0000.0001) %MON advcfl_uvel_max              =   1.1362882214087E-02
(PID.TID 0000.0001) %MON advcfl_vvel_max              =   1.2304946241185E-02
(PID.TID 0000.0001) %MON advcfl_wvel_max              =   7.0999400200288E-03
(PID.TID 0000.0001) %MON advcfl_W_hf_max              =   1.8531732162909E-02
(PID.TID 0000.0001) %MON pe_b_mean                    =  -8.7229309194317E-01
(PID.TID 0000.0001) %MON ke_max                       =   3.5718314865985E+01
(PID.TID 0000.0001) %MON ke_mean                      =   5.6505415480655E-01
(PID.TID 0000.0001) %MON ke_vol                       =   4.9523908919847E+19
(PID.TID 0000.0001) %MON vort_r_min                   =  -2.7157251655079E-05
(PID.TID 0000.0001) %MON vort_r_max                   =   1.5568495248007E-05
(PID.TID 0000.0001) %MON vort_a_mean                  =   6.7059142262075E-08
(PID.TID 0000.0001) %MON vort_a_sd                    =   8.3716010770611E-05
(PID.TID 0000.0001) %MON vort_p_mean                  =   6.8751142225027E-08
(PID.TID 0000.0001) %MON vort_p_sd                    =   9.1526115758890E-05
(PID.TID 0000.0001) %MON surfExpan_theta_mean         =   2.1040384946383E-01
(PID.TID 0000.0001) %MON surfExpan_salt_mean          =  -4.1549630219475E-05
(PID.TID 0000.0001) %MON surfExpan_Heat_mean          =  -1.7380418046880E+01
(PID.TID 0000.0001) %MON En_Budget_T2PE_mean          =   3.2887024822768E+01
(PID.TID 0000.0001) // =======================================================
(PID.TID 0000.0001) // End MONITOR dynamic field statistics
(PID.TID 0000.0001) // =======================================================
(PID.TID 0000.0001) // =======================================================
(PID.TID 0000.0001) // Begin MONITOR Land statistics
(PID.TID 0000.0001) // =======================================================
(PID.TID 0000.0001) %MON land_time_sec                =   3.1500000000000E+03
(PID.TID 0000.0001) %MON land_SnwH_ave_G              =   1.5324152736215E-01
(PID.TID 0000.0001) %MON land_SnwH_ave_S              =   5.5905735779134E-01
(PID.TID 0000.0001) %MON land_SnwH_ave_T              =   0.0000000000000E+00
(PID.TID 0000.0001) %MON land_SnwH_ave_N              =   1.2392752986197E-01
(PID.TID 0000.0001) %MON land_SnwH_max_S              =   9.9999645859924E-01
(PID.TID 0000.0001) %MON land_SnwH_max_T              =   0.0000000000000E+00
(PID.TID 0000.0001) %MON land_SnwH_max_N              =   9.9999949527957E-01
(PID.TID 0000.0001) %MON land_TotEnerg_G              =  -6.2970937451404E+21
(PID.TID 0000.0001) %MON land_TotEnerg_S              =  -4.9971973486688E+21
(PID.TID 0000.0001) %MON land_TotEnerg_T              =   7.3137986955447E+21
(PID.TID 0000.0001) %MON land_TotEnerg_N              =  -8.6136950920163E+21
(PID.TID 0000.0001) %MON land_Tsrf_ave_G              =  -6.4889220625842E+00
(PID.TID 0000.0001) %MON land_Tsrf_ave_S              =  -6.0908279448299E+00
(PID.TID 0000.0001) %MON land_Tsrf_ave_T              =   1.4434112030678E+01
(PID.TID 0000.0001) %MON land_Tsrf_ave_N              =  -2.0589848200333E+01
(PID.TID 0000.0001) %MON land_Tsrf_min_S              =  -3.4412994236626E+01
(PID.TID 0000.0001) %MON land_Tsrf_min_T              =  -6.3849496941569E+00
(PID.TID 0000.0001) %MON land_Tsrf_min_N              =  -5.1386162902630E+01
(PID.TID 0000.0001) %MON land_Tsrf_max_S              =   2.5790807993191E+01
(PID.TID 0000.0001) %MON land_Tsrf_max_T              =   2.8159141985748E+01
(PID.TID 0000.0001) %MON land_Tsrf_max_N              =   1.2186135636404E+01
(PID.TID 0000.0001) %MON land_Tgr1_ave_G              =  -5.1593550948731E+00
(PID.TID 0000.0001) %MON land_Tgr1_ave_S              =  -5.5952667283964E+00
(PID.TID 0000.0001) %MON land_Tgr1_ave_T              =   1.4434112030678E+01
(PID.TID 0000.0001) %MON land_Tgr1_ave_N              =  -1.8101889129443E+01
(PID.TID 0000.0001) %MON land_Tgr1_min_S              =  -3.9072120846680E+01
(PID.TID 0000.0001) %MON land_Tgr1_min_T              =  -6.3849496941569E+00
(PID.TID 0000.0001) %MON land_Tgr1_min_N              =  -5.4923746882507E+01
(PID.TID 0000.0001) %MON land_Tgr1_max_S              =   2.5790807993191E+01
(PID.TID 0000.0001) %MON land_Tgr1_max_T              =   2.8159141985748E+01
(PID.TID 0000.0001) %MON land_Tgr1_max_N              =   1.2186135636404E+01
(PID.TID 0000.0001) %MON land_Tgr2_ave_G              =   4.2066895210103E+00
(PID.TID 0000.0001) %MON land_Tgr2_ave_S              =  -1.8730278717394E+01
(PID.TID 0000.0001) %MON land_Tgr2_ave_T              =   2.2012469014880E+01
(PID.TID 0000.0001) %MON land_Tgr2_ave_N              =  -2.4287362659189E-01
(PID.TID 0000.0001) %MON land_Tgr2_min_S              =  -6.4759258575148E+01
(PID.TID 0000.0001) %MON land_Tgr2_min_T              =  -9.7048732270965E+00
(PID.TID 0000.0001) %MON land_Tgr2_min_N              =  -4.0195304155380E+01
(PID.TID 0000.0001) %MON land_Tgr2_max_S              =   2.3360603603833E+01
(PID.TID 0000.0001) %MON land_Tgr2_max_T              =   3.1358885586259E+01
(PID.TID 0000.0001) %MON land_Tgr2_max_N              =   2.9830172631745E+01
(PID.TID 0000.0001) %MON land_grdW_ave_G              =   4.8693635133589E-01
(PID.TID 0000.0001) %MON land_grdW_ave_S              =   3.0868557041478E-01
(PID.TID 0000.0001) %MON land_grdW_ave_T              =   5.6462745513623E-01
(PID.TID 0000.0001) %MON land_grdW_ave_N              =   4.9287998430599E-01
(PID.TID 0000.0001) %MON land_grdW_min_S              =   2.6109316759212E-02
(PID.TID 0000.0001) %MON land_grdW_min_T              =   0.0000000000000E+00
(PID.TID 0000.0001) %MON land_grdW_min_N              =   0.0000000000000E+00
(PID.TID 0000.0001) // =======================================================
(PID.TID 0000.0001) // End MONITOR Land statistics
(PID.TID 0000.0001) // =======================================================
(PID.TID 0000.0001) // =======================================================
(PID.TID 0000.0001) // Begin MONITOR Therm.SeaIce statistics
(PID.TID 0000.0001) // =======================================================
(PID.TID 0000.0001) %MON thSI_time_sec                =   3.1500000000000E+03
(PID.TID 0000.0001) %MON thSI_Ice_Area_G              =   7.5745715820992E+10
(PID.TID 0000.0001) %MON thSI_Ice_Area_S              =   0.0000000000000E+00
(PID.TID 0000.0001) %MON thSI_Ice_Area_N              =   7.5745715820992E+10
(PID.TID 0000.0001) %MON thSI_IceH_ave_G              =   1.1193090680336E-01
(PID.TID 0000.0001) %MON thSI_IceH_ave_S              =   0.0000000000000E+00
(PID.TID 0000.0001) %MON thSI_IceH_ave_N              =   1.1193090680336E-01
(PID.TID 0000.0001) %MON thSI_IceH_max_S              =   0.0000000000000E+00
(PID.TID 0000.0001) %MON thSI_IceH_max_N              =   1.1499884447790E-01
(PID.TID 0000.0001) %MON thSI_SnwH_ave_G              =   0.0000000000000E+00
(PID.TID 0000.0001) %MON thSI_SnwH_ave_S              =   0.0000000000000E+00
(PID.TID 0000.0001) %MON thSI_SnwH_ave_N              =   0.0000000000000E+00
(PID.TID 0000.0001) %MON thSI_SnwH_max_S              =   0.0000000000000E+00
(PID.TID 0000.0001) %MON thSI_SnwH_max_N              =   0.0000000000000E+00
(PID.TID 0000.0001) %MON thSI_TotEnerg_G              =  -2.5682123765986E+18
(PID.TID 0000.0001) %MON thSI_Tsrf_ave_G              =  -5.5366704390417E+00
(PID.TID 0000.0001) %MON thSI_Tsrf_ave_S              =   0.0000000000000E+00
(PID.TID 0000.0001) %MON thSI_Tsrf_ave_N              =  -5.5366704390417E+00
(PID.TID 0000.0001) %MON thSI_Tsrf_min_S              =   0.0000000000000E+00
(PID.TID 0000.0001) %MON thSI_Tsrf_min_N              =  -5.6074187962882E+00
(PID.TID 0000.0001) %MON thSI_Tsrf_max_S              =   0.0000000000000E+00
(PID.TID 0000.0001) %MON thSI_Tsrf_max_N              =  -5.4380886448659E+00
(PID.TID 0000.0001) %MON thSI_Tic1_ave_G              =  -3.1383441090624E+00
(PID.TID 0000.0001) %MON thSI_Tic1_ave_S              =   0.0000000000000E+00
(PID.TID 0000.0001) %MON thSI_Tic1_ave_N              =  -3.1383441090624E+00
(PID.TID 0000.0001) %MON thSI_Tic1_min_S              =   0.0000000000000E+00
(PID.TID 0000.0001) %MON thSI_Tic1_min_N              =  -3.1974253737453E+00
(PID.TID 0000.0001) %MON thSI_Tic1_max_S              =   0.0000000000000E+00
(PID.TID 0000.0001) %MON thSI_Tic1_max_N              =  -3.0489952515366E+00
(PID.TID 0000.0001) %MON thSI_Tic2_ave_G              =  -1.9678124267805E+00
(PID.TID 0000.0001) %MON thSI_Tic2_ave_S              =   0.0000000000000E+00
(PID.TID 0000.0001) %MON thSI_Tic2_ave_N              =  -1.9678124267805E+00
(PID.TID 0000.0001) %MON thSI_Tic2_min_S              =   0.0000000000000E+00
(PID.TID 0000.0001) %MON thSI_Tic2_min_N              =  -2.0156455757292E+00
(PID.TID 0000.0001) %MON thSI_Tic2_max_S              =   0.0000000000000E+00
(PID.TID 0000.0001) %MON thSI_Tic2_max_N              =  -1.9119936851641E+00
(PID.TID 0000.0001) // =======================================================
(PID.TID 0000.0001) // End MONITOR Therm.SeaIce statistics
(PID.TID 0000.0001) // =======================================================
 cg2d: Sum(rhs),rhsMax =   1.53704604599625E-10  2.24920453021338E+04
(PID.TID 0000.0001)                    cg2d_init_res =    2.04208787153526E+04
(PID.TID 0000.0001)                       cg2d_iters =    16
(PID.TID 0000.0001)                         cg2d_res =    7.60777473973865E-11
(PID.TID 0000.0001) // =======================================================
(PID.TID 0000.0001) // Begin MONITOR dynamic field statistics
(PID.TID 0000.0001) // =======================================================
(PID.TID 0000.0001) %MON time_tsnumber                =                     8
(PID.TID 0000.0001) %MON time_secondsf                =   3.6000000000000E+03
(PID.TID 0000.0001) %MON dynstat_eta_max              =   4.0368758675510E+03
(PID.TID 0000.0001) %MON dynstat_eta_min              =  -2.6640794473569E+03
(PID.TID 0000.0001) %MON dynstat_eta_mean             =  -2.8868158512762E-16
(PID.TID 0000.0001) %MON dynstat_eta_sd               =   4.0816812209074E+02
(PID.TID 0000.0001) %MON dynstat_eta_del2             =   3.9960836382655E+01
(PID.TID 0000.0001) %MON dynstat_uvel_max             =   7.2847649910562E+00
(PID.TID 0000.0001) %MON dynstat_uvel_min             =  -8.0389240698744E+00
(PID.TID 0000.0001) %MON dynstat_uvel_mean            =  -6.2941587675620E-03
(PID.TID 0000.0001) %MON dynstat_uvel_sd              =   7.7757677801381E-01
(PID.TID 0000.0001) %MON dynstat_uvel_del2            =   2.0342305235787E-02
(PID.TID 0000.0001) %MON dynstat_vvel_max             =   7.9113139913040E+00
(PID.TID 0000.0001) %MON dynstat_vvel_min             =  -8.4836173577485E+00
(PID.TID 0000.0001) %MON dynstat_vvel_mean            =   1.0459233669692E-02
(PID.TID 0000.0001) %MON dynstat_vvel_sd              =   7.8789382045529E-01
(PID.TID 0000.0001) %MON dynstat_vvel_del2            =   2.0491013425457E-02
(PID.TID 0000.0001) %MON dynstat_wvel_max             =   1.0982291932867E-01
(PID.TID 0000.0001) %MON dynstat_wvel_min             =  -3.7100952389959E-01
(PID.TID 0000.0001) %MON dynstat_wvel_mean            =  -1.9729362924264E-03
(PID.TID 0000.0001) %MON dynstat_wvel_sd              =   1.5071928332164E-02
(PID.TID 0000.0001) %MON dynstat_wvel_del2            =   1.2882471881266E-03
(PID.TID 0000.0001) %MON dynstat_theta_max            =   4.3755367350484E+02
(PID.TID 0000.0001) %MON dynstat_theta_min            =   2.8762340697853E+02
(PID.TID 0000.0001) %MON dynstat_theta_mean           =   3.3171360833087E+02
(PID.TID 0000.0001) %MON dynstat_theta_sd             =   4.7421622441620E+01
(PID.TID 0000.0001) %MON dynstat_theta_del2           =   1.0068128010444E-02
(PID.TID 0000.0001) %MON dynstat_salt_max             =   2.6593760828278E+00
(PID.TID 0000.0001) %MON dynstat_salt_min             =  -1.4293962023374E-03
(PID.TID 0000.0001) %MON dynstat_salt_mean            =   3.0898906681205E-02
(PID.TID 0000.0001) %MON dynstat_salt_sd              =   1.3156129255354E-01
(PID.TID 0000.0001) %MON dynstat_salt_del2            =   4.7172225915242E-03
(PID.TID 0000.0001) %MON advcfl_uvel_max              =   1.1434155965510E-02
(PID.TID 0000.0001) %MON advcfl_vvel_max              =   1.2032496259660E-02
(PID.TID 0000.0001) %MON advcfl_wvel_max              =   6.0710649365387E-03
(PID.TID 0000.0001) %MON advcfl_W_hf_max              =   1.8133180816476E-02
(PID.TID 0000.0001) %MON pe_b_mean                    =  -9.4084814762012E-01
(PID.TID 0000.0001) %MON ke_max                       =   3.7647993693132E+01
(PID.TID 0000.0001) %MON ke_mean                      =   6.0916800566442E-01
(PID.TID 0000.0001) %MON ke_vol                       =   4.9523908919847E+19
(PID.TID 0000.0001) %MON vort_r_min                   =  -2.7278018102434E-05
(PID.TID 0000.0001) %MON vort_r_max                   =   1.7970251658546E-05
(PID.TID 0000.0001) %MON vort_a_mean                  =   6.7059142262073E-08
(PID.TID 0000.0001) %MON vort_a_sd                    =   8.3718194262558E-05
(PID.TID 0000.0001) %MON vort_p_mean                  =   6.8751142393740E-08
(PID.TID 0000.0001) %MON vort_p_sd                    =   9.1552206253078E-05
(PID.TID 0000.0001) %MON surfExpan_theta_mean         =   1.9208435829108E-01
(PID.TID 0000.0001) %MON surfExpan_salt_mean          =  -5.9254831568480E-05
(PID.TID 0000.0001) %MON surfExpan_Heat_mean          =  -1.5931536178573E+01
(PID.TID 0000.0001) %MON En_Budget_T2PE_mean          =   3.0069523034215E+01
(PID.TID 0000.0001) // =======================================================
(PID.TID 0000.0001) // End MONITOR dynamic field statistics
(PID.TID 0000.0001) // =======================================================
(PID.TID 0000.0001) // =======================================================
(PID.TID 0000.0001) // Begin MONITOR Land statistics
(PID.TID 0000.0001) // =======================================================
(PID.TID 0000.0001) %MON land_time_sec                =   3.6000000000000E+03
(PID.TID 0000.0001) %MON land_SnwH_ave_G              =   1.5324044638372E-01
(PID.TID 0000.0001) %MON land_SnwH_ave_S              =   5.5905643130006E-01
(PID.TID 0000.0001) %MON land_SnwH_ave_T              =   0.0000000000000E+00
(PID.TID 0000.0001) %MON land_SnwH_ave_N              =   1.2392567692325E-01
(PID.TID 0000.0001) %MON land_SnwH_max_S              =   9.9999591806429E-01
(PID.TID 0000.0001) %MON land_SnwH_max_T              =   0.0000000000000E+00
(PID.TID 0000.0001) %MON land_SnwH_max_N              =   9.9999942775095E-01
(PID.TID 0000.0001) %MON land_TotEnerg_G              =  -6.3029114690834E+21
(PID.TID 0000.0001) %MON land_TotEnerg_S              =  -4.9978482978762E+21
(PID.TID 0000.0001) %MON land_TotEnerg_T              =   7.3095396618638E+21
(PID.TID 0000.0001) %MON land_TotEnerg_N              =  -8.6146028330709E+21
(PID.TID 0000.0001) %MON land_Tsrf_ave_G              =  -6.7003978011427E+00
(PID.TID 0000.0001) %MON land_Tsrf_ave_S              =  -6.1878808285307E+00
(PID.TID 0000.0001) %MON land_Tsrf_ave_T              =   1.3945541847042E+01
(PID.TID 0000.0001) %MON land_Tsrf_ave_N              =  -2.0653406494604E+01
(PID.TID 0000.0001) %MON land_Tsrf_min_S              =  -3.4291903530706E+01
(PID.TID 0000.0001) %MON land_Tsrf_min_T              =  -6.1817942580709E+00
(PID.TID 0000.0001) %MON land_Tsrf_min_N              =  -5.1697280858747E+01
(PID.TID 0000.0001) %MON land_Tsrf_max_S              =   2.5126607091745E+01
(PID.TID 0000.0001) %MON land_Tsrf_max_T              =   2.7293519692629E+01
(PID.TID 0000.0001) %MON land_Tsrf_max_N              =   1.1877021090370E+01
(PID.TID 0000.0001) %MON land_Tgr1_ave_G              =  -5.3860883980497E+00
(PID.TID 0000.0001) %MON land_Tgr1_ave_S              =  -5.7887004899059E+00
(PID.TID 0000.0001) %MON land_Tgr1_ave_T              =   1.3945541847042E+01
(PID.TID 0000.0001) %MON land_Tgr1_ave_N              =  -1.8164577632759E+01
(PID.TID 0000.0001) %MON land_Tgr1_min_S              =  -3.9083949732512E+01
(PID.TID 0000.0001) %MON land_Tgr1_min_T              =  -6.1817942580709E+00
(PID.TID 0000.0001) %MON land_Tgr1_min_N              =  -5.4910562974403E+01
(PID.TID 0000.0001) %MON land_Tgr1_max_S              =   2.5126607091745E+01
(PID.TID 0000.0001) %MON land_Tgr1_max_T              =   2.7293519692629E+01
(PID.TID 0000.0001) %MON land_Tgr1_max_N              =   1.1877021090370E+01
(PID.TID 0000.0001) %MON land_Tgr2_ave_G              =   4.2065433228207E+00
(PID.TID 0000.0001) %MON land_Tgr2_ave_S              =  -1.8730063059257E+01
(PID.TID 0000.0001) %MON land_Tgr2_ave_T              =   2.2012335760413E+01
(PID.TID 0000.0001) %MON land_Tgr2_ave_N              =  -2.4314585220597E-01
(PID.TID 0000.0001) %MON land_Tgr2_min_S              =  -6.4758825486448E+01
(PID.TID 0000.0001) %MON land_Tgr2_min_T              =  -9.7048287111381E+00
(PID.TID 0000.0001) %MON land_Tgr2_min_N              =  -4.0195543780520E+01
(PID.TID 0000.0001) %MON land_Tgr2_max_S              =   2.3360626909821E+01
(PID.TID 0000.0001) %MON land_Tgr2_max_T              =   3.1358543041658E+01
(PID.TID 0000.0001) %MON land_Tgr2_max_N              =   2.9829762979379E+01
(PID.TID 0000.0001) %MON land_grdW_ave_G              =   4.8692283621489E-01
(PID.TID 0000.0001) %MON land_grdW_ave_S              =   3.0867473171567E-01
(PID.TID 0000.0001) %MON land_grdW_ave_T              =   5.6459292905317E-01
(PID.TID 0000.0001) %MON land_grdW_ave_N              =   4.9287963147257E-01
(PID.TID 0000.0001) %MON land_grdW_min_S              =   2.6164604449146E-02
(PID.TID 0000.0001) %MON land_grdW_min_T              =   0.0000000000000E+00
(PID.TID 0000.0001) %MON land_grdW_min_N              =   0.0000000000000E+00
(PID.TID 0000.0001) // =======================================================
(PID.TID 0000.0001) // End MONITOR Land statistics
(PID.TID 0000.0001) // =======================================================
(PID.TID 0000.0001) // =======================================================
(PID.TID 0000.0001) // Begin MONITOR Therm.SeaIce statistics
(PID.TID 0000.0001) // =======================================================
(PID.TID 0000.0001) %MON thSI_time_sec                =   3.6000000000000E+03
(PID.TID 0000.0001) %MON thSI_Ice_Area_G              =   8.6439563196736E+10
(PID.TID 0000.0001) %MON thSI_Ice_Area_S              =   0.0000000000000E+00
(PID.TID 0000.0001) %MON thSI_Ice_Area_N              =   8.6439563196736E+10
(PID.TID 0000.0001) %MON thSI_IceH_ave_G              =   1.1432810492041E-01
(PID.TID 0000.0001) %MON thSI_IceH_ave_S              =   0.0000000000000E+00
(PID.TID 0000.0001) %MON thSI_IceH_ave_N              =   1.1432810492041E-01
(PID.TID 0000.0001) %MON thSI_IceH_max_S              =   0.0000000000000E+00
(PID.TID 0000.0001) %MON thSI_IceH_max_N              =   1.1802102662865E-01
(PID.TID 0000.0001) %MON thSI_SnwH_ave_G              =   0.0000000000000E+00
(PID.TID 0000.0001) %MON thSI_SnwH_ave_S              =   0.0000000000000E+00
(PID.TID 0000.0001) %MON thSI_SnwH_ave_N              =   0.0000000000000E+00
(PID.TID 0000.0001) %MON thSI_SnwH_max_S              =   0.0000000000000E+00
(PID.TID 0000.0001) %MON thSI_SnwH_max_N              =   0.0000000000000E+00
(PID.TID 0000.0001) %MON thSI_TotEnerg_G              =  -2.9994293732920E+18
(PID.TID 0000.0001) %MON thSI_Tsrf_ave_G              =  -5.8527611127421E+00
(PID.TID 0000.0001) %MON thSI_Tsrf_ave_S              =   0.0000000000000E+00
(PID.TID 0000.0001) %MON thSI_Tsrf_ave_N              =  -5.8527611127421E+00
(PID.TID 0000.0001) %MON thSI_Tsrf_min_S              =   0.0000000000000E+00
(PID.TID 0000.0001) %MON thSI_Tsrf_min_N              =  -5.9283525227540E+00
(PID.TID 0000.0001) %MON thSI_Tsrf_max_S              =   0.0000000000000E+00
(PID.TID 0000.0001) %MON thSI_Tsrf_max_N              =  -5.7414985910339E+00
(PID.TID 0000.0001) %MON thSI_Tic1_ave_G              =  -3.4491008992190E+00
(PID.TID 0000.0001) %MON thSI_Tic1_ave_S              =   0.0000000000000E+00
(PID.TID 0000.0001) %MON thSI_Tic1_ave_N              =  -3.4491008992190E+00
(PID.TID 0000.0001) %MON thSI_Tic1_min_S              =   0.0000000000000E+00
(PID.TID 0000.0001) %MON thSI_Tic1_min_N              =  -3.5083378599847E+00
(PID.TID 0000.0001) %MON thSI_Tic1_max_S              =   0.0000000000000E+00
(PID.TID 0000.0001) %MON thSI_Tic1_max_N              =  -3.3586880540903E+00
(PID.TID 0000.0001) %MON thSI_Tic2_ave_G              =  -2.0511828968686E+00
(PID.TID 0000.0001) %MON thSI_Tic2_ave_S              =   0.0000000000000E+00
(PID.TID 0000.0001) %MON thSI_Tic2_ave_N              =  -2.0511828968686E+00
(PID.TID 0000.0001) %MON thSI_Tic2_min_S              =   0.0000000000000E+00
(PID.TID 0000.0001) %MON thSI_Tic2_min_N              =  -2.1035560686418E+00
(PID.TID 0000.0001) %MON thSI_Tic2_max_S              =   0.0000000000000E+00
(PID.TID 0000.0001) %MON thSI_Tic2_max_N              =  -1.9951380677435E+00
(PID.TID 0000.0001) // =======================================================
(PID.TID 0000.0001) // End MONITOR Therm.SeaIce statistics
(PID.TID 0000.0001) // =======================================================
 cg2d: Sum(rhs),rhsMax =   7.45785655453801E-11  2.21013849399710E+04
(PID.TID 0000.0001)                    cg2d_init_res =    1.96131054069795E+04
(PID.TID 0000.0001)                       cg2d_iters =    16
(PID.TID 0000.0001)                         cg2d_res =    7.87166370697120E-11
(PID.TID 0000.0001) // =======================================================
(PID.TID 0000.0001) // Begin MONITOR dynamic field statistics
(PID.TID 0000.0001) // =======================================================
(PID.TID 0000.0001) %MON time_tsnumber                =                     9
(PID.TID 0000.0001) %MON time_secondsf                =   4.0500000000000E+03
(PID.TID 0000.0001) %MON dynstat_eta_max              =   4.0109662936598E+03
(PID.TID 0000.0001) %MON dynstat_eta_min              =  -2.5311942753469E+03
(PID.TID 0000.0001) %MON dynstat_eta_mean             =  -3.7654119799255E-16
(PID.TID 0000.0001) %MON dynstat_eta_sd               =   4.3500410899986E+02
(PID.TID 0000.0001) %MON dynstat_eta_del2             =   3.8778428631272E+01
(PID.TID 0000.0001) %MON dynstat_uvel_max             =   6.7852367003895E+00
(PID.TID 0000.0001) %MON dynstat_uvel_min             =  -7.7614256719629E+00
(PID.TID 0000.0001) %MON dynstat_uvel_mean            =  -6.9121734509917E-03
(PID.TID 0000.0001) %MON dynstat_uvel_sd              =   7.8630619286860E-01
(PID.TID 0000.0001) %MON dynstat_uvel_del2            =   2.0067845683166E-02
(PID.TID 0000.0001) %MON dynstat_vvel_max             =   8.3381842371060E+00
(PID.TID 0000.0001) %MON dynstat_vvel_min             =  -8.4358700403219E+00
(PID.TID 0000.0001) %MON dynstat_vvel_mean            =   1.2087344821110E-02
(PID.TID 0000.0001) %MON dynstat_vvel_sd              =   8.1901753253549E-01
(PID.TID 0000.0001) %MON dynstat_vvel_del2            =   2.0709548598417E-02
(PID.TID 0000.0001) %MON dynstat_wvel_max             =   1.4147586307192E-01
(PID.TID 0000.0001) %MON dynstat_wvel_min             =  -3.4691603429545E-01
(PID.TID 0000.0001) %MON dynstat_wvel_mean            =  -1.7933568544136E-03
(PID.TID 0000.0001) %MON dynstat_wvel_sd              =   1.4202284620153E-02
(PID.TID 0000.0001) %MON dynstat_wvel_del2            =   1.3150665891389E-03
(PID.TID 0000.0001) %MON dynstat_theta_max            =   4.3757194274412E+02
(PID.TID 0000.0001) %MON dynstat_theta_min            =   2.8738063593961E+02
(PID.TID 0000.0001) %MON dynstat_theta_mean           =   3.3171246873412E+02
(PID.TID 0000.0001) %MON dynstat_theta_sd             =   4.7423094048905E+01
(PID.TID 0000.0001) %MON dynstat_theta_del2           =   1.0990682585295E-02
(PID.TID 0000.0001) %MON dynstat_salt_max             =   2.8586351293195E+00
(PID.TID 0000.0001) %MON dynstat_salt_min             =  -1.7166146905056E-03
(PID.TID 0000.0001) %MON dynstat_salt_mean            =   3.4581461917990E-02
(PID.TID 0000.0001) %MON dynstat_salt_sd              =   1.4681169558190E-01
(PID.TID 0000.0001) %MON dynstat_salt_del2            =   5.1620822824151E-03
(PID.TID 0000.0001) %MON advcfl_uvel_max              =   1.1039456384531E-02
(PID.TID 0000.0001) %MON advcfl_vvel_max              =   1.1950837445690E-02
(PID.TID 0000.0001) %MON advcfl_wvel_max              =   5.6768078339256E-03
(PID.TID 0000.0001) %MON advcfl_W_hf_max              =   1.7580851434181E-02
(PID.TID 0000.0001) %MON pe_b_mean                    =  -9.9442806119816E-01
(PID.TID 0000.0001) %MON ke_max                       =   3.7645524974841E+01
(PID.TID 0000.0001) %MON ke_mean                      =   6.4083600918358E-01
(PID.TID 0000.0001) %MON ke_vol                       =   4.9523908919847E+19
(PID.TID 0000.0001) %MON vort_r_min                   =  -2.6900775738388E-05
(PID.TID 0000.0001) %MON vort_r_max                   =   1.9436158929350E-05
(PID.TID 0000.0001) %MON vort_a_mean                  =   6.7059142261951E-08
(PID.TID 0000.0001) %MON vort_a_sd                    =   8.3720488411428E-05
(PID.TID 0000.0001) %MON vort_p_mean                  =   6.8751142768613E-08
(PID.TID 0000.0001) %MON vort_p_sd                    =   9.1575216371508E-05
(PID.TID 0000.0001) %MON surfExpan_theta_mean         =   1.7458851712319E-01
(PID.TID 0000.0001) %MON surfExpan_salt_mean          =  -7.9417197297588E-05
(PID.TID 0000.0001) %MON surfExpan_Heat_mean          =  -1.4542672044268E+01
(PID.TID 0000.0001) %MON En_Budget_T2PE_mean          =   2.7379968737373E+01
(PID.TID 0000.0001) // =======================================================
(PID.TID 0000.0001) // End MONITOR dynamic field statistics
(PID.TID 0000.0001) // =======================================================
(PID.TID 0000.0001) // =======================================================
(PID.TID 0000.0001) // Begin MONITOR Land statistics
(PID.TID 0000.0001) // =======================================================
(PID.TID 0000.0001) %MON land_time_sec                =   4.0500000000000E+03
(PID.TID 0000.0001) %MON land_SnwH_ave_G              =   1.5323938353943E-01
(PID.TID 0000.0001) %MON land_SnwH_ave_S              =   5.5905549079039E-01
(PID.TID 0000.0001) %MON land_SnwH_ave_T              =   0.0000000000000E+00
(PID.TID 0000.0001) %MON land_SnwH_ave_N              =   1.2392386465820E-01
(PID.TID 0000.0001) %MON land_SnwH_max_S              =   9.9999536764698E-01
(PID.TID 0000.0001) %MON land_SnwH_max_T              =   0.0000000000000E+00
(PID.TID 0000.0001) %MON land_SnwH_max_N              =   9.9999936229048E-01
(PID.TID 0000.0001) %MON land_TotEnerg_G              =  -6.3081861820782E+21
(PID.TID 0000.0001) %MON land_TotEnerg_S              =  -4.9984258862530E+21
(PID.TID 0000.0001) %MON land_TotEnerg_T              =   7.3057237775527E+21
(PID.TID 0000.0001) %MON land_TotEnerg_N              =  -8.6154840733778E+21
(PID.TID 0000.0001) %MON land_Tsrf_ave_G              =  -6.8931289687254E+00
(PID.TID 0000.0001) %MON land_Tsrf_ave_S              =  -6.2948794419477E+00
(PID.TID 0000.0001) %MON land_Tsrf_ave_T              =   1.3507517288219E+01
(PID.TID 0000.0001) %MON land_Tsrf_ave_N              =  -2.0710149067666E+01
(PID.TID 0000.0001) %MON land_Tsrf_min_S              =  -3.4176644450543E+01
(PID.TID 0000.0001) %MON land_Tsrf_min_T              =  -5.9857468951602E+00
(PID.TID 0000.0001) %MON land_Tsrf_min_N              =  -5.1868254324969E+01
(PID.TID 0000.0001) %MON land_Tsrf_max_S              =   2.4532748298839E+01
(PID.TID 0000.0001) %MON land_Tsrf_max_T              =   2.6511251313508E+01
(PID.TID 0000.0001) %MON land_Tsrf_max_N              =   1.1588386016570E+01
(PID.TID 0000.0001) %MON land_Tgr1_ave_G              =  -5.5909953067986E+00
(PID.TID 0000.0001) %MON land_Tgr1_ave_S              =  -5.9620400848546E+00
(PID.TID 0000.0001) %MON land_Tgr1_ave_T              =   1.3507517288219E+01
(PID.TID 0000.0001) %MON land_Tgr1_ave_N              =  -1.8224055674915E+01
(PID.TID 0000.0001) %MON land_Tgr1_min_S              =  -3.9095612539145E+01
(PID.TID 0000.0001) %MON land_Tgr1_min_T              =  -5.9857468951602E+00
(PID.TID 0000.0001) %MON land_Tgr1_min_N              =  -5.4897567312744E+01
(PID.TID 0000.0001) %MON land_Tgr1_max_S              =   2.4532748298839E+01
(PID.TID 0000.0001) %MON land_Tgr1_max_T              =   2.6511251313508E+01
(PID.TID 0000.0001) %MON land_Tgr1_max_N              =   1.1588386016570E+01
(PID.TID 0000.0001) %MON land_Tgr2_ave_G              =   4.2063938116508E+00
(PID.TID 0000.0001) %MON land_Tgr2_ave_S              =  -1.8729850157944E+01
(PID.TID 0000.0001) %MON land_Tgr2_ave_T              =   2.2012195587697E+01
(PID.TID 0000.0001) %MON land_Tgr2_ave_N              =  -2.4341916372191E-01
(PID.TID 0000.0001) %MON land_Tgr2_min_S              =  -6.4758392618744E+01
(PID.TID 0000.0001) %MON land_Tgr2_min_T              =  -9.7047817185999E+00
(PID.TID 0000.0001) %MON land_Tgr2_min_N              =  -4.0195783157234E+01
(PID.TID 0000.0001) %MON land_Tgr2_max_S              =   2.3360639564010E+01
(PID.TID 0000.0001) %MON land_Tgr2_max_T              =   3.1358191357398E+01
(PID.TID 0000.0001) %MON land_Tgr2_max_N              =   2.9829344227174E+01
(PID.TID 0000.0001) %MON land_grdW_ave_G              =   4.8690999107246E-01
(PID.TID 0000.0001) %MON land_grdW_ave_S              =   3.0866425667964E-01
(PID.TID 0000.0001) %MON land_grdW_ave_T              =   5.6456021579408E-01
(PID.TID 0000.0001) %MON land_grdW_ave_N              =   4.9287928482605E-01
(PID.TID 0000.0001) %MON land_grdW_min_S              =   2.6224858965402E-02
(PID.TID 0000.0001) %MON land_grdW_min_T              =   0.0000000000000E+00
(PID.TID 0000.0001) %MON land_grdW_min_N              =   0.0000000000000E+00
(PID.TID 0000.0001) // =======================================================
(PID.TID 0000.0001) // End MONITOR Land statistics
(PID.TID 0000.0001) // =======================================================
(PID.TID 0000.0001) // =======================================================
(PID.TID 0000.0001) // Begin MONITOR Therm.SeaIce statistics
(PID.TID 0000.0001) // =======================================================
(PID.TID 0000.0001) %MON thSI_time_sec                =   4.0500000000000E+03
(PID.TID 0000.0001) %MON thSI_Ice_Area_G              =   9.6670538479947E+10
(PID.TID 0000.0001) %MON thSI_Ice_Area_S              =   0.0000000000000E+00
(PID.TID 0000.0001) %MON thSI_Ice_Area_N              =   9.6670538479947E+10
(PID.TID 0000.0001) %MON thSI_IceH_ave_G              =   1.1672652224241E-01
(PID.TID 0000.0001) %MON thSI_IceH_ave_S              =   0.0000000000000E+00
(PID.TID 0000.0001) %MON thSI_IceH_ave_N              =   1.1672652224241E-01
(PID.TID 0000.0001) %MON thSI_IceH_max_S              =   0.0000000000000E+00
(PID.TID 0000.0001) %MON thSI_IceH_max_N              =   1.2104557602728E-01
(PID.TID 0000.0001) %MON thSI_SnwH_ave_G              =   0.0000000000000E+00
(PID.TID 0000.0001) %MON thSI_SnwH_ave_S              =   0.0000000000000E+00
(PID.TID 0000.0001) %MON thSI_SnwH_ave_N              =   0.0000000000000E+00
(PID.TID 0000.0001) %MON thSI_SnwH_max_S              =   0.0000000000000E+00
(PID.TID 0000.0001) %MON thSI_SnwH_max_N              =   0.0000000000000E+00
(PID.TID 0000.0001) %MON thSI_TotEnerg_G              =  -3.4308607905874E+18
(PID.TID 0000.0001) %MON thSI_Tsrf_ave_G              =  -6.1556947926253E+00
(PID.TID 0000.0001) %MON thSI_Tsrf_ave_S              =   0.0000000000000E+00
(PID.TID 0000.0001) %MON thSI_Tsrf_ave_N              =  -6.1556947926253E+00
(PID.TID 0000.0001) %MON thSI_Tsrf_min_S              =   0.0000000000000E+00
(PID.TID 0000.0001) %MON thSI_Tsrf_min_N              =  -6.2343779454834E+00
(PID.TID 0000.0001) %MON thSI_Tsrf_max_S              =   0.0000000000000E+00
(PID.TID 0000.0001) %MON thSI_Tsrf_max_N              =  -6.0346269479252E+00
(PID.TID 0000.0001) %MON thSI_Tic1_ave_G              =  -3.7463728909276E+00
(PID.TID 0000.0001) %MON thSI_Tic1_ave_S              =   0.0000000000000E+00
(PID.TID 0000.0001) %MON thSI_Tic1_ave_N              =  -3.7463728909276E+00
(PID.TID 0000.0001) %MON thSI_Tic1_min_S              =   0.0000000000000E+00
(PID.TID 0000.0001) %MON thSI_Tic1_min_N              =  -3.8048558974899E+00
(PID.TID 0000.0001) %MON thSI_Tic1_max_S              =   0.0000000000000E+00
(PID.TID 0000.0001) %MON thSI_Tic1_max_N              =  -3.6569708546114E+00
(PID.TID 0000.0001) %MON thSI_Tic2_ave_G              =  -2.1343639849898E+00
(PID.TID 0000.0001) %MON thSI_Tic2_ave_S              =   0.0000000000000E+00
(PID.TID 0000.0001) %MON thSI_Tic2_ave_N              =  -2.1343639849898E+00
(PID.TID 0000.0001) %MON thSI_Tic2_min_S              =   0.0000000000000E+00
(PID.TID 0000.0001) %MON thSI_Tic2_min_N              =  -2.1918060690919E+00
(PID.TID 0000.0001) %MON thSI_Tic2_max_S              =   0.0000000000000E+00
(PID.TID 0000.0001) %MON thSI_Tic2_max_N              =  -2.0787153013815E+00
(PID.TID 0000.0001) // =======================================================
(PID.TID 0000.0001) // End MONITOR Therm.SeaIce statistics
(PID.TID 0000.0001) // =======================================================
 cg2d: Sum(rhs),rhsMax =  -2.51020537689328E-10  2.12792581982753E+04
(PID.TID 0000.0001)                    cg2d_init_res =    1.88162716486323E+04
(PID.TID 0000.0001)                       cg2d_iters =    16
(PID.TID 0000.0001)                         cg2d_res =    8.14196675186703E-11
(PID.TID 0000.0001) // =======================================================
(PID.TID 0000.0001) // Begin MONITOR dynamic field statistics
(PID.TID 0000.0001) // =======================================================
(PID.TID 0000.0001) %MON time_tsnumber                =                    10
(PID.TID 0000.0001) %MON time_secondsf                =   4.5000000000000E+03
(PID.TID 0000.0001) %MON dynstat_eta_max              =   3.9172372510554E+03
(PID.TID 0000.0001) %MON dynstat_eta_min              =  -2.2947078287147E+03
(PID.TID 0000.0001) %MON dynstat_eta_mean             =   2.5102746532837E-15
(PID.TID 0000.0001) %MON dynstat_eta_sd               =   4.5921152699990E+02
(PID.TID 0000.0001) %MON dynstat_eta_del2             =   3.8103882081579E+01
(PID.TID 0000.0001) %MON dynstat_uvel_max             =   6.7833342430825E+00
(PID.TID 0000.0001) %MON dynstat_uvel_min             =  -7.2511255155623E+00
(PID.TID 0000.0001) %MON dynstat_uvel_mean            =  -7.5073551873624E-03
(PID.TID 0000.0001) %MON dynstat_uvel_sd              =   7.8908023329104E-01
(PID.TID 0000.0001) %MON dynstat_uvel_del2            =   2.0004695888193E-02
(PID.TID 0000.0001) %MON dynstat_vvel_max             =   8.5706352234635E+00
(PID.TID 0000.0001) %MON dynstat_vvel_min             =  -8.3882647063516E+00
(PID.TID 0000.0001) %MON dynstat_vvel_mean            =   1.3752240177289E-02
(PID.TID 0000.0001) %MON dynstat_vvel_sd              =   8.4002768835405E-01
(PID.TID 0000.0001) %MON dynstat_vvel_del2            =   2.0805504192879E-02
(PID.TID 0000.0001) %MON dynstat_wvel_max             =   1.6037813183983E-01
(PID.TID 0000.0001) %MON dynstat_wvel_min             =  -3.3658581676160E-01
(PID.TID 0000.0001) %MON dynstat_wvel_mean            =  -1.6242574702737E-03
(PID.TID 0000.0001) %MON dynstat_wvel_sd              =   1.3402305982774E-02
(PID.TID 0000.0001) %MON dynstat_wvel_del2            =   1.3308292985609E-03
(PID.TID 0000.0001) %MON dynstat_theta_max            =   4.3759284148704E+02
(PID.TID 0000.0001) %MON dynstat_theta_min            =   2.8713761156739E+02
(PID.TID 0000.0001) %MON dynstat_theta_mean           =   3.3171121701707E+02
(PID.TID 0000.0001) %MON dynstat_theta_sd             =   4.7424656470073E+01
(PID.TID 0000.0001) %MON dynstat_theta_del2           =   1.1979245144477E-02
(PID.TID 0000.0001) %MON dynstat_salt_max             =   3.0396865571232E+00
(PID.TID 0000.0001) %MON dynstat_salt_min             =  -1.8832949832506E-03
(PID.TID 0000.0001) %MON dynstat_salt_mean            =   3.8235688250902E-02
(PID.TID 0000.0001) %MON dynstat_salt_sd              =   1.6189821119646E-01
(PID.TID 0000.0001) %MON dynstat_salt_del2            =   5.5908614842083E-03
(PID.TID 0000.0001) %MON advcfl_uvel_max              =   1.0313631444926E-02
(PID.TID 0000.0001) %MON advcfl_vvel_max              =   1.2050354339252E-02
(PID.TID 0000.0001) %MON advcfl_wvel_max              =   5.5077679106444E-03
(PID.TID 0000.0001) %MON advcfl_W_hf_max              =   1.6856428106344E-02
(PID.TID 0000.0001) %MON pe_b_mean                    =  -1.0337057358839E+00
(PID.TID 0000.0001) %MON ke_max                       =   3.6056328064980E+01
(PID.TID 0000.0001) %MON ke_mean                      =   6.6035985038640E-01
(PID.TID 0000.0001) %MON ke_vol                       =   4.9523908919847E+19
(PID.TID 0000.0001) %MON vort_r_min                   =  -2.9101664196610E-05
(PID.TID 0000.0001) %MON vort_r_max                   =   1.9998646826540E-05
(PID.TID 0000.0001) %MON vort_a_mean                  =   6.7059142262033E-08
(PID.TID 0000.0001) %MON vort_a_sd                    =   8.3722870031153E-05
(PID.TID 0000.0001) %MON vort_p_mean                  =   6.8751143401301E-08
(PID.TID 0000.0001) %MON vort_p_sd                    =   9.1595158309348E-05
(PID.TID 0000.0001) %MON surfExpan_theta_mean         =   1.5792524337780E-01
(PID.TID 0000.0001) %MON surfExpan_salt_mean          =  -1.0218185782430E-04
(PID.TID 0000.0001) %MON surfExpan_Heat_mean          =  -1.3219870784245E+01
(PID.TID 0000.0001) %MON En_Budget_T2PE_mean          =   2.4823871044894E+01
(PID.TID 0000.0001) // =======================================================
(PID.TID 0000.0001) // End MONITOR dynamic field statistics
(PID.TID 0000.0001) // =======================================================
(PID.TID 0000.0001) // =======================================================
(PID.TID 0000.0001) // Begin MONITOR Land statistics
(PID.TID 0000.0001) // =======================================================
(PID.TID 0000.0001) %MON land_time_sec                =   4.5000000000000E+03
(PID.TID 0000.0001) %MON land_SnwH_ave_G              =   1.5323833878000E-01
(PID.TID 0000.0001) %MON land_SnwH_ave_S              =   5.5905454427628E-01
(PID.TID 0000.0001) %MON land_SnwH_ave_T              =   0.0000000000000E+00
(PID.TID 0000.0001) %MON land_SnwH_ave_N              =   1.2392209036896E-01
(PID.TID 0000.0001) %MON land_SnwH_max_S              =   9.9999481053007E-01
(PID.TID 0000.0001) %MON land_SnwH_max_T              =   0.0000000000000E+00
(PID.TID 0000.0001) %MON land_SnwH_max_N              =   9.9999929752940E-01
(PID.TID 0000.0001) %MON land_TotEnerg_G              =  -6.3129785273193E+21
(PID.TID 0000.0001) %MON land_TotEnerg_S              =  -4.9989390374331E+21
(PID.TID 0000.0001) %MON land_TotEnerg_T              =   7.3023011763777E+21
(PID.TID 0000.0001) %MON land_TotEnerg_N              =  -8.6163406662639E+21
(PID.TID 0000.0001) %MON land_Tsrf_ave_G              =  -7.0692055909332E+00
(PID.TID 0000.0001) %MON land_Tsrf_ave_S              =  -6.4114418929171E+00
(PID.TID 0000.0001) %MON land_Tsrf_ave_T              =   1.3114554504900E+01
(PID.TID 0000.0001) %MON land_Tsrf_ave_N              =  -2.0760701524521E+01
(PID.TID 0000.0001) %MON land_Tsrf_min_S              =  -3.4086955298651E+01
(PID.TID 0000.0001) %MON land_Tsrf_min_T              =  -5.7964670342997E+00
(PID.TID 0000.0001) %MON land_Tsrf_min_N              =  -5.1928263782622E+01
(PID.TID 0000.0001) %MON land_Tsrf_max_S              =   2.4001597097396E+01
(PID.TID 0000.0001) %MON land_Tsrf_max_T              =   2.5803926956961E+01
(PID.TID 0000.0001) %MON land_Tsrf_max_N              =   1.1317194997907E+01
(PID.TID 0000.0001) %MON land_Tgr1_ave_G              =  -5.7761605127589E+00
(PID.TID 0000.0001) %MON land_Tgr1_ave_S              =  -6.1169658636979E+00
(PID.TID 0000.0001) %MON land_Tgr1_ave_T              =   1.3114554504900E+01
(PID.TID 0000.0001) %MON land_Tgr1_ave_N              =  -1.8280269255843E+01
(PID.TID 0000.0001) %MON land_Tgr1_min_S              =  -3.9107107885467E+01
(PID.TID 0000.0001) %MON land_Tgr1_min_T              =  -5.7964670342997E+00
(PID.TID 0000.0001) %MON land_Tgr1_min_N              =  -5.4884651543871E+01
(PID.TID 0000.0001) %MON land_Tgr1_max_S              =   2.4001597097396E+01
(PID.TID 0000.0001) %MON land_Tgr1_max_T              =   2.5803926956961E+01
(PID.TID 0000.0001) %MON land_Tgr1_max_N              =   1.1317194997907E+01
(PID.TID 0000.0001) %MON land_Tgr2_ave_G              =   4.2062413196277E+00
(PID.TID 0000.0001) %MON land_Tgr2_ave_S              =  -1.8729639720142E+01
(PID.TID 0000.0001) %MON land_Tgr2_ave_T              =   2.2012049243965E+01
(PID.TID 0000.0001) %MON land_Tgr2_ave_N              =  -2.4369349361648E-01
(PID.TID 0000.0001) %MON land_Tgr2_min_S              =  -6.4757959970221E+01
(PID.TID 0000.0001) %MON land_Tgr2_min_T              =  -9.7047323350501E+00
(PID.TID 0000.0001) %MON land_Tgr2_min_N              =  -4.0196022287733E+01
(PID.TID 0000.0001) %MON land_Tgr2_max_S              =   2.3360642691552E+01
(PID.TID 0000.0001) %MON land_Tgr2_max_T              =   3.1357831374195E+01
(PID.TID 0000.0001) %MON land_Tgr2_max_N              =   2.9828916732713E+01
(PID.TID 0000.0001) %MON land_grdW_ave_G              =   4.8689775319015E-01
(PID.TID 0000.0001) %MON land_grdW_ave_S              =   3.0865410057505E-01
(PID.TID 0000.0001) %MON land_grdW_ave_T              =   5.6452915452838E-01
(PID.TID 0000.0001) %MON land_grdW_ave_N              =   4.9287894132959E-01
(PID.TID 0000.0001) %MON land_grdW_min_S              =   2.6289426725380E-02
(PID.TID 0000.0001) %MON land_grdW_min_T              =   0.0000000000000E+00
(PID.TID 0000.0001) %MON land_grdW_min_N              =   0.0000000000000E+00
(PID.TID 0000.0001) // =======================================================
(PID.TID 0000.0001) // End MONITOR Land statistics
(PID.TID 0000.0001) // =======================================================
(PID.TID 0000.0001) // =======================================================
(PID.TID 0000.0001) // Begin MONITOR Therm.SeaIce statistics
(PID.TID 0000.0001) // =======================================================
(PID.TID 0000.0001) %MON thSI_time_sec                =   4.5000000000000E+03
(PID.TID 0000.0001) %MON thSI_Ice_Area_G              =   1.0648079562139E+11
(PID.TID 0000.0001) %MON thSI_Ice_Area_S              =   0.0000000000000E+00
(PID.TID 0000.0001) %MON thSI_Ice_Area_N              =   1.0648079562139E+11
(PID.TID 0000.0001) %MON thSI_IceH_ave_G              =   1.1912883224170E-01
(PID.TID 0000.0001) %MON thSI_IceH_ave_S              =   0.0000000000000E+00
(PID.TID 0000.0001) %MON thSI_IceH_ave_N              =   1.1912883224170E-01
(PID.TID 0000.0001) %MON thSI_IceH_max_S              =   0.0000000000000E+00
(PID.TID 0000.0001) %MON thSI_IceH_max_N              =   1.2407665017595E-01
(PID.TID 0000.0001) %MON thSI_SnwH_ave_G              =   0.0000000000000E+00
(PID.TID 0000.0001) %MON thSI_SnwH_ave_S              =   0.0000000000000E+00
(PID.TID 0000.0001) %MON thSI_SnwH_ave_N              =   0.0000000000000E+00
(PID.TID 0000.0001) %MON thSI_SnwH_max_S              =   0.0000000000000E+00
(PID.TID 0000.0001) %MON thSI_SnwH_max_N              =   0.0000000000000E+00
(PID.TID 0000.0001) %MON thSI_TotEnerg_G              =  -3.8629416593816E+18
(PID.TID 0000.0001) %MON thSI_Tsrf_ave_G              =  -6.4424207187074E+00
(PID.TID 0000.0001) %MON thSI_Tsrf_ave_S              =   0.0000000000000E+00
(PID.TID 0000.0001) %MON thSI_Tsrf_ave_N              =  -6.4424207187074E+00
(PID.TID 0000.0001) %MON thSI_Tsrf_min_S              =   0.0000000000000E+00
(PID.TID 0000.0001) %MON thSI_Tsrf_min_N              =  -6.5232575317499E+00
(PID.TID 0000.0001) %MON thSI_Tsrf_max_S              =   0.0000000000000E+00
(PID.TID 0000.0001) %MON thSI_Tsrf_max_N              =  -6.3133952769820E+00
(PID.TID 0000.0001) %MON thSI_Tic1_ave_G              =  -4.0267993314232E+00
(PID.TID 0000.0001) %MON thSI_Tic1_ave_S              =   0.0000000000000E+00
(PID.TID 0000.0001) %MON thSI_Tic1_ave_N              =  -4.0267993314232E+00
(PID.TID 0000.0001) %MON thSI_Tic1_min_S              =   0.0000000000000E+00
(PID.TID 0000.0001) %MON thSI_Tic1_min_N              =  -4.0906200333614E+00
(PID.TID 0000.0001) %MON thSI_Tic1_max_S              =   0.0000000000000E+00
(PID.TID 0000.0001) %MON thSI_Tic1_max_N              =  -3.9398538491158E+00
(PID.TID 0000.0001) %MON thSI_Tic2_ave_G              =  -2.2155972141395E+00
(PID.TID 0000.0001) %MON thSI_Tic2_ave_S              =   0.0000000000000E+00
(PID.TID 0000.0001) %MON thSI_Tic2_ave_N              =  -2.2155972141395E+00
(PID.TID 0000.0001) %MON thSI_Tic2_min_S              =   0.0000000000000E+00
(PID.TID 0000.0001) %MON thSI_Tic2_min_N              =  -2.2784161259217E+00
(PID.TID 0000.0001) %MON thSI_Tic2_max_S              =   0.0000000000000E+00
(PID.TID 0000.0001) %MON thSI_Tic2_max_N              =  -2.1596237213017E+00
(PID.TID 0000.0001) // =======================================================
(PID.TID 0000.0001) // End MONITOR Therm.SeaIce statistics
(PID.TID 0000.0001) // =======================================================
 cg2d: Sum(rhs),rhsMax =   3.45607986673713E-11  2.03683556385958E+04
(PID.TID 0000.0001)                    cg2d_init_res =    1.79042787032144E+04
(PID.TID 0000.0001)                       cg2d_iters =    16
(PID.TID 0000.0001)                         cg2d_res =    8.52418178720298E-11
(PID.TID 0000.0001) // =======================================================
(PID.TID 0000.0001) // Begin MONITOR dynamic field statistics
(PID.TID 0000.0001) // =======================================================
(PID.TID 0000.0001) %MON time_tsnumber                =                    11
(PID.TID 0000.0001) %MON time_secondsf                =   4.9500000000000E+03
(PID.TID 0000.0001) %MON dynstat_eta_max              =   3.8574525160131E+03
(PID.TID 0000.0001) %MON dynstat_eta_min              =  -2.0311121728828E+03
(PID.TID 0000.0001) %MON dynstat_eta_mean             =  -1.0944797488317E-14
(PID.TID 0000.0001) %MON dynstat_eta_sd               =   4.8117357530418E+02
(PID.TID 0000.0001) %MON dynstat_eta_del2             =   3.7826087936324E+01
(PID.TID 0000.0001) %MON dynstat_uvel_max             =   6.7159846466506E+00
(PID.TID 0000.0001) %MON dynstat_uvel_min             =  -6.6372391400731E+00
(PID.TID 0000.0001) %MON dynstat_uvel_mean            =  -8.0758659465604E-03
(PID.TID 0000.0001) %MON dynstat_uvel_sd              =   7.8827068945480E-01
(PID.TID 0000.0001) %MON dynstat_uvel_del2            =   1.9948603481500E-02
(PID.TID 0000.0001) %MON dynstat_vvel_max             =   8.5025778299737E+00
(PID.TID 0000.0001) %MON dynstat_vvel_min             =  -8.1313694797571E+00
(PID.TID 0000.0001) %MON dynstat_vvel_mean            =   1.5435888291033E-02
(PID.TID 0000.0001) %MON dynstat_vvel_sd              =   8.5124869225737E-01
(PID.TID 0000.0001) %MON dynstat_vvel_del2            =   2.0633465003922E-02
(PID.TID 0000.0001) %MON dynstat_wvel_max             =   1.7183974370926E-01
(PID.TID 0000.0001) %MON dynstat_wvel_min             =  -3.2129969554246E-01
(PID.TID 0000.0001) %MON dynstat_wvel_mean            =  -1.4619265773179E-03
(PID.TID 0000.0001) %MON dynstat_wvel_sd              =   1.2571574449299E-02
(PID.TID 0000.0001) %MON dynstat_wvel_del2            =   1.3296212447393E-03
(PID.TID 0000.0001) %MON dynstat_theta_max            =   4.3764977701516E+02
(PID.TID 0000.0001) %MON dynstat_theta_min            =   2.8689485266706E+02
(PID.TID 0000.0001) %MON dynstat_theta_mean           =   3.3170987164592E+02
(PID.TID 0000.0001) %MON dynstat_theta_sd             =   4.7426296113079E+01
(PID.TID 0000.0001) %MON dynstat_theta_del2           =   1.3012874923308E-02
(PID.TID 0000.0001) %MON dynstat_salt_max             =   3.2045493452309E+00
(PID.TID 0000.0001) %MON dynstat_salt_min             =  -2.2327243220317E-03
(PID.TID 0000.0001) %MON dynstat_salt_mean            =   4.1863103078721E-02
(PID.TID 0000.0001) %MON dynstat_salt_sd              =   1.7662598417845E-01
(PID.TID 0000.0001) %MON dynstat_salt_del2            =   6.0065702638336E-03
(PID.TID 0000.0001) %MON advcfl_uvel_max              =   9.5443633726770E-03
(PID.TID 0000.0001) %MON advcfl_vvel_max              =   1.1954665316727E-02
(PID.TID 0000.0001) %MON advcfl_wvel_max              =   5.2576313816038E-03
(PID.TID 0000.0001) %MON advcfl_W_hf_max              =   1.5929637701409E-02
(PID.TID 0000.0001) %MON pe_b_mean                    =  -1.0603966396324E+00
(PID.TID 0000.0001) %MON ke_max                       =   3.6986304341796E+01
(PID.TID 0000.0001) %MON ke_mean                      =   6.6918650364064E-01
(PID.TID 0000.0001) %MON ke_vol                       =   4.9523908919847E+19
(PID.TID 0000.0001) %MON vort_r_min                   =  -3.1197327785910E-05
(PID.TID 0000.0001) %MON vort_r_max                   =   1.9778945792751E-05
(PID.TID 0000.0001) %MON vort_a_mean                  =   6.7059142261885E-08
(PID.TID 0000.0001) %MON vort_a_sd                    =   8.3725320009484E-05
(PID.TID 0000.0001) %MON vort_p_mean                  =   6.8751144302894E-08
(PID.TID 0000.0001) %MON vort_p_sd                    =   9.1612208519353E-05
(PID.TID 0000.0001) %MON surfExpan_theta_mean         =   1.4176330104749E-01
(PID.TID 0000.0001) %MON surfExpan_salt_mean          =  -1.2762701724495E-04
(PID.TID 0000.0001) %MON surfExpan_Heat_mean          =  -1.1938002970405E+01
(PID.TID 0000.0001) %MON En_Budget_T2PE_mean          =   2.2350451160186E+01
(PID.TID 0000.0001) // =======================================================
(PID.TID 0000.0001) // End MONITOR dynamic field statistics
(PID.TID 0000.0001) // =======================================================
(PID.TID 0000.0001) // =======================================================
(PID.TID 0000.0001) // Begin MONITOR Land statistics
(PID.TID 0000.0001) // =======================================================
(PID.TID 0000.0001) %MON land_time_sec                =   4.9500000000000E+03
(PID.TID 0000.0001) %MON land_SnwH_ave_G              =   1.5323731188170E-01
(PID.TID 0000.0001) %MON land_SnwH_ave_S              =   5.5905359915861E-01
(PID.TID 0000.0001) %MON land_SnwH_ave_T              =   0.0000000000000E+00
(PID.TID 0000.0001) %MON land_SnwH_ave_N              =   1.2392035120904E-01
(PID.TID 0000.0001) %MON land_SnwH_max_S              =   9.9999425130233E-01
(PID.TID 0000.0001) %MON land_SnwH_max_T              =   0.0000000000000E+00
(PID.TID 0000.0001) %MON land_SnwH_max_N              =   9.9999923289474E-01
(PID.TID 0000.0001) %MON land_TotEnerg_G              =  -6.3173381205490E+21
(PID.TID 0000.0001) %MON land_TotEnerg_S              =  -4.9993952554300E+21
(PID.TID 0000.0001) %MON land_TotEnerg_T              =   7.2992312156596E+21
(PID.TID 0000.0001) %MON land_TotEnerg_N              =  -8.6171740807786E+21
(PID.TID 0000.0001) %MON land_Tsrf_ave_G              =  -7.2311124760806E+00
(PID.TID 0000.0001) %MON land_Tsrf_ave_S              =  -6.5360264361920E+00
(PID.TID 0000.0001) %MON land_Tsrf_ave_T              =   1.2761692758807E+01
(PID.TID 0000.0001) %MON land_Tsrf_ave_N              =  -2.0807201509710E+01
(PID.TID 0000.0001) %MON land_Tsrf_min_S              =  -3.4033604178304E+01
(PID.TID 0000.0001) %MON land_Tsrf_min_T              =  -5.6136278197239E+00
(PID.TID 0000.0001) %MON land_Tsrf_min_N              =  -5.1940858935848E+01
(PID.TID 0000.0001) %MON land_Tsrf_max_S              =   2.3526471086640E+01
(PID.TID 0000.0001) %MON land_Tsrf_max_T              =   2.5164103126561E+01
(PID.TID 0000.0001) %MON land_Tsrf_max_N              =   1.1056664889908E+01
(PID.TID 0000.0001) %MON land_Tgr1_ave_G              =  -5.9438517180693E+00
(PID.TID 0000.0001) %MON land_Tgr1_ave_S              =  -6.2554414240757E+00
(PID.TID 0000.0001) %MON land_Tgr1_ave_T              =   1.2761692758807E+01
(PID.TID 0000.0001) %MON land_Tgr1_ave_N              =  -1.8333786396994E+01
(PID.TID 0000.0001) %MON land_Tgr1_min_S              =  -3.9118451207329E+01
(PID.TID 0000.0001) %MON land_Tgr1_min_T              =  -5.6136278197239E+00
(PID.TID 0000.0001) %MON land_Tgr1_min_N              =  -5.4871769369671E+01
(PID.TID 0000.0001) %MON land_Tgr1_max_S              =   2.3526471086640E+01
(PID.TID 0000.0001) %MON land_Tgr1_max_T              =   2.5164103126561E+01
(PID.TID 0000.0001) %MON land_Tgr1_max_N              =   1.1056664889908E+01
(PID.TID 0000.0001) %MON land_Tgr2_ave_G              =   4.2060861354236E+00
(PID.TID 0000.0001) %MON land_Tgr2_ave_S              =  -1.8729431483138E+01
(PID.TID 0000.0001) %MON land_Tgr2_ave_T              =   2.2011897382333E+01
(PID.TID 0000.0001) %MON land_Tgr2_ave_N              =  -2.4396878816244E-01
(PID.TID 0000.0001) %MON land_Tgr2_min_S              =  -6.4757527539659E+01
(PID.TID 0000.0001) %MON land_Tgr2_min_T              =  -9.7046806419245E+00
(PID.TID 0000.0001) %MON land_Tgr2_min_N              =  -4.0196261172683E+01
(PID.TID 0000.0001) %MON land_Tgr2_max_S              =   2.3360637289253E+01
(PID.TID 0000.0001) %MON land_Tgr2_max_T              =   3.1357463818086E+01
(PID.TID 0000.0001) %MON land_Tgr2_max_N              =   2.9828480801281E+01
(PID.TID 0000.0001) %MON land_grdW_ave_G              =   4.8688607375271E-01
(PID.TID 0000.0001) %MON land_grdW_ave_S              =   3.0864422721644E-01
(PID.TID 0000.0001) %MON land_grdW_ave_T              =   5.6449961947743E-01
(PID.TID 0000.0001) %MON land_grdW_ave_N              =   4.9287859946476E-01
(PID.TID 0000.0001) %MON land_grdW_min_S              =   2.6357738881406E-02
(PID.TID 0000.0001) %MON land_grdW_min_T              =   0.0000000000000E+00
(PID.TID 0000.0001) %MON land_grdW_min_N              =   0.0000000000000E+00
(PID.TID 0000.0001) // =======================================================
(PID.TID 0000.0001) // End MONITOR Land statistics
(PID.TID 0000.0001) // =======================================================
(PID.TID 0000.0001) // =======================================================
(PID.TID 0000.0001) // Begin MONITOR Therm.SeaIce statistics
(PID.TID 0000.0001) // =======================================================
(PID.TID 0000.0001) %MON thSI_time_sec                =   4.9500000000000E+03
(PID.TID 0000.0001) %MON thSI_Ice_Area_G              =   1.1589732477297E+11
(PID.TID 0000.0001) %MON thSI_Ice_Area_S              =   0.0000000000000E+00
(PID.TID 0000.0001) %MON thSI_Ice_Area_N              =   1.1589732477297E+11
(PID.TID 0000.0001) %MON thSI_IceH_ave_G              =   1.2153462003990E-01
(PID.TID 0000.0001) %MON thSI_IceH_ave_S              =   0.0000000000000E+00
(PID.TID 0000.0001) %MON thSI_IceH_ave_N              =   1.2153462003990E-01
(PID.TID 0000.0001) %MON thSI_IceH_max_S              =   0.0000000000000E+00
(PID.TID 0000.0001) %MON thSI_IceH_max_N              =   1.2711360768156E-01
(PID.TID 0000.0001) %MON thSI_SnwH_ave_G              =   0.0000000000000E+00
(PID.TID 0000.0001) %MON thSI_SnwH_ave_S              =   0.0000000000000E+00
(PID.TID 0000.0001) %MON thSI_SnwH_ave_N              =   0.0000000000000E+00
(PID.TID 0000.0001) %MON thSI_SnwH_max_S              =   0.0000000000000E+00
(PID.TID 0000.0001) %MON thSI_SnwH_max_N              =   0.0000000000000E+00
(PID.TID 0000.0001) %MON thSI_TotEnerg_G              =  -4.2956209306863E+18
(PID.TID 0000.0001) %MON thSI_Tsrf_ave_G              =  -6.7114782323770E+00
(PID.TID 0000.0001) %MON thSI_Tsrf_ave_S              =   0.0000000000000E+00
(PID.TID 0000.0001) %MON thSI_Tsrf_ave_N              =  -6.7114782323770E+00
(PID.TID 0000.0001) %MON thSI_Tsrf_min_S              =   0.0000000000000E+00
(PID.TID 0000.0001) %MON thSI_Tsrf_min_N              =  -6.7941023254707E+00
(PID.TID 0000.0001) %MON thSI_Tsrf_max_S              =   0.0000000000000E+00
(PID.TID 0000.0001) %MON thSI_Tsrf_max_N              =  -6.5754356411064E+00
(PID.TID 0000.0001) %MON thSI_Tic1_ave_G              =  -4.2887563597709E+00
(PID.TID 0000.0001) %MON thSI_Tic1_ave_S              =   0.0000000000000E+00
(PID.TID 0000.0001) %MON thSI_Tic1_ave_N              =  -4.2887563597709E+00
(PID.TID 0000.0001) %MON thSI_Tic1_min_S              =   0.0000000000000E+00
(PID.TID 0000.0001) %MON thSI_Tic1_min_N              =  -4.3578192660553E+00
(PID.TID 0000.0001) %MON thSI_Tic1_max_S              =   0.0000000000000E+00
(PID.TID 0000.0001) %MON thSI_Tic1_max_N              =  -4.2051964197424E+00
(PID.TID 0000.0001) %MON thSI_Tic2_ave_G              =  -2.2936505345381E+00
(PID.TID 0000.0001) %MON thSI_Tic2_ave_S              =   0.0000000000000E+00
(PID.TID 0000.0001) %MON thSI_Tic2_ave_N              =  -2.2936505345381E+00
(PID.TID 0000.0001) %MON thSI_Tic2_min_S              =   0.0000000000000E+00
(PID.TID 0000.0001) %MON thSI_Tic2_min_N              =  -2.3619670697393E+00
(PID.TID 0000.0001) %MON thSI_Tic2_max_S              =   0.0000000000000E+00
(PID.TID 0000.0001) %MON thSI_Tic2_max_N              =  -2.2331090975233E+00
(PID.TID 0000.0001) // =======================================================
(PID.TID 0000.0001) // End MONITOR Therm.SeaIce statistics
(PID.TID 0000.0001) // =======================================================
 cg2d: Sum(rhs),rhsMax =  -5.63886715099216E-11  2.18522471541486E+04
(PID.TID 0000.0001)                    cg2d_init_res =    1.68505361678319E+04
(PID.TID 0000.0001)                       cg2d_iters =    16
(PID.TID 0000.0001)                         cg2d_res =    9.07009257585397E-11
(PID.TID 0000.0001) // =======================================================
(PID.TID 0000.0001) // Begin MONITOR dynamic field statistics
(PID.TID 0000.0001) // =======================================================
(PID.TID 0000.0001) %MON time_tsnumber                =                    12
(PID.TID 0000.0001) %MON time_secondsf                =   5.4000000000000E+03
(PID.TID 0000.0001) %MON dynstat_eta_max              =   4.1647220532833E+03
(PID.TID 0000.0001) %MON dynstat_eta_min              =  -1.8286190147605E+03
(PID.TID 0000.0001) %MON dynstat_eta_mean             =   6.9283580430630E-15
(PID.TID 0000.0001) %MON dynstat_eta_sd               =   5.0090264975769E+02
(PID.TID 0000.0001) %MON dynstat_eta_del2             =   3.7768286220533E+01
(PID.TID 0000.0001) %MON dynstat_uvel_max             =   6.4442396578128E+00
(PID.TID 0000.0001) %MON dynstat_uvel_min             =  -6.1519918139197E+00
(PID.TID 0000.0001) %MON dynstat_uvel_mean            =  -8.6029829460444E-03
(PID.TID 0000.0001) %MON dynstat_uvel_sd              =   7.8606226562938E-01
(PID.TID 0000.0001) %MON dynstat_uvel_del2            =   1.9845469203954E-02
(PID.TID 0000.0001) %MON dynstat_vvel_max             =   8.1703506654635E+00
(PID.TID 0000.0001) %MON dynstat_vvel_min             =  -8.0055145548458E+00
(PID.TID 0000.0001) %MON dynstat_vvel_mean            =   1.7121488139609E-02
(PID.TID 0000.0001) %MON dynstat_vvel_sd              =   8.5402180307920E-01
(PID.TID 0000.0001) %MON dynstat_vvel_del2            =   2.0361782014821E-02
(PID.TID 0000.0001) %MON dynstat_wvel_max             =   1.6313912018283E-01
(PID.TID 0000.0001) %MON dynstat_wvel_min             =  -3.0027363211720E-01
(PID.TID 0000.0001) %MON dynstat_wvel_mean            =  -1.3024530588649E-03
(PID.TID 0000.0001) %MON dynstat_wvel_sd              =   1.1675968225527E-02
(PID.TID 0000.0001) %MON dynstat_wvel_del2            =   1.3150280492826E-03
(PID.TID 0000.0001) %MON dynstat_theta_max            =   4.3770052034522E+02
(PID.TID 0000.0001) %MON dynstat_theta_min            =   2.8665292758264E+02
(PID.TID 0000.0001) %MON dynstat_theta_mean           =   3.3170844766150E+02
(PID.TID 0000.0001) %MON dynstat_theta_sd             =   4.7428000935869E+01
(PID.TID 0000.0001) %MON dynstat_theta_del2           =   1.4072755169506E-02
(PID.TID 0000.0001) %MON dynstat_salt_max             =   3.3549954281462E+00
(PID.TID 0000.0001) %MON dynstat_salt_min             =  -1.9557180939967E-03
(PID.TID 0000.0001) %MON dynstat_salt_mean            =   4.5465272262119E-02
(PID.TID 0000.0001) %MON dynstat_salt_sd              =   1.9092271875299E-01
(PID.TID 0000.0001) %MON dynstat_salt_del2            =   6.4054950439766E-03
(PID.TID 0000.0001) %MON advcfl_uvel_max              =   9.0447594903599E-03
(PID.TID 0000.0001) %MON advcfl_vvel_max              =   1.1487552325788E-02
(PID.TID 0000.0001) %MON advcfl_wvel_max              =   4.9135685255542E-03
(PID.TID 0000.0001) %MON advcfl_W_hf_max              =   1.4770729460337E-02
(PID.TID 0000.0001) %MON pe_b_mean                    =  -1.0772336203102E+00
(PID.TID 0000.0001) %MON ke_max                       =   3.6757207952290E+01
(PID.TID 0000.0001) %MON ke_mean                      =   6.6983928610627E-01
(PID.TID 0000.0001) %MON ke_vol                       =   4.9523908919847E+19
(PID.TID 0000.0001) %MON vort_r_min                   =  -3.1890255850927E-05
(PID.TID 0000.0001) %MON vort_r_max                   =   1.8925921707038E-05
(PID.TID 0000.0001) %MON vort_a_mean                  =   6.7059142261934E-08
(PID.TID 0000.0001) %MON vort_a_sd                    =   8.3727822676435E-05
(PID.TID 0000.0001) %MON vort_p_mean                  =   6.8751145455742E-08
(PID.TID 0000.0001) %MON vort_p_sd                    =   9.1626520539927E-05
(PID.TID 0000.0001) %MON surfExpan_theta_mean         =   1.2576926020561E-01
(PID.TID 0000.0001) %MON surfExpan_salt_mean          =  -1.5581094877536E-04
(PID.TID 0000.0001) %MON surfExpan_Heat_mean          =  -1.0668112948219E+01
(PID.TID 0000.0001) %MON En_Budget_T2PE_mean          =   1.9905014016802E+01
(PID.TID 0000.0001) // =======================================================
(PID.TID 0000.0001) // End MONITOR dynamic field statistics
(PID.TID 0000.0001) // =======================================================
(PID.TID 0000.0001) // =======================================================
(PID.TID 0000.0001) // Begin MONITOR Land statistics
(PID.TID 0000.0001) // =======================================================
(PID.TID 0000.0001) %MON land_time_sec                =   5.4000000000000E+03
(PID.TID 0000.0001) %MON land_SnwH_ave_G              =   1.5323630248955E-01
(PID.TID 0000.0001) %MON land_SnwH_ave_S              =   5.5905266158140E-01
(PID.TID 0000.0001) %MON land_SnwH_ave_T              =   0.0000000000000E+00
(PID.TID 0000.0001) %MON land_SnwH_ave_N              =   1.2391864447815E-01
(PID.TID 0000.0001) %MON land_SnwH_max_S              =   9.9999369371389E-01
(PID.TID 0000.0001) %MON land_SnwH_max_T              =   0.0000000000000E+00
(PID.TID 0000.0001) %MON land_SnwH_max_N              =   9.9999916832015E-01
(PID.TID 0000.0001) %MON land_TotEnerg_G              =  -6.3213084669156E+21
(PID.TID 0000.0001) %MON land_TotEnerg_S              =  -4.9998009485082E+21
(PID.TID 0000.0001) %MON land_TotEnerg_T              =   7.2964779742657E+21
(PID.TID 0000.0001) %MON land_TotEnerg_N              =  -8.6179854926731E+21
(PID.TID 0000.0001) %MON land_Tsrf_ave_G              =  -7.3804729902220E+00
(PID.TID 0000.0001) %MON land_Tsrf_ave_S              =  -6.6653757314591E+00
(PID.TID 0000.0001) %MON land_Tsrf_ave_T              =   1.2444901797357E+01
(PID.TID 0000.0001) %MON land_Tsrf_ave_N              =  -2.0851248412656E+01
(PID.TID 0000.0001) %MON land_Tsrf_min_S              =  -3.4010342824901E+01
(PID.TID 0000.0001) %MON land_Tsrf_min_T              =  -5.4369171430398E+00
(PID.TID 0000.0001) %MON land_Tsrf_min_N              =  -5.1948500930779E+01
(PID.TID 0000.0001) %MON land_Tsrf_max_S              =   2.3101487385395E+01
(PID.TID 0000.0001) %MON land_Tsrf_max_T              =   2.4585178299655E+01
(PID.TID 0000.0001) %MON land_Tsrf_max_N              =   1.0806817044048E+01
(PID.TID 0000.0001) %MON land_Tgr1_ave_G              =  -6.0959697674238E+00
(PID.TID 0000.0001) %MON land_Tgr1_ave_S              =  -6.3792875162049E+00
(PID.TID 0000.0001) %MON land_Tgr1_ave_T              =   1.2444901797357E+01
(PID.TID 0000.0001) %MON land_Tgr1_ave_N              =  -1.8385111969258E+01
(PID.TID 0000.0001) %MON land_Tgr1_min_S              =  -3.9129675258062E+01
(PID.TID 0000.0001) %MON land_Tgr1_min_T              =  -5.4369171430398E+00
(PID.TID 0000.0001) %MON land_Tgr1_min_N              =  -5.4858915912088E+01
(PID.TID 0000.0001) %MON land_Tgr1_max_S              =   2.3101487385395E+01
(PID.TID 0000.0001) %MON land_Tgr1_max_T              =   2.4585178299655E+01
(PID.TID 0000.0001) %MON land_Tgr1_max_N              =   1.0806817044048E+01
(PID.TID 0000.0001) %MON land_Tgr2_ave_G              =   4.2059285143391E+00
(PID.TID 0000.0001) %MON land_Tgr2_ave_S              =  -1.8729225213319E+01
(PID.TID 0000.0001) %MON land_Tgr2_ave_T              =   2.2011740585471E+01
(PID.TID 0000.0001) %MON land_Tgr2_ave_N              =  -2.4424500363045E-01
(PID.TID 0000.0001) %MON land_Tgr2_min_S              =  -6.4757095326326E+01
(PID.TID 0000.0001) %MON land_Tgr2_min_T              =  -9.7046267167129E+00
(PID.TID 0000.0001) %MON land_Tgr2_min_N              =  -4.0196499812323E+01
(PID.TID 0000.0001) %MON land_Tgr2_max_S              =   2.3360624242604E+01
(PID.TID 0000.0001) %MON land_Tgr2_max_T              =   3.1357089319628E+01
(PID.TID 0000.0001) %MON land_Tgr2_max_N              =   2.9828036714955E+01
(PID.TID 0000.0001) %MON land_grdW_ave_G              =   4.8687490718503E-01
(PID.TID 0000.0001) %MON land_grdW_ave_S              =   3.0863460652531E-01
(PID.TID 0000.0001) %MON land_grdW_ave_T              =   5.6447149059407E-01
(PID.TID 0000.0001) %MON land_grdW_ave_N              =   4.9287825835969E-01
(PID.TID 0000.0001) %MON land_grdW_min_S              =   2.6429297799915E-02
(PID.TID 0000.0001) %MON land_grdW_min_T              =   0.0000000000000E+00
(PID.TID 0000.0001) %MON land_grdW_min_N              =   0.0000000000000E+00
(PID.TID 0000.0001) // =======================================================
(PID.TID 0000.0001) // End MONITOR Land statistics
(PID.TID 0000.0001) // =======================================================
(PID.TID 0000.0001) // =======================================================
(PID.TID 0000.0001) // Begin MONITOR Therm.SeaIce statistics
(PID.TID 0000.0001) // =======================================================
(PID.TID 0000.0001) %MON thSI_time_sec                =   5.4000000000000E+03
(PID.TID 0000.0001) %MON thSI_Ice_Area_G              =   1.2494475950023E+11
(PID.TID 0000.0001) %MON thSI_Ice_Area_S              =   0.0000000000000E+00
(PID.TID 0000.0001) %MON thSI_Ice_Area_N              =   1.2494475950023E+11
(PID.TID 0000.0001) %MON thSI_IceH_ave_G              =   1.2394341316025E-01
(PID.TID 0000.0001) %MON thSI_IceH_ave_S              =   0.0000000000000E+00
(PID.TID 0000.0001) %MON thSI_IceH_ave_N              =   1.2394341316025E-01
(PID.TID 0000.0001) %MON thSI_IceH_max_S              =   0.0000000000000E+00
(PID.TID 0000.0001) %MON thSI_IceH_max_N              =   1.3015579226947E-01
(PID.TID 0000.0001) %MON thSI_SnwH_ave_G              =   0.0000000000000E+00
(PID.TID 0000.0001) %MON thSI_SnwH_ave_S              =   0.0000000000000E+00
(PID.TID 0000.0001) %MON thSI_SnwH_ave_N              =   0.0000000000000E+00
(PID.TID 0000.0001) %MON thSI_SnwH_max_S              =   0.0000000000000E+00
(PID.TID 0000.0001) %MON thSI_SnwH_max_N              =   0.0000000000000E+00
(PID.TID 0000.0001) %MON thSI_TotEnerg_G              =  -4.7288527591216E+18
(PID.TID 0000.0001) %MON thSI_Tsrf_ave_G              =  -6.9624030399919E+00
(PID.TID 0000.0001) %MON thSI_Tsrf_ave_S              =   0.0000000000000E+00
(PID.TID 0000.0001) %MON thSI_Tsrf_ave_N              =  -6.9624030399919E+00
(PID.TID 0000.0001) %MON thSI_Tsrf_min_S              =   0.0000000000000E+00
(PID.TID 0000.0001) %MON thSI_Tsrf_min_N              =  -7.0468012511910E+00
(PID.TID 0000.0001) %MON thSI_Tsrf_max_S              =   0.0000000000000E+00
(PID.TID 0000.0001) %MON thSI_Tsrf_max_N              =  -6.8197134640109E+00
(PID.TID 0000.0001) %MON thSI_Tic1_ave_G              =  -4.5318240753055E+00
(PID.TID 0000.0001) %MON thSI_Tic1_ave_S              =   0.0000000000000E+00
(PID.TID 0000.0001) %MON thSI_Tic1_ave_N              =  -4.5318240753055E+00
(PID.TID 0000.0001) %MON thSI_Tic1_min_S              =   0.0000000000000E+00
(PID.TID 0000.0001) %MON thSI_Tic1_min_N              =  -4.6057137001720E+00
(PID.TID 0000.0001) %MON thSI_Tic1_max_S              =   0.0000000000000E+00
(PID.TID 0000.0001) %MON thSI_Tic1_max_N              =  -4.4521723704449E+00
(PID.TID 0000.0001) %MON thSI_Tic2_ave_G              =  -2.3677575720870E+00
(PID.TID 0000.0001) %MON thSI_Tic2_ave_S              =   0.0000000000000E+00
(PID.TID 0000.0001) %MON thSI_Tic2_ave_N              =  -2.3677575720870E+00
(PID.TID 0000.0001) %MON thSI_Tic2_min_S              =   0.0000000000000E+00
(PID.TID 0000.0001) %MON thSI_Tic2_min_N              =  -2.4415224880606E+00
(PID.TID 0000.0001) %MON thSI_Tic2_max_S              =   0.0000000000000E+00
(PID.TID 0000.0001) %MON thSI_Tic2_max_N              =  -2.3026672386953E+00
(PID.TID 0000.0001) // =======================================================
(PID.TID 0000.0001) // End MONITOR Therm.SeaIce statistics
(PID.TID 0000.0001) // =======================================================
 cg2d: Sum(rhs),rhsMax =   9.45874489843845E-11  2.37850803815634E+04
(PID.TID 0000.0001)                    cg2d_init_res =    1.57333215956252E+04
(PID.TID 0000.0001)                       cg2d_iters =    16
(PID.TID 0000.0001)                         cg2d_res =    9.42039587887551E-11
(PID.TID 0000.0001) // =======================================================
(PID.TID 0000.0001) // Begin MONITOR dynamic field statistics
(PID.TID 0000.0001) // =======================================================
(PID.TID 0000.0001) %MON time_tsnumber                =                    13
(PID.TID 0000.0001) %MON time_secondsf                =   5.8500000000000E+03
(PID.TID 0000.0001) %MON dynstat_eta_max              =   4.5157997191589E+03
(PID.TID 0000.0001) %MON dynstat_eta_min              =  -1.6396147892587E+03
(PID.TID 0000.0001) %MON dynstat_eta_mean             =  -2.6307678366413E-14
(PID.TID 0000.0001) %MON dynstat_eta_sd               =   5.1820488746843E+02
(PID.TID 0000.0001) %MON dynstat_eta_del2             =   3.7772711867295E+01
(PID.TID 0000.0001) %MON dynstat_uvel_max             =   6.0851736773695E+00
(PID.TID 0000.0001) %MON dynstat_uvel_min             =  -5.6367987455627E+00
(PID.TID 0000.0001) %MON dynstat_uvel_mean            =  -9.0624315615119E-03
(PID.TID 0000.0001) %MON dynstat_uvel_sd              =   7.8430296170589E-01
(PID.TID 0000.0001) %MON dynstat_uvel_del2            =   1.9739112324724E-02
(PID.TID 0000.0001) %MON dynstat_vvel_max             =   7.6523573880653E+00
(PID.TID 0000.0001) %MON dynstat_vvel_min             =  -7.7749261849471E+00
(PID.TID 0000.0001) %MON dynstat_vvel_mean            =   1.8791790793434E-02
(PID.TID 0000.0001) %MON dynstat_vvel_sd              =   8.5038994178602E-01
(PID.TID 0000.0001) %MON dynstat_vvel_del2            =   2.0028918669670E-02
(PID.TID 0000.0001) %MON dynstat_wvel_max             =   1.6580984216211E-01
(PID.TID 0000.0001) %MON dynstat_wvel_min             =  -2.7319145314287E-01
(PID.TID 0000.0001) %MON dynstat_wvel_mean            =  -1.1430452039521E-03
(PID.TID 0000.0001) %MON dynstat_wvel_sd              =   1.0745238019225E-02
(PID.TID 0000.0001) %MON dynstat_wvel_del2            =   1.2949086674183E-03
(PID.TID 0000.0001) %MON dynstat_theta_max            =   4.3770993009998E+02
(PID.TID 0000.0001) %MON dynstat_theta_min            =   2.8641233508689E+02
(PID.TID 0000.0001) %MON dynstat_theta_mean           =   3.3170695679134E+02
(PID.TID 0000.0001) %MON dynstat_theta_sd             =   4.7429760041780E+01
(PID.TID 0000.0001) %MON dynstat_theta_del2           =   1.5120918954453E-02
(PID.TID 0000.0001) %MON dynstat_salt_max             =   3.4925775057693E+00
(PID.TID 0000.0001) %MON dynstat_salt_min             =  -2.2477871822567E-03
(PID.TID 0000.0001) %MON dynstat_salt_mean            =   4.9044102338078E-02
(PID.TID 0000.0001) %MON dynstat_salt_sd              =   2.0491929019632E-01
(PID.TID 0000.0001) %MON dynstat_salt_del2            =   6.7861409991515E-03
(PID.TID 0000.0001) %MON advcfl_uvel_max              =   8.5427372941570E-03
(PID.TID 0000.0001) %MON advcfl_vvel_max              =   1.1153154788237E-02
(PID.TID 0000.0001) %MON advcfl_wvel_max              =   4.4704055968833E-03
(PID.TID 0000.0001) %MON advcfl_W_hf_max              =   1.5147742637094E-02
(PID.TID 0000.0001) %MON pe_b_mean                    =  -1.0875067598521E+00
(PID.TID 0000.0001) %MON ke_max                       =   3.5350212306259E+01
(PID.TID 0000.0001) %MON ke_mean                      =   6.6542113970484E-01
(PID.TID 0000.0001) %MON ke_vol                       =   4.9523908919847E+19
(PID.TID 0000.0001) %MON vort_r_min                   =  -3.1232953752332E-05
(PID.TID 0000.0001) %MON vort_r_max                   =   1.7572987874802E-05
(PID.TID 0000.0001) %MON vort_a_mean                  =   6.7059142261964E-08
(PID.TID 0000.0001) %MON vort_a_sd                    =   8.3730366699072E-05
(PID.TID 0000.0001) %MON vort_p_mean                  =   6.8751146817525E-08
(PID.TID 0000.0001) %MON vort_p_sd                    =   9.1638136942051E-05
(PID.TID 0000.0001) %MON surfExpan_theta_mean         =   1.0972874441108E-01
(PID.TID 0000.0001) %MON surfExpan_salt_mean          =  -1.8692286130820E-04
(PID.TID 0000.0001) %MON surfExpan_Heat_mean          =  -9.3890806800033E+00
(PID.TID 0000.0001) %MON En_Budget_T2PE_mean          =   1.7449537199864E+01
(PID.TID 0000.0001) // =======================================================
(PID.TID 0000.0001) // End MONITOR dynamic field statistics
(PID.TID 0000.0001) // =======================================================
(PID.TID 0000.0001) // =======================================================
(PID.TID 0000.0001) // Begin MONITOR Land statistics
(PID.TID 0000.0001) // =======================================================
(PID.TID 0000.0001) %MON land_time_sec                =   5.8500000000000E+03
(PID.TID 0000.0001) %MON land_SnwH_ave_G              =   1.5323530498526E-01
(PID.TID 0000.0001) %MON land_SnwH_ave_S              =   5.5905173581953E-01
(PID.TID 0000.0001) %MON land_SnwH_ave_T              =   0.0000000000000E+00
(PID.TID 0000.0001) %MON land_SnwH_ave_N              =   1.2391695759705E-01
(PID.TID 0000.0001) %MON land_SnwH_max_S              =   9.9999313882866E-01
(PID.TID 0000.0001) %MON land_SnwH_max_T              =   0.0000000000000E+00
(PID.TID 0000.0001) %MON land_SnwH_max_N              =   9.9999910389427E-01
(PID.TID 0000.0001) %MON land_TotEnerg_G              =  -6.3249334854728E+21
(PID.TID 0000.0001) %MON land_TotEnerg_S              =  -5.0001617272239E+21
(PID.TID 0000.0001) %MON land_TotEnerg_T              =   7.2940042610704E+21
(PID.TID 0000.0001) %MON land_TotEnerg_N              =  -8.6187760193193E+21
(PID.TID 0000.0001) %MON land_Tsrf_ave_G              =  -7.5179298799716E+00
(PID.TID 0000.0001) %MON land_Tsrf_ave_S              =  -6.7945502772305E+00
(PID.TID 0000.0001) %MON land_Tsrf_ave_T              =   1.2160055470538E+01
(PID.TID 0000.0001) %MON land_Tsrf_ave_N              =  -2.0892969712902E+01
(PID.TID 0000.0001) %MON land_Tsrf_min_S              =  -3.3997104230646E+01
(PID.TID 0000.0001) %MON land_Tsrf_min_T              =  -5.2660375478525E+00
(PID.TID 0000.0001) %MON land_Tsrf_min_N              =  -5.1963768627401E+01
(PID.TID 0000.0001) %MON land_Tsrf_max_S              =   2.2721453362037E+01
(PID.TID 0000.0001) %MON land_Tsrf_max_T              =   2.4061282365285E+01
(PID.TID 0000.0001) %MON land_Tsrf_max_N              =   1.0567637192896E+01
(PID.TID 0000.0001) %MON land_Tgr1_ave_G              =  -6.2339764983535E+00
(PID.TID 0000.0001) %MON land_Tgr1_ave_S              =  -6.4901075244957E+00
(PID.TID 0000.0001) %MON land_Tgr1_ave_T              =   1.2160055470538E+01
(PID.TID 0000.0001) %MON land_Tgr1_ave_N              =  -1.8433882743705E+01
(PID.TID 0000.0001) %MON land_Tgr1_min_S              =  -3.9140823146731E+01
(PID.TID 0000.0001) %MON land_Tgr1_min_T              =  -5.2660375478525E+00
(PID.TID 0000.0001) %MON land_Tgr1_min_N              =  -5.4846098549030E+01
(PID.TID 0000.0001) %MON land_Tgr1_max_S              =   2.2721453362037E+01
(PID.TID 0000.0001) %MON land_Tgr1_max_T              =   2.4061282365285E+01
(PID.TID 0000.0001) %MON land_Tgr1_max_N              =   1.0567637192896E+01
(PID.TID 0000.0001) %MON land_Tgr2_ave_G              =   4.2057686893248E+00
(PID.TID 0000.0001) %MON land_Tgr2_ave_S              =  -1.8729020702803E+01
(PID.TID 0000.0001) %MON land_Tgr2_ave_T              =   2.2011579366941E+01
(PID.TID 0000.0001) %MON land_Tgr2_ave_N              =  -2.4452208632247E-01
(PID.TID 0000.0001) %MON land_Tgr2_min_S              =  -6.4756663329654E+01
(PID.TID 0000.0001) %MON land_Tgr2_min_T              =  -9.7045706331442E+00
(PID.TID 0000.0001) %MON land_Tgr2_min_N              =  -4.0196738207095E+01
(PID.TID 0000.0001) %MON land_Tgr2_max_S              =   2.3360604339864E+01
(PID.TID 0000.0001) %MON land_Tgr2_max_T              =   3.1356708431138E+01
(PID.TID 0000.0001) %MON land_Tgr2_max_N              =   2.9827584764872E+01
(PID.TID 0000.0001) %MON land_grdW_ave_G              =   4.8686419972334E-01
(PID.TID 0000.0001) %MON land_grdW_ave_S              =   3.0862521198826E-01
(PID.TID 0000.0001) %MON land_grdW_ave_T              =   5.6444461604669E-01
(PID.TID 0000.0001) %MON land_grdW_ave_N              =   4.9287792089761E-01
(PID.TID 0000.0001) %MON land_grdW_min_S              =   2.6503665694157E-02
(PID.TID 0000.0001) %MON land_grdW_min_T              =   0.0000000000000E+00
(PID.TID 0000.0001) %MON land_grdW_min_N              =   0.0000000000000E+00
(PID.TID 0000.0001) // =======================================================
(PID.TID 0000.0001) // End MONITOR Land statistics
(PID.TID 0000.0001) // =======================================================
(PID.TID 0000.0001) // =======================================================
(PID.TID 0000.0001) // Begin MONITOR Therm.SeaIce statistics
(PID.TID 0000.0001) // =======================================================
(PID.TID 0000.0001) %MON thSI_time_sec                =   5.8500000000000E+03
(PID.TID 0000.0001) %MON thSI_Ice_Area_G              =   1.3364563651473E+11
(PID.TID 0000.0001) %MON thSI_Ice_Area_S              =   0.0000000000000E+00
(PID.TID 0000.0001) %MON thSI_Ice_Area_N              =   1.3364563651473E+11
(PID.TID 0000.0001) %MON thSI_IceH_ave_G              =   1.2635471987761E-01
(PID.TID 0000.0001) %MON thSI_IceH_ave_S              =   0.0000000000000E+00
(PID.TID 0000.0001) %MON thSI_IceH_ave_N              =   1.2635471987761E-01
(PID.TID 0000.0001) %MON thSI_IceH_max_S              =   0.0000000000000E+00
(PID.TID 0000.0001) %MON thSI_IceH_max_N              =   1.3320256360237E-01
(PID.TID 0000.0001) %MON thSI_SnwH_ave_G              =   0.0000000000000E+00
(PID.TID 0000.0001) %MON thSI_SnwH_ave_S              =   0.0000000000000E+00
(PID.TID 0000.0001) %MON thSI_SnwH_ave_N              =   0.0000000000000E+00
(PID.TID 0000.0001) %MON thSI_SnwH_max_S              =   0.0000000000000E+00
(PID.TID 0000.0001) %MON thSI_SnwH_max_N              =   0.0000000000000E+00
(PID.TID 0000.0001) %MON thSI_TotEnerg_G              =  -5.1625956384436E+18
(PID.TID 0000.0001) %MON thSI_Tsrf_ave_G              =  -7.1954565515812E+00
(PID.TID 0000.0001) %MON thSI_Tsrf_ave_S              =   0.0000000000000E+00
(PID.TID 0000.0001) %MON thSI_Tsrf_ave_N              =  -7.1954565515812E+00
(PID.TID 0000.0001) %MON thSI_Tsrf_min_S              =   0.0000000000000E+00
(PID.TID 0000.0001) %MON thSI_Tsrf_min_N              =  -7.2817431108075E+00
(PID.TID 0000.0001) %MON thSI_Tsrf_max_S              =   0.0000000000000E+00
(PID.TID 0000.0001) %MON thSI_Tsrf_max_N              =  -7.0461151884776E+00
(PID.TID 0000.0001) %MON thSI_Tic1_ave_G              =  -4.7563782315479E+00
(PID.TID 0000.0001) %MON thSI_Tic1_ave_S              =   0.0000000000000E+00
(PID.TID 0000.0001) %MON thSI_Tic1_ave_N              =  -4.7563782315479E+00
(PID.TID 0000.0001) %MON thSI_Tic1_min_S              =   0.0000000000000E+00
(PID.TID 0000.0001) %MON thSI_Tic1_min_N              =  -4.8344500247915E+00
(PID.TID 0000.0001) %MON thSI_Tic1_max_S              =   0.0000000000000E+00
(PID.TID 0000.0001) %MON thSI_Tic1_max_N              =  -4.6808727071698E+00
(PID.TID 0000.0001) %MON thSI_Tic2_ave_G              =  -2.4374941815515E+00
(PID.TID 0000.0001) %MON thSI_Tic2_ave_S              =   0.0000000000000E+00
(PID.TID 0000.0001) %MON thSI_Tic2_ave_N              =  -2.4374941815515E+00
(PID.TID 0000.0001) %MON thSI_Tic2_min_S              =   0.0000000000000E+00
(PID.TID 0000.0001) %MON thSI_Tic2_min_N              =  -2.5165253474120E+00
(PID.TID 0000.0001) %MON thSI_Tic2_max_S              =   0.0000000000000E+00
(PID.TID 0000.0001) %MON thSI_Tic2_max_N              =  -2.3679757757553E+00
(PID.TID 0000.0001) // =======================================================
(PID.TID 0000.0001) // End MONITOR Therm.SeaIce statistics
(PID.TID 0000.0001) // =======================================================
 cg2d: Sum(rhs),rhsMax =   3.34694050252438E-10  2.50481920176382E+04
(PID.TID 0000.0001)                    cg2d_init_res =    1.46784458341957E+04
(PID.TID 0000.0001)                       cg2d_iters =    16
(PID.TID 0000.0001)                         cg2d_res =    9.10674710476099E-11
(PID.TID 0000.0001) // =======================================================
(PID.TID 0000.0001) // Begin MONITOR dynamic field statistics
(PID.TID 0000.0001) // =======================================================
(PID.TID 0000.0001) %MON time_tsnumber                =                    14
(PID.TID 0000.0001) %MON time_secondsf                =   6.3000000000000E+03
(PID.TID 0000.0001) %MON dynstat_eta_max              =   4.7491685384323E+03
(PID.TID 0000.0001) %MON dynstat_eta_min              =  -1.5201687770393E+03
(PID.TID 0000.0001) %MON dynstat_eta_mean             =  -2.1086307087583E-15
(PID.TID 0000.0001) %MON dynstat_eta_sd               =   5.3283472256941E+02
(PID.TID 0000.0001) %MON dynstat_eta_del2             =   3.7766803860021E+01
(PID.TID 0000.0001) %MON dynstat_uvel_max             =   5.7287606676000E+00
(PID.TID 0000.0001) %MON dynstat_uvel_min             =  -5.9926235189143E+00
(PID.TID 0000.0001) %MON dynstat_uvel_mean            =  -9.4162782196057E-03
(PID.TID 0000.0001) %MON dynstat_uvel_sd              =   7.8432172860920E-01
(PID.TID 0000.0001) %MON dynstat_uvel_del2            =   1.9685114022181E-02
(PID.TID 0000.0001) %MON dynstat_vvel_max             =   7.1735996921742E+00
(PID.TID 0000.0001) %MON dynstat_vvel_min             =  -7.3770764691832E+00
(PID.TID 0000.0001) %MON dynstat_vvel_mean            =   2.0426558334873E-02
(PID.TID 0000.0001) %MON dynstat_vvel_sd              =   8.4265997736457E-01
(PID.TID 0000.0001) %MON dynstat_vvel_del2            =   1.9853624374596E-02
(PID.TID 0000.0001) %MON dynstat_wvel_max             =   1.6935783255491E-01
(PID.TID 0000.0001) %MON dynstat_wvel_min             =  -2.4040090220121E-01
(PID.TID 0000.0001) %MON dynstat_wvel_mean            =  -9.8223086513508E-04
(PID.TID 0000.0001) %MON dynstat_wvel_sd              =   9.8533646575335E-03
(PID.TID 0000.0001) %MON dynstat_wvel_del2            =   1.2801865136830E-03
(PID.TID 0000.0001) %MON dynstat_theta_max            =   4.3779891592988E+02
(PID.TID 0000.0001) %MON dynstat_theta_min            =   2.8617345389143E+02
(PID.TID 0000.0001) %MON dynstat_theta_mean           =   3.3170540748496E+02
(PID.TID 0000.0001) %MON dynstat_theta_sd             =   4.7431565210897E+01
(PID.TID 0000.0001) %MON dynstat_theta_del2           =   1.6103179489302E-02
(PID.TID 0000.0001) %MON dynstat_salt_max             =   3.6186611142793E+00
(PID.TID 0000.0001) %MON dynstat_salt_min             =  -2.5571672184364E-03
(PID.TID 0000.0001) %MON dynstat_salt_mean            =   5.2601326053607E-02
(PID.TID 0000.0001) %MON dynstat_salt_sd              =   2.1866481650700E-01
(PID.TID 0000.0001) %MON dynstat_salt_del2            =   7.1574763823334E-03
(PID.TID 0000.0001) %MON advcfl_uvel_max              =   8.4128097469522E-03
(PID.TID 0000.0001) %MON advcfl_vvel_max              =   1.0582438185041E-02
(PID.TID 0000.0001) %MON advcfl_wvel_max              =   4.3549156942692E-03
(PID.TID 0000.0001) %MON advcfl_W_hf_max              =   1.5456445694802E-02
(PID.TID 0000.0001) %MON pe_b_mean                    =  -1.0944304967887E+00
(PID.TID 0000.0001) %MON ke_max                       =   3.2989666706421E+01
(PID.TID 0000.0001) %MON ke_mean                      =   6.5896342016790E-01
(PID.TID 0000.0001) %MON ke_vol                       =   4.9523908919847E+19
(PID.TID 0000.0001) %MON vort_r_min                   =  -2.9430205304521E-05
(PID.TID 0000.0001) %MON vort_r_max                   =   1.6355848852419E-05
(PID.TID 0000.0001) %MON vort_a_mean                  =   6.7059142262053E-08
(PID.TID 0000.0001) %MON vort_a_sd                    =   8.3732945417663E-05
(PID.TID 0000.0001) %MON vort_p_mean                  =   6.8751148325371E-08
(PID.TID 0000.0001) %MON vort_p_sd                    =   9.1646982412091E-05
(PID.TID 0000.0001) %MON surfExpan_theta_mean         =   9.3555021263863E-02
(PID.TID 0000.0001) %MON surfExpan_salt_mean          =  -2.2137268767913E-04
(PID.TID 0000.0001) %MON surfExpan_Heat_mean          =  -8.0903367634584E+00
(PID.TID 0000.0001) %MON En_Budget_T2PE_mean          =   1.4966011108365E+01
(PID.TID 0000.0001) // =======================================================
(PID.TID 0000.0001) // End MONITOR dynamic field statistics
(PID.TID 0000.0001) // =======================================================
(PID.TID 0000.0001) // =======================================================
(PID.TID 0000.0001) // Begin MONITOR Land statistics
(PID.TID 0000.0001) // =======================================================
(PID.TID 0000.0001) %MON land_time_sec                =   6.3000000000000E+03
(PID.TID 0000.0001) %MON land_SnwH_ave_G              =   1.5323431310787E-01
(PID.TID 0000.0001) %MON land_SnwH_ave_S              =   5.5905082400004E-01
(PID.TID 0000.0001) %MON land_SnwH_ave_T              =   0.0000000000000E+00
(PID.TID 0000.0001) %MON land_SnwH_ave_N              =   1.2391527740281E-01
(PID.TID 0000.0001) %MON land_SnwH_max_S              =   9.9999258496002E-01
(PID.TID 0000.0001) %MON land_SnwH_max_T              =   0.0000000000000E+00
(PID.TID 0000.0001) %MON land_SnwH_max_N              =   9.9999903967134E-01
(PID.TID 0000.0001) %MON land_TotEnerg_G              =  -6.3282526499272E+21
(PID.TID 0000.0001) %MON land_TotEnerg_S              =  -5.0004823530060E+21
(PID.TID 0000.0001) %MON land_TotEnerg_T              =   7.2917762811177E+21
(PID.TID 0000.0001) %MON land_TotEnerg_N              =  -8.6195465780389E+21
(PID.TID 0000.0001) %MON land_Tsrf_ave_G              =  -7.6438572379245E+00
(PID.TID 0000.0001) %MON land_Tsrf_ave_S              =  -6.9178122686822E+00
(PID.TID 0000.0001) %MON land_Tsrf_ave_T              =   1.1903544884385E+01
(PID.TID 0000.0001) %MON land_Tsrf_ave_N              =  -2.0932562060102E+01
(PID.TID 0000.0001) %MON land_Tsrf_min_S              =  -3.3973151810032E+01
(PID.TID 0000.0001) %MON land_Tsrf_min_T              =  -5.1007071573113E+00
(PID.TID 0000.0001) %MON land_Tsrf_min_N              =  -5.1983357500701E+01
(PID.TID 0000.0001) %MON land_Tsrf_max_S              =   2.2381760798130E+01
(PID.TID 0000.0001) %MON land_Tsrf_max_T              =   2.3587188515348E+01
(PID.TID 0000.0001) %MON land_Tsrf_max_N              =   1.0339059139119E+01
(PID.TID 0000.0001) %MON land_Tgr1_ave_G              =  -6.3594656518352E+00
(PID.TID 0000.0001) %MON land_Tgr1_ave_S              =  -6.5892782728615E+00
(PID.TID 0000.0001) %MON land_Tgr1_ave_T              =   1.1903544884385E+01
(PID.TID 0000.0001) %MON land_Tgr1_ave_N              =  -1.8480417167982E+01
(PID.TID 0000.0001) %MON land_Tgr1_min_S              =  -3.9151937814496E+01
(PID.TID 0000.0001) %MON land_Tgr1_min_T              =  -5.1007071573113E+00
(PID.TID 0000.0001) %MON land_Tgr1_min_N              =  -5.4833321428719E+01
(PID.TID 0000.0001) %MON land_Tgr1_max_S              =   2.2381760798130E+01
(PID.TID 0000.0001) %MON land_Tgr1_max_T              =   2.3587188515348E+01
(PID.TID 0000.0001) %MON land_Tgr1_max_N              =   1.0339059139119E+01
(PID.TID 0000.0001) %MON land_Tgr2_ave_G              =   4.2056068657539E+00
(PID.TID 0000.0001) %MON land_Tgr2_ave_S              =  -1.8728817766178E+01
(PID.TID 0000.0001) %MON land_Tgr2_ave_T              =   2.2011414181725E+01
(PID.TID 0000.0001) %MON land_Tgr2_ave_N              =  -2.4479999107021E-01
(PID.TID 0000.0001) %MON land_Tgr2_min_S              =  -6.4756231548904E+01
(PID.TID 0000.0001) %MON land_Tgr2_min_T              =  -9.7045124613840E+00
(PID.TID 0000.0001) %MON land_Tgr2_min_N              =  -4.0196976357744E+01
(PID.TID 0000.0001) %MON land_Tgr2_max_S              =   2.3360578284142E+01
(PID.TID 0000.0001) %MON land_Tgr2_max_T              =   3.1356321640287E+01
(PID.TID 0000.0001) %MON land_Tgr2_max_N              =   2.9827125237533E+01
(PID.TID 0000.0001) %MON land_grdW_ave_G              =   4.8685390028714E-01
(PID.TID 0000.0001) %MON land_grdW_ave_S              =   3.0861602250619E-01
(PID.TID 0000.0001) %MON land_grdW_ave_T              =   5.6441884878043E-01
(PID.TID 0000.0001) %MON land_grdW_ave_N              =   4.9287759036107E-01
(PID.TID 0000.0001) %MON land_grdW_min_S              =   2.6580455219529E-02
(PID.TID 0000.0001) %MON land_grdW_min_T              =   0.0000000000000E+00
(PID.TID 0000.0001) %MON land_grdW_min_N              =   0.0000000000000E+00
(PID.TID 0000.0001) // =======================================================
(PID.TID 0000.0001) // End MONITOR Land statistics
(PID.TID 0000.0001) // =======================================================
(PID.TID 0000.0001) // =======================================================
(PID.TID 0000.0001) // Begin MONITOR Therm.SeaIce statistics
(PID.TID 0000.0001) // =======================================================
(PID.TID 0000.0001) %MON thSI_time_sec                =   6.3000000000000E+03
(PID.TID 0000.0001) %MON thSI_Ice_Area_G              =   1.4202062106357E+11
(PID.TID 0000.0001) %MON thSI_Ice_Area_S              =   0.0000000000000E+00
(PID.TID 0000.0001) %MON thSI_Ice_Area_N              =   1.4202062106357E+11
(PID.TID 0000.0001) %MON thSI_IceH_ave_G              =   1.2876805536346E-01
(PID.TID 0000.0001) %MON thSI_IceH_ave_S              =   0.0000000000000E+00
(PID.TID 0000.0001) %MON thSI_IceH_ave_N              =   1.2876805536346E-01
(PID.TID 0000.0001) %MON thSI_IceH_max_S              =   0.0000000000000E+00
(PID.TID 0000.0001) %MON thSI_IceH_max_N              =   1.3625331624176E-01
(PID.TID 0000.0001) %MON thSI_SnwH_ave_G              =   0.0000000000000E+00
(PID.TID 0000.0001) %MON thSI_SnwH_ave_S              =   0.0000000000000E+00
(PID.TID 0000.0001) %MON thSI_SnwH_ave_N              =   0.0000000000000E+00
(PID.TID 0000.0001) %MON thSI_SnwH_max_S              =   0.0000000000000E+00
(PID.TID 0000.0001) %MON thSI_SnwH_max_N              =   0.0000000000000E+00
(PID.TID 0000.0001) %MON thSI_TotEnerg_G              =  -5.5968117804371E+18
(PID.TID 0000.0001) %MON thSI_Tsrf_ave_G              =  -7.4113679445911E+00
(PID.TID 0000.0001) %MON thSI_Tsrf_ave_S              =   0.0000000000000E+00
(PID.TID 0000.0001) %MON thSI_Tsrf_ave_N              =  -7.4113679445911E+00
(PID.TID 0000.0001) %MON thSI_Tsrf_min_S              =   0.0000000000000E+00
(PID.TID 0000.0001) %MON thSI_Tsrf_min_N              =  -7.4996620893510E+00
(PID.TID 0000.0001) %MON thSI_Tsrf_max_S              =   0.0000000000000E+00
(PID.TID 0000.0001) %MON thSI_Tsrf_max_N              =  -7.2551044918569E+00
(PID.TID 0000.0001) %MON thSI_Tic1_ave_G              =  -4.9632733745619E+00
(PID.TID 0000.0001) %MON thSI_Tic1_ave_S              =   0.0000000000000E+00
(PID.TID 0000.0001) %MON thSI_Tic1_ave_N              =  -4.9632733745619E+00
(PID.TID 0000.0001) %MON thSI_Tic1_min_S              =   0.0000000000000E+00
(PID.TID 0000.0001) %MON thSI_Tic1_min_N              =  -5.0447460405100E+00
(PID.TID 0000.0001) %MON thSI_Tic1_max_S              =   0.0000000000000E+00
(PID.TID 0000.0001) %MON thSI_Tic1_max_N              =  -4.8905315126821E+00
(PID.TID 0000.0001) %MON thSI_Tic2_ave_G              =  -2.5026872152080E+00
(PID.TID 0000.0001) %MON thSI_Tic2_ave_S              =   0.0000000000000E+00
(PID.TID 0000.0001) %MON thSI_Tic2_ave_N              =  -2.5026872152080E+00
(PID.TID 0000.0001) %MON thSI_Tic2_min_S              =   0.0000000000000E+00
(PID.TID 0000.0001) %MON thSI_Tic2_min_N              =  -2.5867072789279E+00
(PID.TID 0000.0001) %MON thSI_Tic2_max_S              =   0.0000000000000E+00
(PID.TID 0000.0001) %MON thSI_Tic2_max_N              =  -2.4289372656027E+00
(PID.TID 0000.0001) // =======================================================
(PID.TID 0000.0001) // End MONITOR Therm.SeaIce statistics
(PID.TID 0000.0001) // =======================================================
 cg2d: Sum(rhs),rhsMax =   7.78527464717627E-10  2.56261284381386E+04
(PID.TID 0000.0001)                    cg2d_init_res =    1.37973776494495E+04
(PID.TID 0000.0001)                       cg2d_iters =    16
(PID.TID 0000.0001)                         cg2d_res =    8.96866008477447E-11
(PID.TID 0000.0001) // =======================================================
(PID.TID 0000.0001) // Begin MONITOR dynamic field statistics
(PID.TID 0000.0001) // =======================================================
(PID.TID 0000.0001) %MON time_tsnumber                =                    15
(PID.TID 0000.0001) %MON time_secondsf                =   6.7500000000000E+03
(PID.TID 0000.0001) %MON dynstat_eta_max              =   4.8635846580115E+03
(PID.TID 0000.0001) %MON dynstat_eta_min              =  -1.3921415576440E+03
(PID.TID 0000.0001) %MON dynstat_eta_mean             =   1.8073977503643E-14
(PID.TID 0000.0001) %MON dynstat_eta_sd               =   5.4460176162370E+02
(PID.TID 0000.0001) %MON dynstat_eta_del2             =   3.7712785080994E+01
(PID.TID 0000.0001) %MON dynstat_uvel_max             =   5.7762679982111E+00
(PID.TID 0000.0001) %MON dynstat_uvel_min             =  -6.3463799198093E+00
(PID.TID 0000.0001) %MON dynstat_uvel_mean            =  -9.6157540137590E-03
(PID.TID 0000.0001) %MON dynstat_uvel_sd              =   7.8680409304198E-01
(PID.TID 0000.0001) %MON dynstat_uvel_del2            =   1.9756453648577E-02
(PID.TID 0000.0001) %MON dynstat_vvel_max             =   6.5909030148346E+00
(PID.TID 0000.0001) %MON dynstat_vvel_min             =  -6.8296081997642E+00
(PID.TID 0000.0001) %MON dynstat_vvel_mean            =   2.2000563651845E-02
(PID.TID 0000.0001) %MON dynstat_vvel_sd              =   8.3301022566485E-01
(PID.TID 0000.0001) %MON dynstat_vvel_del2            =   1.9815998940612E-02
(PID.TID 0000.0001) %MON dynstat_wvel_max             =   1.6645854017201E-01
(PID.TID 0000.0001) %MON dynstat_wvel_min             =  -2.0298382527008E-01
(PID.TID 0000.0001) %MON dynstat_wvel_mean            =  -8.1966887218417E-04
(PID.TID 0000.0001) %MON dynstat_wvel_sd              =   9.0972115084948E-03
(PID.TID 0000.0001) %MON dynstat_wvel_del2            =   1.2760087562562E-03
(PID.TID 0000.0001) %MON dynstat_theta_max            =   4.3793749760798E+02
(PID.TID 0000.0001) %MON dynstat_theta_min            =   2.8593649738475E+02
(PID.TID 0000.0001) %MON dynstat_theta_mean           =   3.3170380593467E+02
(PID.TID 0000.0001) %MON dynstat_theta_sd             =   4.7433409719276E+01
(PID.TID 0000.0001) %MON dynstat_theta_del2           =   1.7025772804465E-02
(PID.TID 0000.0001) %MON dynstat_salt_max             =   3.7344513088044E+00
(PID.TID 0000.0001) %MON dynstat_salt_min             =  -2.8841898623912E-03
(PID.TID 0000.0001) %MON dynstat_salt_mean            =   5.6138266236710E-02
(PID.TID 0000.0001) %MON dynstat_salt_sd              =   2.3218788592096E-01
(PID.TID 0000.0001) %MON dynstat_salt_del2            =   7.5240789088920E-03
(PID.TID 0000.0001) %MON advcfl_uvel_max              =   8.9464406923982E-03
(PID.TID 0000.0001) %MON advcfl_vvel_max              =   9.8520257324687E-03
(PID.TID 0000.0001) %MON advcfl_wvel_max              =   4.2803624615659E-03
(PID.TID 0000.0001) %MON advcfl_W_hf_max              =   1.5169994667205E-02
(PID.TID 0000.0001) %MON pe_b_mean                    =  -1.1006182650624E+00
(PID.TID 0000.0001) %MON ke_max                       =   3.0044314582874E+01
(PID.TID 0000.0001) %MON ke_mean                      =   6.5289706314685E-01
(PID.TID 0000.0001) %MON ke_vol                       =   4.9523908919847E+19
(PID.TID 0000.0001) %MON vort_r_min                   =  -2.7903947367437E-05
(PID.TID 0000.0001) %MON vort_r_max                   =   1.5930451808267E-05
(PID.TID 0000.0001) %MON vort_a_mean                  =   6.7059142262051E-08
(PID.TID 0000.0001) %MON vort_a_sd                    =   8.3735555742395E-05
(PID.TID 0000.0001) %MON vort_p_mean                  =   6.8751149900675E-08
(PID.TID 0000.0001) %MON vort_p_sd                    =   9.1652904767445E-05
(PID.TID 0000.0001) %MON surfExpan_theta_mean         =   7.7261512361593E-02
(PID.TID 0000.0001) %MON surfExpan_salt_mean          =  -2.5977132856456E-04
(PID.TID 0000.0001) %MON surfExpan_Heat_mean          =  -6.7708620370094E+00
(PID.TID 0000.0001) %MON En_Budget_T2PE_mean          =   1.2453443795426E+01
(PID.TID 0000.0001) // =======================================================
(PID.TID 0000.0001) // End MONITOR dynamic field statistics
(PID.TID 0000.0001) // =======================================================
(PID.TID 0000.0001) // =======================================================
(PID.TID 0000.0001) // Begin MONITOR Land statistics
(PID.TID 0000.0001) // =======================================================
(PID.TID 0000.0001) %MON land_time_sec                =   6.7500000000000E+03
(PID.TID 0000.0001) %MON land_SnwH_ave_G              =   1.5323332660650E-01
(PID.TID 0000.0001) %MON land_SnwH_ave_S              =   5.5904992616014E-01
(PID.TID 0000.0001) %MON land_SnwH_ave_T              =   0.0000000000000E+00
(PID.TID 0000.0001) %MON land_SnwH_ave_N              =   1.2391360338359E-01
(PID.TID 0000.0001) %MON land_SnwH_max_S              =   9.9999202932567E-01
(PID.TID 0000.0001) %MON land_SnwH_max_T              =   0.0000000000000E+00
(PID.TID 0000.0001) %MON land_SnwH_max_N              =   9.9999897565970E-01
(PID.TID 0000.0001) %MON land_TotEnerg_G              =  -6.3312978241716E+21
(PID.TID 0000.0001) %MON land_TotEnerg_S              =  -5.0007667010331E+21
(PID.TID 0000.0001) %MON land_TotEnerg_T              =   7.2897670703701E+21
(PID.TID 0000.0001) %MON land_TotEnerg_N              =  -8.6202981935086E+21
(PID.TID 0000.0001) %MON land_Tsrf_ave_G              =  -7.7578843355650E+00
(PID.TID 0000.0001) %MON land_Tsrf_ave_S              =  -7.0294417285788E+00
(PID.TID 0000.0001) %MON land_Tsrf_ave_T              =   1.1672372666865E+01
(PID.TID 0000.0001) %MON land_Tsrf_ave_N              =  -2.0969140870942E+01
(PID.TID 0000.0001) %MON land_Tsrf_min_S              =  -3.3930407745072E+01
(PID.TID 0000.0001) %MON land_Tsrf_min_T              =  -4.9406607024693E+00
(PID.TID 0000.0001) %MON land_Tsrf_min_N              =  -5.2003910733028E+01
(PID.TID 0000.0001) %MON land_Tsrf_max_S              =   2.2078309621726E+01
(PID.TID 0000.0001) %MON land_Tsrf_max_T              =   2.3158220804439E+01
(PID.TID 0000.0001) %MON land_Tsrf_max_N              =   1.0121338274006E+01
(PID.TID 0000.0001) %MON land_Tgr1_ave_G              =  -6.4733184133000E+00
(PID.TID 0000.0001) %MON land_Tgr1_ave_S              =  -6.6779347717637E+00
(PID.TID 0000.0001) %MON land_Tgr1_ave_T              =   1.1672372666865E+01
(PID.TID 0000.0001) %MON land_Tgr1_ave_N              =  -1.8524100961051E+01
(PID.TID 0000.0001) %MON land_Tgr1_min_S              =  -3.9163053309788E+01
(PID.TID 0000.0001) %MON land_Tgr1_min_T              =  -4.9406607024693E+00
(PID.TID 0000.0001) %MON land_Tgr1_min_N              =  -5.4820585424064E+01
(PID.TID 0000.0001) %MON land_Tgr1_max_S              =   2.2078309621726E+01
(PID.TID 0000.0001) %MON land_Tgr1_max_T              =   2.3158220804439E+01
(PID.TID 0000.0001) %MON land_Tgr1_max_N              =   1.0121338274006E+01
(PID.TID 0000.0001) %MON land_Tgr2_ave_G              =   4.2054432365796E+00
(PID.TID 0000.0001) %MON land_Tgr2_ave_S              =  -1.8728616236135E+01
(PID.TID 0000.0001) %MON land_Tgr2_ave_T              =   2.2011245436491E+01
(PID.TID 0000.0001) %MON land_Tgr2_ave_N              =  -2.4507865931543E-01
(PID.TID 0000.0001) %MON land_Tgr2_min_S              =  -6.4755799983032E+01
(PID.TID 0000.0001) %MON land_Tgr2_min_T              =  -9.7044522682439E+00
(PID.TID 0000.0001) %MON land_Tgr2_min_N              =  -4.0197214265271E+01
(PID.TID 0000.0001) %MON land_Tgr2_max_S              =   2.3360546703503E+01
(PID.TID 0000.0001) %MON land_Tgr2_max_T              =   3.1355929380993E+01
(PID.TID 0000.0001) %MON land_Tgr2_max_N              =   2.9826658407582E+01
(PID.TID 0000.0001) %MON land_grdW_ave_G              =   4.8684396909630E-01
(PID.TID 0000.0001) %MON land_grdW_ave_S              =   3.0860702319644E-01
(PID.TID 0000.0001) %MON land_grdW_ave_T              =   5.6439407854762E-01
(PID.TID 0000.0001) %MON land_grdW_ave_N              =   4.9287726594949E-01
(PID.TID 0000.0001) %MON land_grdW_min_S              =   2.6659321736561E-02
(PID.TID 0000.0001) %MON land_grdW_min_T              =   0.0000000000000E+00
(PID.TID 0000.0001) %MON land_grdW_min_N              =   0.0000000000000E+00
(PID.TID 0000.0001) // =======================================================
(PID.TID 0000.0001) // End MONITOR Land statistics
(PID.TID 0000.0001) // =======================================================
(PID.TID 0000.0001) // =======================================================
(PID.TID 0000.0001) // Begin MONITOR Therm.SeaIce statistics
(PID.TID 0000.0001) // =======================================================
(PID.TID 0000.0001) %MON thSI_time_sec                =   6.7500000000000E+03
(PID.TID 0000.0001) %MON thSI_Ice_Area_G              =   1.5008870306471E+11
(PID.TID 0000.0001) %MON thSI_Ice_Area_S              =   0.0000000000000E+00
(PID.TID 0000.0001) %MON thSI_Ice_Area_N              =   1.5008870306471E+11
(PID.TID 0000.0001) %MON thSI_IceH_ave_G              =   1.3118295842850E-01
(PID.TID 0000.0001) %MON thSI_IceH_ave_S              =   0.0000000000000E+00
(PID.TID 0000.0001) %MON thSI_IceH_ave_N              =   1.3118295842850E-01
(PID.TID 0000.0001) %MON thSI_IceH_max_S              =   0.0000000000000E+00
(PID.TID 0000.0001) %MON thSI_IceH_max_N              =   1.3930749004415E-01
(PID.TID 0000.0001) %MON thSI_SnwH_ave_G              =   0.0000000000000E+00
(PID.TID 0000.0001) %MON thSI_SnwH_ave_S              =   0.0000000000000E+00
(PID.TID 0000.0001) %MON thSI_SnwH_ave_N              =   0.0000000000000E+00
(PID.TID 0000.0001) %MON thSI_SnwH_max_S              =   0.0000000000000E+00
(PID.TID 0000.0001) %MON thSI_SnwH_max_N              =   0.0000000000000E+00
(PID.TID 0000.0001) %MON thSI_TotEnerg_G              =  -6.0314666995596E+18
(PID.TID 0000.0001) %MON thSI_Tsrf_ave_G              =  -7.6111507514749E+00
(PID.TID 0000.0001) %MON thSI_Tsrf_ave_S              =   0.0000000000000E+00
(PID.TID 0000.0001) %MON thSI_Tsrf_ave_N              =  -7.6111507514749E+00
(PID.TID 0000.0001) %MON thSI_Tsrf_min_S              =   0.0000000000000E+00
(PID.TID 0000.0001) %MON thSI_Tsrf_min_N              =  -7.7015503354722E+00
(PID.TID 0000.0001) %MON thSI_Tsrf_max_S              =   0.0000000000000E+00
(PID.TID 0000.0001) %MON thSI_Tsrf_max_N              =  -7.4474795576061E+00
(PID.TID 0000.0001) %MON thSI_Tic1_ave_G              =  -5.1536247219974E+00
(PID.TID 0000.0001) %MON thSI_Tic1_ave_S              =   0.0000000000000E+00
(PID.TID 0000.0001) %MON thSI_Tic1_ave_N              =  -5.1536247219974E+00
(PID.TID 0000.0001) %MON thSI_Tic1_min_S              =   0.0000000000000E+00
(PID.TID 0000.0001) %MON thSI_Tic1_min_N              =  -5.2376593002864E+00
(PID.TID 0000.0001) %MON thSI_Tic1_max_S              =   0.0000000000000E+00
(PID.TID 0000.0001) %MON thSI_Tic1_max_N              =  -5.0784339594669E+00
(PID.TID 0000.0001) %MON thSI_Tic2_ave_G              =  -2.5633400223501E+00
(PID.TID 0000.0001) %MON thSI_Tic2_ave_S              =   0.0000000000000E+00
(PID.TID 0000.0001) %MON thSI_Tic2_ave_N              =  -2.5633400223501E+00
(PID.TID 0000.0001) %MON thSI_Tic2_min_S              =   0.0000000000000E+00
(PID.TID 0000.0001) %MON thSI_Tic2_min_N              =  -2.6520106568216E+00
(PID.TID 0000.0001) %MON thSI_Tic2_max_S              =   0.0000000000000E+00
(PID.TID 0000.0001) %MON thSI_Tic2_max_N              =  -2.4856067650517E+00
(PID.TID 0000.0001) // =======================================================
(PID.TID 0000.0001) // End MONITOR Therm.SeaIce statistics
(PID.TID 0000.0001) // =======================================================
 cg2d: Sum(rhs),rhsMax =  -6.07542460784316E-10  2.57946958991547E+04
(PID.TID 0000.0001)                    cg2d_init_res =    1.31466356819901E+04
(PID.TID 0000.0001)                       cg2d_iters =    16
(PID.TID 0000.0001)                         cg2d_res =    8.69122074655831E-11
(PID.TID 0000.0001) // =======================================================
(PID.TID 0000.0001) // Begin MONITOR dynamic field statistics
(PID.TID 0000.0001) // =======================================================
(PID.TID 0000.0001) %MON time_tsnumber                =                    16
(PID.TID 0000.0001) %MON time_secondsf                =   7.2000000000000E+03
(PID.TID 0000.0001) %MON dynstat_eta_max              =   4.9129673553988E+03
(PID.TID 0000.0001) %MON dynstat_eta_min              =  -1.3028286509763E+03
(PID.TID 0000.0001) %MON dynstat_eta_mean             =  -2.4098636671523E-15
(PID.TID 0000.0001) %MON dynstat_eta_sd               =   5.5342104734623E+02
(PID.TID 0000.0001) %MON dynstat_eta_del2             =   3.7582974906601E+01
(PID.TID 0000.0001) %MON dynstat_uvel_max             =   5.8604454469244E+00
(PID.TID 0000.0001) %MON dynstat_uvel_min             =  -6.5121076207094E+00
(PID.TID 0000.0001) %MON dynstat_uvel_mean            =  -9.6028931615753E-03
(PID.TID 0000.0001) %MON dynstat_uvel_sd              =   7.9177781535897E-01
(PID.TID 0000.0001) %MON dynstat_uvel_del2            =   2.0054373515197E-02
(PID.TID 0000.0001) %MON dynstat_vvel_max             =   5.9716225229695E+00
(PID.TID 0000.0001) %MON dynstat_vvel_min             =  -6.3080971730039E+00
(PID.TID 0000.0001) %MON dynstat_vvel_mean            =   2.3482765793762E-02
(PID.TID 0000.0001) %MON dynstat_vvel_sd              =   8.2323554767747E-01
(PID.TID 0000.0001) %MON dynstat_vvel_del2            =   2.0030892961742E-02
(PID.TID 0000.0001) %MON dynstat_wvel_max             =   1.6218424761395E-01
(PID.TID 0000.0001) %MON dynstat_wvel_min             =  -1.6268486235119E-01
(PID.TID 0000.0001) %MON dynstat_wvel_mean            =  -6.5594363845398E-04
(PID.TID 0000.0001) %MON dynstat_wvel_sd              =   8.5722344000132E-03
(PID.TID 0000.0001) %MON dynstat_wvel_del2            =   1.2903513246125E-03
(PID.TID 0000.0001) %MON dynstat_theta_max            =   4.3805814252002E+02
(PID.TID 0000.0001) %MON dynstat_theta_min            =   2.8570153565181E+02
(PID.TID 0000.0001) %MON dynstat_theta_mean           =   3.3170215654812E+02
(PID.TID 0000.0001) %MON dynstat_theta_sd             =   4.7435287974237E+01
(PID.TID 0000.0001) %MON dynstat_theta_del2           =   1.7908015920762E-02
(PID.TID 0000.0001) %MON dynstat_salt_max             =   3.8410106746437E+00
(PID.TID 0000.0001) %MON dynstat_salt_min             =  -3.2292610796802E-03
(PID.TID 0000.0001) %MON dynstat_salt_mean            =   5.9656100180995E-02
(PID.TID 0000.0001) %MON dynstat_salt_sd              =   2.4550671400514E-01
(PID.TID 0000.0001) %MON dynstat_salt_del2            =   7.8894975545519E-03
(PID.TID 0000.0001) %MON advcfl_uvel_max              =   9.1800656984527E-03
(PID.TID 0000.0001) %MON advcfl_vvel_max              =   9.1189623523729E-03
(PID.TID 0000.0001) %MON advcfl_wvel_max              =   4.0645251899359E-03
(PID.TID 0000.0001) %MON advcfl_W_hf_max              =   1.4380753125553E-02
(PID.TID 0000.0001) %MON pe_b_mean                    =  -1.1078092392092E+00
(PID.TID 0000.0001) %MON ke_max                       =   2.6901960061479E+01
(PID.TID 0000.0001) %MON ke_mean                      =   6.4878322700993E-01
(PID.TID 0000.0001) %MON ke_vol                       =   4.9523908919847E+19
(PID.TID 0000.0001) %MON vort_r_min                   =  -2.7071652737805E-05
(PID.TID 0000.0001) %MON vort_r_max                   =   1.4966318444592E-05
(PID.TID 0000.0001) %MON vort_a_mean                  =   6.7059142262085E-08
(PID.TID 0000.0001) %MON vort_a_sd                    =   8.3738195962010E-05
(PID.TID 0000.0001) %MON vort_p_mean                  =   6.8751151459578E-08
(PID.TID 0000.0001) %MON vort_p_sd                    =   9.1655733868316E-05
(PID.TID 0000.0001) %MON surfExpan_theta_mean         =   6.0936929476034E-02
(PID.TID 0000.0001) %MON surfExpan_salt_mean          =  -3.0285158291461E-04
(PID.TID 0000.0001) %MON surfExpan_Heat_mean          =  -5.4374764699097E+00
(PID.TID 0000.0001) %MON En_Budget_T2PE_mean          =   9.9243774390780E+00
(PID.TID 0000.0001) // =======================================================
(PID.TID 0000.0001) // End MONITOR dynamic field statistics
(PID.TID 0000.0001) // =======================================================
(PID.TID 0000.0001) // =======================================================
(PID.TID 0000.0001) // Begin MONITOR Land statistics
(PID.TID 0000.0001) // =======================================================
(PID.TID 0000.0001) %MON land_time_sec                =   7.2000000000000E+03
(PID.TID 0000.0001) %MON land_SnwH_ave_G              =   1.5323234502706E-01
(PID.TID 0000.0001) %MON land_SnwH_ave_S              =   5.5904904065113E-01
(PID.TID 0000.0001) %MON land_SnwH_ave_T              =   0.0000000000000E+00
(PID.TID 0000.0001) %MON land_SnwH_ave_N              =   1.2391193516960E-01
(PID.TID 0000.0001) %MON land_SnwH_max_S              =   9.9999147005975E-01
(PID.TID 0000.0001) %MON land_SnwH_max_T              =   0.0000000000000E+00
(PID.TID 0000.0001) %MON land_SnwH_max_N              =   9.9999891179942E-01
(PID.TID 0000.0001) %MON land_TotEnerg_G              =  -6.3340969561271E+21
(PID.TID 0000.0001) %MON land_TotEnerg_S              =  -5.0010184966961E+21
(PID.TID 0000.0001) %MON land_TotEnerg_T              =   7.2879534130151E+21
(PID.TID 0000.0001) %MON land_TotEnerg_N              =  -8.6210318724462E+21
(PID.TID 0000.0001) %MON land_Tsrf_ave_G              =  -7.8602134892861E+00
(PID.TID 0000.0001) %MON land_Tsrf_ave_S              =  -7.1250098807351E+00
(PID.TID 0000.0001) %MON land_Tsrf_ave_T              =   1.1463507881740E+01
(PID.TID 0000.0001) %MON land_Tsrf_ave_N              =  -2.1002521890883E+01
(PID.TID 0000.0001) %MON land_Tsrf_min_S              =  -3.3876440168314E+01
(PID.TID 0000.0001) %MON land_Tsrf_min_T              =  -4.7856508396779E+00
(PID.TID 0000.0001) %MON land_Tsrf_min_N              =  -5.2018208433974E+01
(PID.TID 0000.0001) %MON land_Tsrf_max_S              =   2.1807444670489E+01
(PID.TID 0000.0001) %MON land_Tsrf_max_T              =   2.2770224983570E+01
(PID.TID 0000.0001) %MON land_Tsrf_max_N              =   9.9141856055414E+00
(PID.TID 0000.0001) %MON land_Tgr1_ave_G              =  -6.5766612345508E+00
(PID.TID 0000.0001) %MON land_Tgr1_ave_S              =  -6.7571491576505E+00
(PID.TID 0000.0001) %MON land_Tgr1_ave_T              =   1.1463507881740E+01
(PID.TID 0000.0001) %MON land_Tgr1_ave_N              =  -1.8564806435590E+01
(PID.TID 0000.0001) %MON land_Tgr1_min_S              =  -3.9174190444702E+01
(PID.TID 0000.0001) %MON land_Tgr1_min_T              =  -4.7856508396779E+00
(PID.TID 0000.0001) %MON land_Tgr1_min_N              =  -5.4807884376570E+01
(PID.TID 0000.0001) %MON land_Tgr1_max_S              =   2.1807444670489E+01
(PID.TID 0000.0001) %MON land_Tgr1_max_T              =   2.2770224983570E+01
(PID.TID 0000.0001) %MON land_Tgr1_max_N              =   9.9141856055414E+00
(PID.TID 0000.0001) %MON land_Tgr2_ave_G              =   4.2052779839677E+00
(PID.TID 0000.0001) %MON land_Tgr2_ave_S              =  -1.8728415962498E+01
(PID.TID 0000.0001) %MON land_Tgr2_ave_T              =   2.2011073509987E+01
(PID.TID 0000.0001) %MON land_Tgr2_ave_N              =  -2.4535802978615E-01
(PID.TID 0000.0001) %MON land_Tgr2_min_S              =  -6.4755368630814E+01
(PID.TID 0000.0001) %MON land_Tgr2_min_T              =  -9.7043901174086E+00
(PID.TID 0000.0001) %MON land_Tgr2_min_N              =  -4.0197451930782E+01
(PID.TID 0000.0001) %MON land_Tgr2_max_S              =   2.3360510159747E+01
(PID.TID 0000.0001) %MON land_Tgr2_max_T              =   3.1355532042187E+01
(PID.TID 0000.0001) %MON land_Tgr2_max_N              =   2.9826184538999E+01
(PID.TID 0000.0001) %MON land_grdW_ave_G              =   4.8683437069107E-01
(PID.TID 0000.0001) %MON land_grdW_ave_S              =   3.0859819639250E-01
(PID.TID 0000.0001) %MON land_grdW_ave_T              =   5.6437020941866E-01
(PID.TID 0000.0001) %MON land_grdW_ave_N              =   4.9287694681113E-01
(PID.TID 0000.0001) %MON land_grdW_min_S              =   2.6739957139309E-02
(PID.TID 0000.0001) %MON land_grdW_min_T              =   0.0000000000000E+00
(PID.TID 0000.0001) %MON land_grdW_min_N              =   0.0000000000000E+00
(PID.TID 0000.0001) // =======================================================
(PID.TID 0000.0001) // End MONITOR Land statistics
(PID.TID 0000.0001) // =======================================================
(PID.TID 0000.0001) // =======================================================
(PID.TID 0000.0001) // Begin MONITOR Therm.SeaIce statistics
(PID.TID 0000.0001) // =======================================================
(PID.TID 0000.0001) %MON thSI_time_sec                =   7.2000000000000E+03
(PID.TID 0000.0001) %MON thSI_Ice_Area_G              =   1.5786736834241E+11
(PID.TID 0000.0001) %MON thSI_Ice_Area_S              =   0.0000000000000E+00
(PID.TID 0000.0001) %MON thSI_Ice_Area_N              =   1.5786736834241E+11
(PID.TID 0000.0001) %MON thSI_IceH_ave_G              =   1.3359900136375E-01
(PID.TID 0000.0001) %MON thSI_IceH_ave_S              =   0.0000000000000E+00
(PID.TID 0000.0001) %MON thSI_IceH_ave_N              =   1.3359900136375E-01
(PID.TID 0000.0001) %MON thSI_IceH_max_S              =   0.0000000000000E+00
(PID.TID 0000.0001) %MON thSI_IceH_max_N              =   1.4236457470795E-01
(PID.TID 0000.0001) %MON thSI_SnwH_ave_G              =   0.0000000000000E+00
(PID.TID 0000.0001) %MON thSI_SnwH_ave_S              =   0.0000000000000E+00
(PID.TID 0000.0001) %MON thSI_SnwH_ave_N              =   0.0000000000000E+00
(PID.TID 0000.0001) %MON thSI_SnwH_max_S              =   0.0000000000000E+00
(PID.TID 0000.0001) %MON thSI_SnwH_max_N              =   0.0000000000000E+00
(PID.TID 0000.0001) %MON thSI_TotEnerg_G              =  -6.4665289474733E+18
(PID.TID 0000.0001) %MON thSI_Tsrf_ave_G              =  -7.7959770425047E+00
(PID.TID 0000.0001) %MON thSI_Tsrf_ave_S              =   0.0000000000000E+00
(PID.TID 0000.0001) %MON thSI_Tsrf_ave_N              =  -7.7959770425047E+00
(PID.TID 0000.0001) %MON thSI_Tsrf_min_S              =   0.0000000000000E+00
(PID.TID 0000.0001) %MON thSI_Tsrf_min_N              =  -7.8885880751528E+00
(PID.TID 0000.0001) %MON thSI_Tsrf_max_S              =   0.0000000000000E+00
(PID.TID 0000.0001) %MON thSI_Tsrf_max_N              =  -7.6242251762018E+00
(PID.TID 0000.0001) %MON thSI_Tic1_ave_G              =  -5.3286661149030E+00
(PID.TID 0000.0001) %MON thSI_Tic1_ave_S              =   0.0000000000000E+00
(PID.TID 0000.0001) %MON thSI_Tic1_ave_N              =  -5.3286661149030E+00
(PID.TID 0000.0001) %MON thSI_Tic1_min_S              =   0.0000000000000E+00
(PID.TID 0000.0001) %MON thSI_Tic1_min_N              =  -5.4144259561993E+00
(PID.TID 0000.0001) %MON thSI_Tic1_max_S              =   0.0000000000000E+00
(PID.TID 0000.0001) %MON thSI_Tic1_max_N              =  -5.2516791304636E+00
(PID.TID 0000.0001) %MON thSI_Tic2_ave_G              =  -2.6195747601544E+00
(PID.TID 0000.0001) %MON thSI_Tic2_ave_S              =   0.0000000000000E+00
(PID.TID 0000.0001) %MON thSI_Tic2_ave_N              =  -2.6195747601544E+00
(PID.TID 0000.0001) %MON thSI_Tic2_min_S              =   0.0000000000000E+00
(PID.TID 0000.0001) %MON thSI_Tic2_min_N              =  -2.7125253796139E+00
(PID.TID 0000.0001) %MON thSI_Tic2_max_S              =   0.0000000000000E+00
(PID.TID 0000.0001) %MON thSI_Tic2_max_N              =  -2.5381370829964E+00
(PID.TID 0000.0001) // =======================================================
(PID.TID 0000.0001) // End MONITOR Therm.SeaIce statistics
(PID.TID 0000.0001) // =======================================================
 cg2d: Sum(rhs),rhsMax =  -5.96628524363041E-10  2.57458291790731E+04
(PID.TID 0000.0001)                    cg2d_init_res =    1.27177551712234E+04
(PID.TID 0000.0001)                       cg2d_iters =    16
(PID.TID 0000.0001)                         cg2d_res =    8.52059587813873E-11
(PID.TID 0000.0001) // =======================================================
(PID.TID 0000.0001) // Begin MONITOR dynamic field statistics
(PID.TID 0000.0001) // =======================================================
(PID.TID 0000.0001) %MON time_tsnumber                =                    17
(PID.TID 0000.0001) %MON time_secondsf                =   7.6500000000000E+03
(PID.TID 0000.0001) %MON dynstat_eta_max              =   4.9097916074180E+03
(PID.TID 0000.0001) %MON dynstat_eta_min              =  -1.2214748940257E+03
(PID.TID 0000.0001) %MON dynstat_eta_mean             =  -4.0164394452539E-16
(PID.TID 0000.0001) %MON dynstat_eta_sd               =   5.5931874441870E+02
(PID.TID 0000.0001) %MON dynstat_eta_del2             =   3.7444055563565E+01
(PID.TID 0000.0001) %MON dynstat_uvel_max             =   5.9131259216859E+00
(PID.TID 0000.0001) %MON dynstat_uvel_min             =  -6.4929990866162E+00
(PID.TID 0000.0001) %MON dynstat_uvel_mean            =  -9.3131009006319E-03
(PID.TID 0000.0001) %MON dynstat_uvel_sd              =   7.9872013555230E-01
(PID.TID 0000.0001) %MON dynstat_uvel_del2            =   2.0494546938373E-02
(PID.TID 0000.0001) %MON dynstat_vvel_max             =   5.3252546104773E+00
(PID.TID 0000.0001) %MON dynstat_vvel_min             =  -5.8634911103248E+00
(PID.TID 0000.0001) %MON dynstat_vvel_mean            =   2.4837150617503E-02
(PID.TID 0000.0001) %MON dynstat_vvel_sd              =   8.1463635324252E-01
(PID.TID 0000.0001) %MON dynstat_vvel_del2            =   2.0351611368466E-02
(PID.TID 0000.0001) %MON dynstat_wvel_max             =   1.7225789296198E-01
(PID.TID 0000.0001) %MON dynstat_wvel_min             =  -1.2169859715782E-01
(PID.TID 0000.0001) %MON dynstat_wvel_mean            =  -4.9244351046329E-04
(PID.TID 0000.0001) %MON dynstat_wvel_sd              =   8.3399936091046E-03
(PID.TID 0000.0001) %MON dynstat_wvel_del2            =   1.3262634787173E-03
(PID.TID 0000.0001) %MON dynstat_theta_max            =   4.3815777523437E+02
(PID.TID 0000.0001) %MON dynstat_theta_min            =   2.8546852648394E+02
(PID.TID 0000.0001) %MON dynstat_theta_mean           =   3.3170046061584E+02
(PID.TID 0000.0001) %MON dynstat_theta_sd             =   4.7437196707846E+01
(PID.TID 0000.0001) %MON dynstat_theta_del2           =   1.8754520174975E-02
(PID.TID 0000.0001) %MON dynstat_salt_max             =   3.9392866728885E+00
(PID.TID 0000.0001) %MON dynstat_salt_min             =  -3.5924441818613E-03
(PID.TID 0000.0001) %MON dynstat_salt_mean            =   6.3154260271704E-02
(PID.TID 0000.0001) %MON dynstat_salt_sd              =   2.5863400152992E-01
(PID.TID 0000.0001) %MON dynstat_salt_del2            =   8.2463746851511E-03
(PID.TID 0000.0001) %MON advcfl_uvel_max              =   9.1531285517418E-03
(PID.TID 0000.0001) %MON advcfl_vvel_max              =   8.3580993853745E-03
(PID.TID 0000.0001) %MON advcfl_wvel_max              =   3.7417060024039E-03
(PID.TID 0000.0001) %MON advcfl_W_hf_max              =   1.3215238556244E-02
(PID.TID 0000.0001) %MON pe_b_mean                    =  -1.1168469321274E+00
(PID.TID 0000.0001) %MON ke_max                       =   2.5016693256669E+01
(PID.TID 0000.0001) %MON ke_mean                      =   6.4729785183326E-01
(PID.TID 0000.0001) %MON ke_vol                       =   4.9523908919847E+19
(PID.TID 0000.0001) %MON vort_r_min                   =  -2.5763908122755E-05
(PID.TID 0000.0001) %MON vort_r_max                   =   1.3518273781628E-05
(PID.TID 0000.0001) %MON vort_a_mean                  =   6.7059142262016E-08
(PID.TID 0000.0001) %MON vort_a_sd                    =   8.3740863431125E-05
(PID.TID 0000.0001) %MON vort_p_mean                  =   6.8751152925746E-08
(PID.TID 0000.0001) %MON vort_p_sd                    =   9.1655338971996E-05
(PID.TID 0000.0001) %MON surfExpan_theta_mean         =   4.4732765337104E-02
(PID.TID 0000.0001) %MON surfExpan_salt_mean          =  -3.5136604889678E-04
(PID.TID 0000.0001) %MON surfExpan_Heat_mean          =  -4.1035400935339E+00
(PID.TID 0000.0001) %MON En_Budget_T2PE_mean          =   7.4027265244071E+00
(PID.TID 0000.0001) // =======================================================
(PID.TID 0000.0001) // End MONITOR dynamic field statistics
(PID.TID 0000.0001) // =======================================================
(PID.TID 0000.0001) // =======================================================
(PID.TID 0000.0001) // Begin MONITOR Land statistics
(PID.TID 0000.0001) // =======================================================
(PID.TID 0000.0001) %MON land_time_sec                =   7.6500000000000E+03
(PID.TID 0000.0001) %MON land_SnwH_ave_G              =   1.5323136856271E-01
(PID.TID 0000.0001) %MON land_SnwH_ave_S              =   5.5904816469233E-01
(PID.TID 0000.0001) %MON land_SnwH_ave_T              =   0.0000000000000E+00
(PID.TID 0000.0001) %MON land_SnwH_ave_N              =   1.2391027404770E-01
(PID.TID 0000.0001) %MON land_SnwH_max_S              =   9.9999090719741E-01
(PID.TID 0000.0001) %MON land_SnwH_max_T              =   0.0000000000000E+00
(PID.TID 0000.0001) %MON land_SnwH_max_N              =   9.9999884805368E-01
(PID.TID 0000.0001) %MON land_TotEnerg_G              =  -6.3366741186221E+21
(PID.TID 0000.0001) %MON land_TotEnerg_S              =  -5.0012404677527E+21
(PID.TID 0000.0001) %MON land_TotEnerg_T              =   7.2863148722237E+21
(PID.TID 0000.0001) %MON land_TotEnerg_N              =  -8.6217485230930E+21
(PID.TID 0000.0001) %MON land_Tsrf_ave_G              =  -7.9513648206774E+00
(PID.TID 0000.0001) %MON land_Tsrf_ave_S              =  -7.2017311325584E+00
(PID.TID 0000.0001) %MON land_Tsrf_ave_T              =   1.1274738108853E+01
(PID.TID 0000.0001) %MON land_Tsrf_ave_N              =  -2.1033167527840E+01
(PID.TID 0000.0001) %MON land_Tsrf_min_S              =  -3.3826077966948E+01
(PID.TID 0000.0001) %MON land_Tsrf_min_T              =  -4.6354476599874E+00
(PID.TID 0000.0001) %MON land_Tsrf_min_N              =  -5.2028987352753E+01
(PID.TID 0000.0001) %MON land_Tsrf_max_S              =   2.1565890632646E+01
(PID.TID 0000.0001) %MON land_Tsrf_max_T              =   2.2419495364558E+01
(PID.TID 0000.0001) %MON land_Tsrf_max_N              =   9.7172987916729E+00
(PID.TID 0000.0001) %MON land_Tgr1_ave_G              =  -6.6705298626294E+00
(PID.TID 0000.0001) %MON land_Tgr1_ave_S              =  -6.8277419190475E+00
(PID.TID 0000.0001) %MON land_Tgr1_ave_T              =   1.1274738108853E+01
(PID.TID 0000.0001) %MON land_Tgr1_ave_N              =  -1.8602853419490E+01
(PID.TID 0000.0001) %MON land_Tgr1_min_S              =  -3.9185356210344E+01
(PID.TID 0000.0001) %MON land_Tgr1_min_T              =  -4.6354476599874E+00
(PID.TID 0000.0001) %MON land_Tgr1_min_N              =  -5.4795214802595E+01
(PID.TID 0000.0001) %MON land_Tgr1_max_S              =   2.1565890632646E+01
(PID.TID 0000.0001) %MON land_Tgr1_max_T              =   2.2419495364558E+01
(PID.TID 0000.0001) %MON land_Tgr1_max_N              =   9.7172987916729E+00
(PID.TID 0000.0001) %MON land_Tgr2_ave_G              =   4.2051112547069E+00
(PID.TID 0000.0001) %MON land_Tgr2_ave_S              =  -1.8728216808715E+01
(PID.TID 0000.0001) %MON land_Tgr2_ave_T              =   2.2010898692665E+01
(PID.TID 0000.0001) %MON land_Tgr2_ave_N              =  -2.4563804830837E-01
(PID.TID 0000.0001) %MON land_Tgr2_min_S              =  -6.4754937491086E+01
(PID.TID 0000.0001) %MON land_Tgr2_min_T              =  -9.7043260696564E+00
(PID.TID 0000.0001) %MON land_Tgr2_min_N              =  -4.0197689355366E+01
(PID.TID 0000.0001) %MON land_Tgr2_max_S              =   2.3360469156026E+01
(PID.TID 0000.0001) %MON land_Tgr2_max_T              =   3.1355129974841E+01
(PID.TID 0000.0001) %MON land_Tgr2_max_N              =   2.9825703886434E+01
(PID.TID 0000.0001) %MON land_grdW_ave_G              =   4.8682507432963E-01
(PID.TID 0000.0001) %MON land_grdW_ave_S              =   3.0858953483411E-01
(PID.TID 0000.0001) %MON land_grdW_ave_T              =   5.6434715510540E-01
(PID.TID 0000.0001) %MON land_grdW_ave_N              =   4.9287663167905E-01
(PID.TID 0000.0001) %MON land_grdW_min_S              =   2.6822085023168E-02
(PID.TID 0000.0001) %MON land_grdW_min_T              =   0.0000000000000E+00
(PID.TID 0000.0001) %MON land_grdW_min_N              =   0.0000000000000E+00
(PID.TID 0000.0001) // =======================================================
(PID.TID 0000.0001) // End MONITOR Land statistics
(PID.TID 0000.0001) // =======================================================
(PID.TID 0000.0001) // =======================================================
(PID.TID 0000.0001) // Begin MONITOR Therm.SeaIce statistics
(PID.TID 0000.0001) // =======================================================
(PID.TID 0000.0001) %MON thSI_time_sec                =   7.6500000000000E+03
(PID.TID 0000.0001) %MON thSI_Ice_Area_G              =   1.5983771560224E+11
(PID.TID 0000.0001) %MON thSI_Ice_Area_S              =   0.0000000000000E+00
(PID.TID 0000.0001) %MON thSI_Ice_Area_N              =   1.5983771560224E+11
(PID.TID 0000.0001) %MON thSI_IceH_ave_G              =   1.3425249456685E-01
(PID.TID 0000.0001) %MON thSI_IceH_ave_S              =   0.0000000000000E+00
(PID.TID 0000.0001) %MON thSI_IceH_ave_N              =   1.3425249456685E-01
(PID.TID 0000.0001) %MON thSI_IceH_max_S              =   0.0000000000000E+00
(PID.TID 0000.0001) %MON thSI_IceH_max_N              =   1.4309623660407E-01
(PID.TID 0000.0001) %MON thSI_SnwH_ave_G              =   0.0000000000000E+00
(PID.TID 0000.0001) %MON thSI_SnwH_ave_S              =   0.0000000000000E+00
(PID.TID 0000.0001) %MON thSI_SnwH_ave_N              =   0.0000000000000E+00
(PID.TID 0000.0001) %MON thSI_SnwH_max_S              =   0.0000000000000E+00
(PID.TID 0000.0001) %MON thSI_SnwH_max_N              =   0.0000000000000E+00
(PID.TID 0000.0001) %MON thSI_TotEnerg_G              =  -6.5853530226703E+18
(PID.TID 0000.0001) %MON thSI_Tsrf_ave_G              =  -7.9671298878726E+00
(PID.TID 0000.0001) %MON thSI_Tsrf_ave_S              =   0.0000000000000E+00
(PID.TID 0000.0001) %MON thSI_Tsrf_ave_N              =  -7.9671298878726E+00
(PID.TID 0000.0001) %MON thSI_Tsrf_min_S              =   0.0000000000000E+00
(PID.TID 0000.0001) %MON thSI_Tsrf_min_N              =  -8.0620686819465E+00
(PID.TID 0000.0001) %MON thSI_Tsrf_max_S              =   0.0000000000000E+00
(PID.TID 0000.0001) %MON thSI_Tsrf_max_N              =  -7.7864368873425E+00
(PID.TID 0000.0001) %MON thSI_Tic1_ave_G              =  -5.4897596760871E+00
(PID.TID 0000.0001) %MON thSI_Tic1_ave_S              =   0.0000000000000E+00
(PID.TID 0000.0001) %MON thSI_Tic1_ave_N              =  -5.4897596760871E+00
(PID.TID 0000.0001) %MON thSI_Tic1_min_S              =   0.0000000000000E+00
(PID.TID 0000.0001) %MON thSI_Tic1_min_N              =  -5.5763579785203E+00
(PID.TID 0000.0001) %MON thSI_Tic1_max_S              =   0.0000000000000E+00
(PID.TID 0000.0001) %MON thSI_Tic1_max_N              =  -5.4115206451137E+00
(PID.TID 0000.0001) %MON thSI_Tic2_ave_G              =  -2.6717867664960E+00
(PID.TID 0000.0001) %MON thSI_Tic2_ave_S              =   0.0000000000000E+00
(PID.TID 0000.0001) %MON thSI_Tic2_ave_N              =  -2.6717867664960E+00
(PID.TID 0000.0001) %MON thSI_Tic2_min_S              =   0.0000000000000E+00
(PID.TID 0000.0001) %MON thSI_Tic2_min_N              =  -2.7684992486523E+00
(PID.TID 0000.0001) %MON thSI_Tic2_max_S              =   0.0000000000000E+00
(PID.TID 0000.0001) %MON thSI_Tic2_max_N              =  -2.5868269086121E+00
(PID.TID 0000.0001) // =======================================================
(PID.TID 0000.0001) // End MONITOR Therm.SeaIce statistics
(PID.TID 0000.0001) // =======================================================
 cg2d: Sum(rhs),rhsMax =  -1.89174897968769E-10  2.63812007461120E+04
(PID.TID 0000.0001)                    cg2d_init_res =    1.24561445655866E+04
(PID.TID 0000.0001)                       cg2d_iters =    16
(PID.TID 0000.0001)                         cg2d_res =    8.28722156377253E-11
(PID.TID 0000.0001) // =======================================================
(PID.TID 0000.0001) // Begin MONITOR dynamic field statistics
(PID.TID 0000.0001) // =======================================================
(PID.TID 0000.0001) %MON time_tsnumber                =                    18
(PID.TID 0000.0001) %MON time_secondsf                =   8.1000000000000E+03
(PID.TID 0000.0001) %MON dynstat_eta_max              =   4.8421461166136E+03
(PID.TID 0000.0001) %MON dynstat_eta_min              =  -1.1364349886573E+03
(PID.TID 0000.0001) %MON dynstat_eta_mean             =   7.2295910014570E-15
(PID.TID 0000.0001) %MON dynstat_eta_sd               =   5.6241269620548E+02
(PID.TID 0000.0001) %MON dynstat_eta_del2             =   3.7288406148248E+01
(PID.TID 0000.0001) %MON dynstat_uvel_max             =   5.9424382059650E+00
(PID.TID 0000.0001) %MON dynstat_uvel_min             =  -6.3347613596901E+00
(PID.TID 0000.0001) %MON dynstat_uvel_mean            =  -8.6785986348751E-03
(PID.TID 0000.0001) %MON dynstat_uvel_sd              =   8.0675784272224E-01
(PID.TID 0000.0001) %MON dynstat_uvel_del2            =   2.1051517523005E-02
(PID.TID 0000.0001) %MON dynstat_vvel_max             =   4.8050617532502E+00
(PID.TID 0000.0001) %MON dynstat_vvel_min             =  -5.7154768045507E+00
(PID.TID 0000.0001) %MON dynstat_vvel_mean            =   2.6025151269004E-02
(PID.TID 0000.0001) %MON dynstat_vvel_sd              =   8.0801013876931E-01
(PID.TID 0000.0001) %MON dynstat_vvel_del2            =   2.0732945710613E-02
(PID.TID 0000.0001) %MON dynstat_wvel_max             =   1.8079506113954E-01
(PID.TID 0000.0001) %MON dynstat_wvel_min             =  -1.0750530299646E-01
(PID.TID 0000.0001) %MON dynstat_wvel_mean            =  -3.3127328096120E-04
(PID.TID 0000.0001) %MON dynstat_wvel_sd              =   8.3983269178391E-03
(PID.TID 0000.0001) %MON dynstat_wvel_del2            =   1.3729686988118E-03
(PID.TID 0000.0001) %MON dynstat_theta_max            =   4.3823384632390E+02
(PID.TID 0000.0001) %MON dynstat_theta_min            =   2.8523734393075E+02
(PID.TID 0000.0001) %MON dynstat_theta_mean           =   3.3169872189360E+02
(PID.TID 0000.0001) %MON dynstat_theta_sd             =   4.7439130473784E+01
(PID.TID 0000.0001) %MON dynstat_theta_del2           =   1.9587038852939E-02
(PID.TID 0000.0001) %MON dynstat_salt_max             =   4.0301215191065E+00
(PID.TID 0000.0001) %MON dynstat_salt_min             =  -3.9763884435112E-03
(PID.TID 0000.0001) %MON dynstat_salt_mean            =   6.6635404825178E-02
(PID.TID 0000.0001) %MON dynstat_salt_sd              =   2.7159339061849E-01
(PID.TID 0000.0001) %MON dynstat_salt_del2            =   8.5916780664686E-03
(PID.TID 0000.0001) %MON advcfl_uvel_max              =   8.9956700678020E-03
(PID.TID 0000.0001) %MON advcfl_vvel_max              =   8.1471127470663E-03
(PID.TID 0000.0001) %MON advcfl_wvel_max              =   3.3494695977779E-03
(PID.TID 0000.0001) %MON advcfl_W_hf_max              =   1.2593792774802E-02
(PID.TID 0000.0001) %MON pe_b_mean                    =  -1.1278312781152E+00
(PID.TID 0000.0001) %MON ke_max                       =   2.3797156841193E+01
(PID.TID 0000.0001) %MON ke_mean                      =   6.4838938603506E-01
(PID.TID 0000.0001) %MON ke_vol                       =   4.9523908919847E+19
(PID.TID 0000.0001) %MON vort_r_min                   =  -2.4144140902661E-05
(PID.TID 0000.0001) %MON vort_r_max                   =   1.1649789821854E-05
(PID.TID 0000.0001) %MON vort_a_mean                  =   6.7059142262043E-08
(PID.TID 0000.0001) %MON vort_a_sd                    =   8.3743552995868E-05
(PID.TID 0000.0001) %MON vort_p_mean                  =   6.8751154244243E-08
(PID.TID 0000.0001) %MON vort_p_sd                    =   9.1651674011323E-05
(PID.TID 0000.0001) %MON surfExpan_theta_mean         =   2.8857056403952E-02
(PID.TID 0000.0001) %MON surfExpan_salt_mean          =  -4.0600823596286E-04
(PID.TID 0000.0001) %MON surfExpan_Heat_mean          =  -2.7879605209171E+00
(PID.TID 0000.0001) %MON En_Budget_T2PE_mean          =   4.9223537342906E+00
(PID.TID 0000.0001) // =======================================================
(PID.TID 0000.0001) // End MONITOR dynamic field statistics
(PID.TID 0000.0001) // =======================================================
(PID.TID 0000.0001) // =======================================================
(PID.TID 0000.0001) // Begin MONITOR Land statistics
(PID.TID 0000.0001) // =======================================================
(PID.TID 0000.0001) %MON land_time_sec                =   8.1000000000000E+03
(PID.TID 0000.0001) %MON land_SnwH_ave_G              =   1.5323039687458E-01
(PID.TID 0000.0001) %MON land_SnwH_ave_S              =   5.5904729498763E-01
(PID.TID 0000.0001) %MON land_SnwH_ave_T              =   0.0000000000000E+00
(PID.TID 0000.0001) %MON land_SnwH_ave_N              =   1.2390862041199E-01
(PID.TID 0000.0001) %MON land_SnwH_max_S              =   9.9999034227931E-01
(PID.TID 0000.0001) %MON land_SnwH_max_T              =   0.0000000000000E+00
(PID.TID 0000.0001) %MON land_SnwH_max_N              =   9.9999878439990E-01
(PID.TID 0000.0001) %MON land_TotEnerg_G              =  -6.3390527581546E+21
(PID.TID 0000.0001) %MON land_TotEnerg_S              =  -5.0014353016111E+21
(PID.TID 0000.0001) %MON land_TotEnerg_T              =   7.2848314810091E+21
(PID.TID 0000.0001) %MON land_TotEnerg_N              =  -8.6224489375526E+21
(PID.TID 0000.0001) %MON land_Tsrf_ave_G              =  -8.0321836104849E+00
(PID.TID 0000.0001) %MON land_Tsrf_ave_S              =  -7.2590381470417E+00
(PID.TID 0000.0001) %MON land_Tsrf_ave_T              =   1.1104229782192E+01
(PID.TID 0000.0001) %MON land_Tsrf_ave_N              =  -2.1061721359317E+01
(PID.TID 0000.0001) %MON land_Tsrf_min_S              =  -3.3790529422392E+01
(PID.TID 0000.0001) %MON land_Tsrf_min_T              =  -4.4898425818376E+00
(PID.TID 0000.0001) %MON land_Tsrf_min_N              =  -5.2037598867519E+01
(PID.TID 0000.0001) %MON land_Tsrf_max_S              =   2.1350711714493E+01
(PID.TID 0000.0001) %MON land_Tsrf_max_T              =   2.2102163130731E+01
(PID.TID 0000.0001) %MON land_Tsrf_max_N              =   9.5303838866163E+00
(PID.TID 0000.0001) %MON land_Tgr1_ave_G              =  -6.7558917867968E+00
(PID.TID 0000.0001) %MON land_Tgr1_ave_S              =  -6.8905029540619E+00
(PID.TID 0000.0001) %MON land_Tgr1_ave_T              =   1.1104229782192E+01
(PID.TID 0000.0001) %MON land_Tgr1_ave_N              =  -1.8638688670917E+01
(PID.TID 0000.0001) %MON land_Tgr1_min_S              =  -3.9196545474694E+01
(PID.TID 0000.0001) %MON land_Tgr1_min_T              =  -4.4898425818376E+00
(PID.TID 0000.0001) %MON land_Tgr1_min_N              =  -5.4782574540035E+01
(PID.TID 0000.0001) %MON land_Tgr1_max_S              =   2.1350711714493E+01
(PID.TID 0000.0001) %MON land_Tgr1_max_T              =   2.2102163130731E+01
(PID.TID 0000.0001) %MON land_Tgr1_max_N              =   9.5303838866163E+00
(PID.TID 0000.0001) %MON land_Tgr2_ave_G              =   4.2049431908380E+00
(PID.TID 0000.0001) %MON land_Tgr2_ave_S              =  -1.8728018651085E+01
(PID.TID 0000.0001) %MON land_Tgr2_ave_T              =   2.2010721280364E+01
(PID.TID 0000.0001) %MON land_Tgr2_ave_N              =  -2.4591866959155E-01
(PID.TID 0000.0001) %MON land_Tgr2_min_S              =  -6.4754506562926E+01
(PID.TID 0000.0001) %MON land_Tgr2_min_T              =  -9.7042601831279E+00
(PID.TID 0000.0001) %MON land_Tgr2_min_N              =  -4.0197926539979E+01
(PID.TID 0000.0001) %MON land_Tgr2_max_S              =   2.3360424143300E+01
(PID.TID 0000.0001) %MON land_Tgr2_max_T              =   3.1354723497672E+01
(PID.TID 0000.0001) %MON land_Tgr2_max_N              =   2.9825216695677E+01
(PID.TID 0000.0001) %MON land_grdW_ave_G              =   4.8681604755098E-01
(PID.TID 0000.0001) %MON land_grdW_ave_S              =   3.0858102812445E-01
(PID.TID 0000.0001) %MON land_grdW_ave_T              =   5.6432482485088E-01
(PID.TID 0000.0001) %MON land_grdW_ave_N              =   4.9287631986313E-01
(PID.TID 0000.0001) %MON land_grdW_min_S              =   2.6905456936065E-02
(PID.TID 0000.0001) %MON land_grdW_min_T              =   0.0000000000000E+00
(PID.TID 0000.0001) %MON land_grdW_min_N              =   0.0000000000000E+00
(PID.TID 0000.0001) // =======================================================
(PID.TID 0000.0001) // End MONITOR Land statistics
(PID.TID 0000.0001) // =======================================================
(PID.TID 0000.0001) // =======================================================
(PID.TID 0000.0001) // Begin MONITOR Therm.SeaIce statistics
(PID.TID 0000.0001) // =======================================================
(PID.TID 0000.0001) %MON thSI_time_sec                =   8.1000000000000E+03
(PID.TID 0000.0001) %MON thSI_Ice_Area_G              =   1.6178823617478E+11
(PID.TID 0000.0001) %MON thSI_Ice_Area_S              =   0.0000000000000E+00
(PID.TID 0000.0001) %MON thSI_Ice_Area_N              =   1.6178823617478E+11
(PID.TID 0000.0001) %MON thSI_IceH_ave_G              =   1.3491220254325E-01
(PID.TID 0000.0001) %MON thSI_IceH_ave_S              =   0.0000000000000E+00
(PID.TID 0000.0001) %MON thSI_IceH_ave_N              =   1.3491220254325E-01
(PID.TID 0000.0001) %MON thSI_IceH_max_S              =   0.0000000000000E+00
(PID.TID 0000.0001) %MON thSI_IceH_max_N              =   1.4383352246285E-01
(PID.TID 0000.0001) %MON thSI_SnwH_ave_G              =   0.0000000000000E+00
(PID.TID 0000.0001) %MON thSI_SnwH_ave_S              =   0.0000000000000E+00
(PID.TID 0000.0001) %MON thSI_SnwH_ave_N              =   0.0000000000000E+00
(PID.TID 0000.0001) %MON thSI_SnwH_max_S              =   0.0000000000000E+00
(PID.TID 0000.0001) %MON thSI_SnwH_max_N              =   0.0000000000000E+00
(PID.TID 0000.0001) %MON thSI_TotEnerg_G              =  -6.7041703903624E+18
(PID.TID 0000.0001) %MON thSI_Tsrf_ave_G              =  -8.1090470392326E+00
(PID.TID 0000.0001) %MON thSI_Tsrf_ave_S              =   0.0000000000000E+00
(PID.TID 0000.0001) %MON thSI_Tsrf_ave_N              =  -8.1090470392326E+00
(PID.TID 0000.0001) %MON thSI_Tsrf_min_S              =   0.0000000000000E+00
(PID.TID 0000.0001) %MON thSI_Tsrf_min_N              =  -8.2038027403204E+00
(PID.TID 0000.0001) %MON thSI_Tsrf_max_S              =   0.0000000000000E+00
(PID.TID 0000.0001) %MON thSI_Tsrf_max_N              =  -7.9266853331604E+00
(PID.TID 0000.0001) %MON thSI_Tic1_ave_G              =  -5.6518665250251E+00
(PID.TID 0000.0001) %MON thSI_Tic1_ave_S              =   0.0000000000000E+00
(PID.TID 0000.0001) %MON thSI_Tic1_ave_N              =  -5.6518665250251E+00
(PID.TID 0000.0001) %MON thSI_Tic1_min_S              =   0.0000000000000E+00
(PID.TID 0000.0001) %MON thSI_Tic1_min_N              =  -5.7344361059293E+00
(PID.TID 0000.0001) %MON thSI_Tic1_max_S              =   0.0000000000000E+00
(PID.TID 0000.0001) %MON thSI_Tic1_max_N              =  -5.5762598227311E+00
(PID.TID 0000.0001) %MON thSI_Tic2_ave_G              =  -2.7419428955059E+00
(PID.TID 0000.0001) %MON thSI_Tic2_ave_S              =   0.0000000000000E+00
(PID.TID 0000.0001) %MON thSI_Tic2_ave_N              =  -2.7419428955059E+00
(PID.TID 0000.0001) %MON thSI_Tic2_min_S              =   0.0000000000000E+00
(PID.TID 0000.0001) %MON thSI_Tic2_min_N              =  -2.8361617958179E+00
(PID.TID 0000.0001) %MON thSI_Tic2_max_S              =   0.0000000000000E+00
(PID.TID 0000.0001) %MON thSI_Tic2_max_N              =  -2.6583689443327E+00
(PID.TID 0000.0001) // =======================================================
(PID.TID 0000.0001) // End MONITOR Therm.SeaIce statistics
(PID.TID 0000.0001) // =======================================================
 cg2d: Sum(rhs),rhsMax =  -2.76486389338970E-10  2.67619652046957E+04
(PID.TID 0000.0001)                    cg2d_init_res =    1.22932100592104E+04
(PID.TID 0000.0001)                       cg2d_iters =    16
(PID.TID 0000.0001)                         cg2d_res =    8.09535300657744E-11
(PID.TID 0000.0001) // =======================================================
(PID.TID 0000.0001) // Begin MONITOR dynamic field statistics
(PID.TID 0000.0001) // =======================================================
(PID.TID 0000.0001) %MON time_tsnumber                =                    19
(PID.TID 0000.0001) %MON time_secondsf                =   8.5500000000000E+03
(PID.TID 0000.0001) %MON dynstat_eta_max              =   4.7666985147544E+03
(PID.TID 0000.0001) %MON dynstat_eta_min              =  -1.0803648342167E+03
(PID.TID 0000.0001) %MON dynstat_eta_mean             =   3.3738091340133E-14
(PID.TID 0000.0001) %MON dynstat_eta_sd               =   5.6288524570803E+02
(PID.TID 0000.0001) %MON dynstat_eta_del2             =   3.7148641530907E+01
(PID.TID 0000.0001) %MON dynstat_uvel_max             =   5.9537581288461E+00
(PID.TID 0000.0001) %MON dynstat_uvel_min             =  -6.3871302320331E+00
(PID.TID 0000.0001) %MON dynstat_uvel_mean            =  -7.6325015664223E-03
(PID.TID 0000.0001) %MON dynstat_uvel_sd              =   8.1490016959077E-01
(PID.TID 0000.0001) %MON dynstat_uvel_del2            =   2.1574314166128E-02
(PID.TID 0000.0001) %MON dynstat_vvel_max             =   4.4196198740103E+00
(PID.TID 0000.0001) %MON dynstat_vvel_min             =  -5.5420099759611E+00
(PID.TID 0000.0001) %MON dynstat_vvel_mean            =   2.7009236375891E-02
(PID.TID 0000.0001) %MON dynstat_vvel_sd              =   8.0370314458139E-01
(PID.TID 0000.0001) %MON dynstat_vvel_del2            =   2.1121883679499E-02
(PID.TID 0000.0001) %MON dynstat_wvel_max             =   2.2450767325807E-01
(PID.TID 0000.0001) %MON dynstat_wvel_min             =  -9.8200734259171E-02
(PID.TID 0000.0001) %MON dynstat_wvel_mean            =  -1.7513356691730E-04
(PID.TID 0000.0001) %MON dynstat_wvel_sd              =   8.6801358110063E-03
(PID.TID 0000.0001) %MON dynstat_wvel_del2            =   1.4327005466141E-03
(PID.TID 0000.0001) %MON dynstat_theta_max            =   4.3828433641998E+02
(PID.TID 0000.0001) %MON dynstat_theta_min            =   2.8500785310401E+02
(PID.TID 0000.0001) %MON dynstat_theta_mean           =   3.3169694153037E+02
(PID.TID 0000.0001) %MON dynstat_theta_sd             =   4.7441085722310E+01
(PID.TID 0000.0001) %MON dynstat_theta_del2           =   2.0414887807732E-02
(PID.TID 0000.0001) %MON dynstat_salt_max             =   4.1142655965030E+00
(PID.TID 0000.0001) %MON dynstat_salt_min             =  -4.3775448589284E-03
(PID.TID 0000.0001) %MON dynstat_salt_mean            =   7.0100469396647E-02
(PID.TID 0000.0001) %MON dynstat_salt_sd              =   2.8440437846450E-01
(PID.TID 0000.0001) %MON dynstat_salt_del2            =   8.9326116722822E-03
(PID.TID 0000.0001) %MON advcfl_uvel_max              =   9.1099576427593E-03
(PID.TID 0000.0001) %MON advcfl_vvel_max              =   7.8978186637155E-03
(PID.TID 0000.0001) %MON advcfl_wvel_max              =   3.6737619260412E-03
(PID.TID 0000.0001) %MON advcfl_W_hf_max              =   1.4302587860870E-02
(PID.TID 0000.0001) %MON pe_b_mean                    =  -1.1403523299412E+00
(PID.TID 0000.0001) %MON ke_max                       =   2.2374472887050E+01
(PID.TID 0000.0001) %MON ke_mean                      =   6.5151718064358E-01
(PID.TID 0000.0001) %MON ke_vol                       =   4.9523908919847E+19
(PID.TID 0000.0001) %MON vort_r_min                   =  -2.3113158736044E-05
(PID.TID 0000.0001) %MON vort_r_max                   =   9.4257523647127E-06
(PID.TID 0000.0001) %MON vort_a_mean                  =   6.7059142262026E-08
(PID.TID 0000.0001) %MON vort_a_sd                    =   8.3746256558503E-05
(PID.TID 0000.0001) %MON vort_p_mean                  =   6.8751155390271E-08
(PID.TID 0000.0001) %MON vort_p_sd                    =   9.1644806497586E-05
(PID.TID 0000.0001) %MON surfExpan_theta_mean         =   1.3566494857780E-02
(PID.TID 0000.0001) %MON surfExpan_salt_mean          =  -4.6730781570817E-04
(PID.TID 0000.0001) %MON surfExpan_Heat_mean          =  -1.5140735301149E+00
(PID.TID 0000.0001) %MON En_Budget_T2PE_mean          =   2.5253554874197E+00
(PID.TID 0000.0001) // =======================================================
(PID.TID 0000.0001) // End MONITOR dynamic field statistics
(PID.TID 0000.0001) // =======================================================
(PID.TID 0000.0001) // =======================================================
(PID.TID 0000.0001) // Begin MONITOR Land statistics
(PID.TID 0000.0001) // =======================================================
(PID.TID 0000.0001) %MON land_time_sec                =   8.5500000000000E+03
(PID.TID 0000.0001) %MON land_SnwH_ave_G              =   1.5322942827929E-01
(PID.TID 0000.0001) %MON land_SnwH_ave_S              =   5.5904642827327E-01
(PID.TID 0000.0001) %MON land_SnwH_ave_T              =   0.0000000000000E+00
(PID.TID 0000.0001) %MON land_SnwH_ave_N              =   1.2390697196772E-01
(PID.TID 0000.0001) %MON land_SnwH_max_S              =   9.9998977723303E-01
(PID.TID 0000.0001) %MON land_SnwH_max_T              =   0.0000000000000E+00
(PID.TID 0000.0001) %MON land_SnwH_max_N              =   9.9999872082467E-01
(PID.TID 0000.0001) %MON land_TotEnerg_G              =  -6.3412534563954E+21
(PID.TID 0000.0001) %MON land_TotEnerg_S              =  -5.0016058184424E+21
(PID.TID 0000.0001) %MON land_TotEnerg_T              =   7.2834861538686E+21
(PID.TID 0000.0001) %MON land_TotEnerg_N              =  -8.6231337918217E+21
(PID.TID 0000.0001) %MON land_Tsrf_ave_G              =  -8.1039566529409E+00
(PID.TID 0000.0001) %MON land_Tsrf_ave_S              =  -7.2983950339300E+00
(PID.TID 0000.0001) %MON land_Tsrf_ave_T              =   1.0949908088854E+01
(PID.TID 0000.0001) %MON land_Tsrf_ave_N              =  -2.1088886443779E+01
(PID.TID 0000.0001) %MON land_Tsrf_min_S              =  -3.3772184608655E+01
(PID.TID 0000.0001) %MON land_Tsrf_min_T              =  -4.3486483724489E+00
(PID.TID 0000.0001) %MON land_Tsrf_min_N              =  -5.2044954775691E+01
(PID.TID 0000.0001) %MON land_Tsrf_max_S              =   2.1159269047939E+01
(PID.TID 0000.0001) %MON land_Tsrf_max_T              =   2.1815656805121E+01
(PID.TID 0000.0001) %MON land_Tsrf_max_N              =   9.3531670882361E+00
(PID.TID 0000.0001) %MON land_Tgr1_ave_G              =  -6.8338399058798E+00
(PID.TID 0000.0001) %MON land_Tgr1_ave_S              =  -6.9462482431093E+00
(PID.TID 0000.0001) %MON land_Tgr1_ave_T              =   1.0949908088854E+01
(PID.TID 0000.0001) %MON land_Tgr1_ave_N              =  -1.8672839226000E+01
(PID.TID 0000.0001) %MON land_Tgr1_min_S              =  -3.9207744319011E+01
(PID.TID 0000.0001) %MON land_Tgr1_min_T              =  -4.3486483724489E+00
(PID.TID 0000.0001) %MON land_Tgr1_min_N              =  -5.4769962318139E+01
(PID.TID 0000.0001) %MON land_Tgr1_max_S              =   2.1159269047939E+01
(PID.TID 0000.0001) %MON land_Tgr1_max_T              =   2.1815656805121E+01
(PID.TID 0000.0001) %MON land_Tgr1_max_N              =   9.3531670882361E+00
(PID.TID 0000.0001) %MON land_Tgr2_ave_G              =   4.2047739134168E+00
(PID.TID 0000.0001) %MON land_Tgr2_ave_S              =  -1.8727821378638E+01
(PID.TID 0000.0001) %MON land_Tgr2_ave_T              =   2.2010541530341E+01
(PID.TID 0000.0001) %MON land_Tgr2_ave_N              =  -2.4619986026112E-01
(PID.TID 0000.0001) %MON land_Tgr2_min_S              =  -6.4754075845694E+01
(PID.TID 0000.0001) %MON land_Tgr2_min_T              =  -9.7041925135967E+00
(PID.TID 0000.0001) %MON land_Tgr2_min_N              =  -4.0198163485479E+01
(PID.TID 0000.0001) %MON land_Tgr2_max_S              =   2.3360375526047E+01
(PID.TID 0000.0001) %MON land_Tgr2_max_T              =   3.1354312901765E+01
(PID.TID 0000.0001) %MON land_Tgr2_max_N              =   2.9824723204227E+01
(PID.TID 0000.0001) %MON land_grdW_ave_G              =   4.8680726208268E-01
(PID.TID 0000.0001) %MON land_grdW_ave_S              =   3.0857266196256E-01
(PID.TID 0000.0001) %MON land_grdW_ave_T              =   5.6430314078538E-01
(PID.TID 0000.0001) %MON land_grdW_ave_N              =   4.9287601167825E-01
(PID.TID 0000.0001) %MON land_grdW_min_S              =   2.6989851113101E-02
(PID.TID 0000.0001) %MON land_grdW_min_T              =   0.0000000000000E+00
(PID.TID 0000.0001) %MON land_grdW_min_N              =   0.0000000000000E+00
(PID.TID 0000.0001) // =======================================================
(PID.TID 0000.0001) // End MONITOR Land statistics
(PID.TID 0000.0001) // =======================================================
(PID.TID 0000.0001) // =======================================================
(PID.TID 0000.0001) // Begin MONITOR Therm.SeaIce statistics
(PID.TID 0000.0001) // =======================================================
(PID.TID 0000.0001) %MON thSI_time_sec                =   8.5500000000000E+03
(PID.TID 0000.0001) %MON thSI_Ice_Area_G              =   1.6371928334368E+11
(PID.TID 0000.0001) %MON thSI_Ice_Area_S              =   0.0000000000000E+00
(PID.TID 0000.0001) %MON thSI_Ice_Area_N              =   1.6371928334368E+11
(PID.TID 0000.0001) %MON thSI_IceH_ave_G              =   1.3557751370495E-01
(PID.TID 0000.0001) %MON thSI_IceH_ave_S              =   0.0000000000000E+00
(PID.TID 0000.0001) %MON thSI_IceH_ave_N              =   1.3557751370495E-01
(PID.TID 0000.0001) %MON thSI_IceH_max_S              =   0.0000000000000E+00
(PID.TID 0000.0001) %MON thSI_IceH_max_N              =   1.4457590337618E-01
(PID.TID 0000.0001) %MON thSI_SnwH_ave_G              =   0.0000000000000E+00
(PID.TID 0000.0001) %MON thSI_SnwH_ave_S              =   0.0000000000000E+00
(PID.TID 0000.0001) %MON thSI_SnwH_ave_N              =   0.0000000000000E+00
(PID.TID 0000.0001) %MON thSI_SnwH_max_S              =   0.0000000000000E+00
(PID.TID 0000.0001) %MON thSI_SnwH_max_N              =   0.0000000000000E+00
(PID.TID 0000.0001) %MON thSI_TotEnerg_G              =  -6.8229821048336E+18
(PID.TID 0000.0001) %MON thSI_Tsrf_ave_G              =  -8.2412098357348E+00
(PID.TID 0000.0001) %MON thSI_Tsrf_ave_S              =   0.0000000000000E+00
(PID.TID 0000.0001) %MON thSI_Tsrf_ave_N              =  -8.2412098357348E+00
(PID.TID 0000.0001) %MON thSI_Tsrf_min_S              =   0.0000000000000E+00
(PID.TID 0000.0001) %MON thSI_Tsrf_min_N              =  -8.3363945044473E+00
(PID.TID 0000.0001) %MON thSI_Tsrf_max_S              =   0.0000000000000E+00
(PID.TID 0000.0001) %MON thSI_Tsrf_max_N              =  -8.0551782064090E+00
(PID.TID 0000.0001) %MON thSI_Tic1_ave_G              =  -5.8031504543292E+00
(PID.TID 0000.0001) %MON thSI_Tic1_ave_S              =   0.0000000000000E+00
(PID.TID 0000.0001) %MON thSI_Tic1_ave_N              =  -5.8031504543292E+00
(PID.TID 0000.0001) %MON thSI_Tic1_min_S              =   0.0000000000000E+00
(PID.TID 0000.0001) %MON thSI_Tic1_min_N              =  -5.8804311462645E+00
(PID.TID 0000.0001) %MON thSI_Tic1_max_S              =   0.0000000000000E+00
(PID.TID 0000.0001) %MON thSI_Tic1_max_N              =  -5.7313073145537E+00
(PID.TID 0000.0001) %MON thSI_Tic2_ave_G              =  -2.8061918445136E+00
(PID.TID 0000.0001) %MON thSI_Tic2_ave_S              =   0.0000000000000E+00
(PID.TID 0000.0001) %MON thSI_Tic2_ave_N              =  -2.8061918445136E+00
(PID.TID 0000.0001) %MON thSI_Tic2_min_S              =   0.0000000000000E+00
(PID.TID 0000.0001) %MON thSI_Tic2_min_N              =  -2.8976366683448E+00
(PID.TID 0000.0001) %MON thSI_Tic2_max_S              =   0.0000000000000E+00
(PID.TID 0000.0001) %MON thSI_Tic2_max_N              =  -2.7243323122755E+00
(PID.TID 0000.0001) // =======================================================
(PID.TID 0000.0001) // End MONITOR Therm.SeaIce statistics
(PID.TID 0000.0001) // =======================================================
 cg2d: Sum(rhs),rhsMax =  -4.22005541622639E-10  2.67789513380840E+04
(PID.TID 0000.0001)                    cg2d_init_res =    1.21723916310518E+04
(PID.TID 0000.0001)                       cg2d_iters =    16
(PID.TID 0000.0001)                         cg2d_res =    7.90303551537085E-11
(PID.TID 0000.0001) // =======================================================
(PID.TID 0000.0001) // Begin MONITOR dynamic field statistics
(PID.TID 0000.0001) // =======================================================
(PID.TID 0000.0001) %MON time_tsnumber                =                    20
(PID.TID 0000.0001) %MON time_secondsf                =   9.0000000000000E+03
(PID.TID 0000.0001) %MON dynstat_eta_max              =   4.6427817308548E+03
(PID.TID 0000.0001) %MON dynstat_eta_min              =  -1.0197289801471E+03
(PID.TID 0000.0001) %MON dynstat_eta_mean             =  -3.2131515562031E-14
(PID.TID 0000.0001) %MON dynstat_eta_sd               =   5.6095957718876E+02
(PID.TID 0000.0001) %MON dynstat_eta_del2             =   3.7004297827224E+01
(PID.TID 0000.0001) %MON dynstat_uvel_max             =   5.9498747738030E+00
(PID.TID 0000.0001) %MON dynstat_uvel_min             =  -6.3698330631386E+00
(PID.TID 0000.0001) %MON dynstat_uvel_mean            =  -6.1131760903783E-03
(PID.TID 0000.0001) %MON dynstat_uvel_sd              =   8.2223922032997E-01
(PID.TID 0000.0001) %MON dynstat_uvel_del2            =   2.2090885591376E-02
(PID.TID 0000.0001) %MON dynstat_vvel_max             =   4.4077811706961E+00
(PID.TID 0000.0001) %MON dynstat_vvel_min             =  -5.6049396519736E+00
(PID.TID 0000.0001) %MON dynstat_vvel_mean            =   2.7757038724393E-02
(PID.TID 0000.0001) %MON dynstat_vvel_sd              =   8.0169715989614E-01
(PID.TID 0000.0001) %MON dynstat_vvel_del2            =   2.1503211472488E-02
(PID.TID 0000.0001) %MON dynstat_wvel_max             =   2.5864253878119E-01
(PID.TID 0000.0001) %MON dynstat_wvel_min             =  -9.9294293019782E-02
(PID.TID 0000.0001) %MON dynstat_wvel_mean            =  -2.7113237715762E-05
(PID.TID 0000.0001) %MON dynstat_wvel_sd              =   9.0853520021026E-03
(PID.TID 0000.0001) %MON dynstat_wvel_del2            =   1.4967927159350E-03
(PID.TID 0000.0001) %MON dynstat_theta_max            =   4.3830785874808E+02
(PID.TID 0000.0001) %MON dynstat_theta_min            =   2.8477991228981E+02
(PID.TID 0000.0001) %MON dynstat_theta_mean           =   3.3169511991757E+02
(PID.TID 0000.0001) %MON dynstat_theta_sd             =   4.7443059488824E+01
(PID.TID 0000.0001) %MON dynstat_theta_del2           =   2.1255908591516E-02
(PID.TID 0000.0001) %MON dynstat_salt_max             =   4.1923165091113E+00
(PID.TID 0000.0001) %MON dynstat_salt_min             =  -3.0734005730238E-03
(PID.TID 0000.0001) %MON dynstat_salt_mean            =   7.3550238629289E-02
(PID.TID 0000.0001) %MON dynstat_salt_sd              =   2.9707438818521E-01
(PID.TID 0000.0001) %MON dynstat_salt_del2            =   9.2669180482979E-03
(PID.TID 0000.0001) %MON advcfl_uvel_max              =   9.0852867075749E-03
(PID.TID 0000.0001) %MON advcfl_vvel_max              =   7.9816526090537E-03
(PID.TID 0000.0001) %MON advcfl_wvel_max              =   4.2323324527832E-03
(PID.TID 0000.0001) %MON advcfl_W_hf_max              =   1.5538204535773E-02
(PID.TID 0000.0001) %MON pe_b_mean                    =  -1.1537319614751E+00
(PID.TID 0000.0001) %MON ke_max                       =   2.0915673412586E+01
(PID.TID 0000.0001) %MON ke_mean                      =   6.5589637973697E-01
(PID.TID 0000.0001) %MON ke_vol                       =   4.9523908919847E+19
(PID.TID 0000.0001) %MON vort_r_min                   =  -2.1832486965147E-05
(PID.TID 0000.0001) %MON vort_r_max                   =   7.0988694195136E-06
(PID.TID 0000.0001) %MON vort_a_mean                  =   6.7059142262053E-08
(PID.TID 0000.0001) %MON vort_a_sd                    =   8.3748963678561E-05
(PID.TID 0000.0001) %MON vort_p_mean                  =   6.8751156372701E-08
(PID.TID 0000.0001) %MON vort_p_sd                    =   9.1634928372728E-05
(PID.TID 0000.0001) %MON surfExpan_theta_mean         =  -8.4934537951357E-04
(PID.TID 0000.0001) %MON surfExpan_salt_mean          =  -5.3557085001712E-04
(PID.TID 0000.0001) %MON surfExpan_Heat_mean          =  -3.0794898465801E-01
(PID.TID 0000.0001) %MON En_Budget_T2PE_mean          =   2.5915105110692E-01
(PID.TID 0000.0001) // =======================================================
(PID.TID 0000.0001) // End MONITOR dynamic field statistics
(PID.TID 0000.0001) // =======================================================
(PID.TID 0000.0001) // =======================================================
(PID.TID 0000.0001) // Begin MONITOR Land statistics
(PID.TID 0000.0001) // =======================================================
(PID.TID 0000.0001) %MON land_time_sec                =   9.0000000000000E+03
(PID.TID 0000.0001) %MON land_SnwH_ave_G              =   1.5322846224271E-01
(PID.TID 0000.0001) %MON land_SnwH_ave_S              =   5.5904556181621E-01
(PID.TID 0000.0001) %MON land_SnwH_ave_T              =   0.0000000000000E+00
(PID.TID 0000.0001) %MON land_SnwH_ave_N              =   1.2390532853733E-01
(PID.TID 0000.0001) %MON land_SnwH_max_S              =   9.9998921343216E-01
(PID.TID 0000.0001) %MON land_SnwH_max_T              =   0.0000000000000E+00
(PID.TID 0000.0001) %MON land_SnwH_max_N              =   9.9999865729581E-01
(PID.TID 0000.0001) %MON land_TotEnerg_G              =  -6.3432937909314E+21
(PID.TID 0000.0001) %MON land_TotEnerg_S              =  -5.0017540108764E+21
(PID.TID 0000.0001) %MON land_TotEnerg_T              =   7.2822639454793E+21
(PID.TID 0000.0001) %MON land_TotEnerg_N              =  -8.6238037255342E+21
(PID.TID 0000.0001) %MON land_Tsrf_ave_G              =  -8.1677758318450E+00
(PID.TID 0000.0001) %MON land_Tsrf_ave_S              =  -7.3227879647889E+00
(PID.TID 0000.0001) %MON land_Tsrf_ave_T              =   1.0810272746459E+01
(PID.TID 0000.0001) %MON land_Tsrf_ave_N              =  -2.1114867453058E+01
(PID.TID 0000.0001) %MON land_Tsrf_min_S              =  -3.3766296033671E+01
(PID.TID 0000.0001) %MON land_Tsrf_min_T              =  -4.2116997645435E+00
(PID.TID 0000.0001) %MON land_Tsrf_min_N              =  -5.2048839218239E+01
(PID.TID 0000.0001) %MON land_Tsrf_max_S              =   2.0989200136660E+01
(PID.TID 0000.0001) %MON land_Tsrf_max_T              =   2.1557190038145E+01
(PID.TID 0000.0001) %MON land_Tsrf_max_N              =   9.1853888045238E+00
(PID.TID 0000.0001) %MON land_Tgr1_ave_G              =  -6.9050427763213E+00
(PID.TID 0000.0001) %MON land_Tgr1_ave_S              =  -6.9955023465981E+00
(PID.TID 0000.0001) %MON land_Tgr1_ave_T              =   1.0810272746459E+01
(PID.TID 0000.0001) %MON land_Tgr1_ave_N              =  -1.8705464950499E+01
(PID.TID 0000.0001) %MON land_Tgr1_min_S              =  -3.9218934769089E+01
(PID.TID 0000.0001) %MON land_Tgr1_min_T              =  -4.2116997645435E+00
(PID.TID 0000.0001) %MON land_Tgr1_min_N              =  -5.4757374710670E+01
(PID.TID 0000.0001) %MON land_Tgr1_max_S              =   2.0989200136660E+01
(PID.TID 0000.0001) %MON land_Tgr1_max_T              =   2.1557190038145E+01
(PID.TID 0000.0001) %MON land_Tgr1_max_N              =   9.1853888045238E+00
(PID.TID 0000.0001) %MON land_Tgr2_ave_G              =   4.2046035336213E+00
(PID.TID 0000.0001) %MON land_Tgr2_ave_S              =  -1.8727624888727E+01
(PID.TID 0000.0001) %MON land_Tgr2_ave_T              =   2.2010359678421E+01
(PID.TID 0000.0001) %MON land_Tgr2_ave_N              =  -2.4648158960673E-01
(PID.TID 0000.0001) %MON land_Tgr2_min_S              =  -6.4753645338952E+01
(PID.TID 0000.0001) %MON land_Tgr2_min_T              =  -9.7041231147459E+00
(PID.TID 0000.0001) %MON land_Tgr2_min_N              =  -4.0198400192589E+01
(PID.TID 0000.0001) %MON land_Tgr2_max_S              =   2.3360323667312E+01
(PID.TID 0000.0001) %MON land_Tgr2_max_T              =   3.1353898459698E+01
(PID.TID 0000.0001) %MON land_Tgr2_max_N              =   2.9824223641904E+01
(PID.TID 0000.0001) %MON land_grdW_ave_G              =   4.8679869384176E-01
(PID.TID 0000.0001) %MON land_grdW_ave_S              =   3.0856443002114E-01
(PID.TID 0000.0001) %MON land_grdW_ave_T              =   5.6428203470915E-01
(PID.TID 0000.0001) %MON land_grdW_ave_N              =   4.9287570674151E-01
(PID.TID 0000.0001) %MON land_grdW_min_S              =   2.7075066719701E-02
(PID.TID 0000.0001) %MON land_grdW_min_T              =   0.0000000000000E+00
(PID.TID 0000.0001) %MON land_grdW_min_N              =   0.0000000000000E+00
(PID.TID 0000.0001) // =======================================================
(PID.TID 0000.0001) // End MONITOR Land statistics
(PID.TID 0000.0001) // =======================================================
(PID.TID 0000.0001) // =======================================================
(PID.TID 0000.0001) // Begin MONITOR Therm.SeaIce statistics
(PID.TID 0000.0001) // =======================================================
(PID.TID 0000.0001) %MON thSI_time_sec                =   9.0000000000000E+03
(PID.TID 0000.0001) %MON thSI_Ice_Area_G              =   1.6563119987503E+11
(PID.TID 0000.0001) %MON thSI_Ice_Area_S              =   0.0000000000000E+00
(PID.TID 0000.0001) %MON thSI_Ice_Area_N              =   1.6563119987503E+11
(PID.TID 0000.0001) %MON thSI_IceH_ave_G              =   1.3624788896550E-01
(PID.TID 0000.0001) %MON thSI_IceH_ave_S              =   0.0000000000000E+00
(PID.TID 0000.0001) %MON thSI_IceH_ave_N              =   1.3624788896550E-01
(PID.TID 0000.0001) %MON thSI_IceH_max_S              =   0.0000000000000E+00
(PID.TID 0000.0001) %MON thSI_IceH_max_N              =   1.4532291193753E-01
(PID.TID 0000.0001) %MON thSI_SnwH_ave_G              =   0.0000000000000E+00
(PID.TID 0000.0001) %MON thSI_SnwH_ave_S              =   0.0000000000000E+00
(PID.TID 0000.0001) %MON thSI_SnwH_ave_N              =   0.0000000000000E+00
(PID.TID 0000.0001) %MON thSI_SnwH_max_S              =   0.0000000000000E+00
(PID.TID 0000.0001) %MON thSI_SnwH_max_N              =   0.0000000000000E+00
(PID.TID 0000.0001) %MON thSI_TotEnerg_G              =  -6.9417897117275E+18
(PID.TID 0000.0001) %MON thSI_Tsrf_ave_G              =  -8.3640882019763E+00
(PID.TID 0000.0001) %MON thSI_Tsrf_ave_S              =   0.0000000000000E+00
(PID.TID 0000.0001) %MON thSI_Tsrf_ave_N              =  -8.3640882019763E+00
(PID.TID 0000.0001) %MON thSI_Tsrf_min_S              =   0.0000000000000E+00
(PID.TID 0000.0001) %MON thSI_Tsrf_min_N              =  -8.4603332169357E+00
(PID.TID 0000.0001) %MON thSI_Tsrf_max_S              =   0.0000000000000E+00
(PID.TID 0000.0001) %MON thSI_Tsrf_max_N              =  -8.1726116228312E+00
(PID.TID 0000.0001) %MON thSI_Tic1_ave_G              =  -5.9440245784990E+00
(PID.TID 0000.0001) %MON thSI_Tic1_ave_S              =   0.0000000000000E+00
(PID.TID 0000.0001) %MON thSI_Tic1_ave_N              =  -5.9440245784990E+00
(PID.TID 0000.0001) %MON thSI_Tic1_min_S              =   0.0000000000000E+00
(PID.TID 0000.0001) %MON thSI_Tic1_min_N              =  -6.0150040144866E+00
(PID.TID 0000.0001) %MON thSI_Tic1_max_S              =   0.0000000000000E+00
(PID.TID 0000.0001) %MON thSI_Tic1_max_N              =  -5.8768887371597E+00
(PID.TID 0000.0001) %MON thSI_Tic2_ave_G              =  -2.8652338642126E+00
(PID.TID 0000.0001) %MON thSI_Tic2_ave_S              =   0.0000000000000E+00
(PID.TID 0000.0001) %MON thSI_Tic2_ave_N              =  -2.8652338642126E+00
(PID.TID 0000.0001) %MON thSI_Tic2_min_S              =   0.0000000000000E+00
(PID.TID 0000.0001) %MON thSI_Tic2_min_N              =  -2.9536802288880E+00
(PID.TID 0000.0001) %MON thSI_Tic2_max_S              =   0.0000000000000E+00
(PID.TID 0000.0001) %MON thSI_Tic2_max_N              =  -2.7853604712324E+00
(PID.TID 0000.0001) // =======================================================
(PID.TID 0000.0001) // End MONITOR Therm.SeaIce statistics
(PID.TID 0000.0001) // =======================================================
 cg2d: Sum(rhs),rhsMax =  -1.74622982740402E-10  2.64716819177758E+04
(PID.TID 0000.0001)                    cg2d_init_res =    1.20600908247903E+04
(PID.TID 0000.0001)                       cg2d_iters =    16
(PID.TID 0000.0001)                         cg2d_res =    7.45870228343551E-11
(PID.TID 0000.0001) // =======================================================
(PID.TID 0000.0001) // Begin MONITOR dynamic field statistics
(PID.TID 0000.0001) // =======================================================
(PID.TID 0000.0001) %MON time_tsnumber                =                    21
(PID.TID 0000.0001) %MON time_secondsf                =   9.4500000000000E+03
(PID.TID 0000.0001) %MON dynstat_eta_max              =   4.5458514249831E+03
(PID.TID 0000.0001) %MON dynstat_eta_min              =  -9.7714330522014E+02
(PID.TID 0000.0001) %MON dynstat_eta_mean             =  -6.0246591678808E-14
(PID.TID 0000.0001) %MON dynstat_eta_sd               =   5.5688437608864E+02
(PID.TID 0000.0001) %MON dynstat_eta_del2             =   3.6890786307009E+01
(PID.TID 0000.0001) %MON dynstat_uvel_max             =   5.9313727328661E+00
(PID.TID 0000.0001) %MON dynstat_uvel_min             =  -6.2695848077748E+00
(PID.TID 0000.0001) %MON dynstat_uvel_mean            =  -4.0682970991734E-03
(PID.TID 0000.0001) %MON dynstat_uvel_sd              =   8.2807663805549E-01
(PID.TID 0000.0001) %MON dynstat_uvel_del2            =   2.2600411342227E-02
(PID.TID 0000.0001) %MON dynstat_vvel_max             =   4.5755690274486E+00
(PID.TID 0000.0001) %MON dynstat_vvel_min             =  -5.6432125905419E+00
(PID.TID 0000.0001) %MON dynstat_vvel_mean            =   2.8245240232774E-02
(PID.TID 0000.0001) %MON dynstat_vvel_sd              =   8.0171503989077E-01
(PID.TID 0000.0001) %MON dynstat_vvel_del2            =   2.1821110103378E-02
(PID.TID 0000.0001) %MON dynstat_wvel_max             =   2.8152306948699E-01
(PID.TID 0000.0001) %MON dynstat_wvel_min             =  -1.1319346861114E-01
(PID.TID 0000.0001) %MON dynstat_wvel_mean            =   1.0959214888659E-04
(PID.TID 0000.0001) %MON dynstat_wvel_sd              =   9.5187490963255E-03
(PID.TID 0000.0001) %MON dynstat_wvel_del2            =   1.5631527264632E-03
(PID.TID 0000.0001) %MON dynstat_theta_max            =   4.3830382998142E+02
(PID.TID 0000.0001) %MON dynstat_theta_min            =   2.8455340944372E+02
(PID.TID 0000.0001) %MON dynstat_theta_mean           =   3.3169325710423E+02
(PID.TID 0000.0001) %MON dynstat_theta_sd             =   4.7445049192918E+01
(PID.TID 0000.0001) %MON dynstat_theta_del2           =   2.2106317083986E-02
(PID.TID 0000.0001) %MON dynstat_salt_max             =   4.2647339979708E+00
(PID.TID 0000.0001) %MON dynstat_salt_min             =  -4.6830090753720E-03
(PID.TID 0000.0001) %MON dynstat_salt_mean            =   7.6985546937429E-02
(PID.TID 0000.0001) %MON dynstat_salt_sd              =   3.0961072851714E-01
(PID.TID 0000.0001) %MON dynstat_salt_del2            =   9.5959584126406E-03
(PID.TID 0000.0001) %MON advcfl_uvel_max              =   8.9423027183735E-03
(PID.TID 0000.0001) %MON advcfl_vvel_max              =   8.0361547658918E-03
(PID.TID 0000.0001) %MON advcfl_wvel_max              =   4.6067411370598E-03
(PID.TID 0000.0001) %MON advcfl_W_hf_max              =   1.6248224106462E-02
(PID.TID 0000.0001) %MON pe_b_mean                    =  -1.1672250162508E+00
(PID.TID 0000.0001) %MON ke_max                       =   1.9548349538265E+01
(PID.TID 0000.0001) %MON ke_mean                      =   6.6070029164744E-01
(PID.TID 0000.0001) %MON ke_vol                       =   4.9523908919847E+19
(PID.TID 0000.0001) %MON vort_r_min                   =  -2.0698000212141E-05
(PID.TID 0000.0001) %MON vort_r_max                   =   7.2859967315619E-06
(PID.TID 0000.0001) %MON vort_a_mean                  =   6.7059142261947E-08
(PID.TID 0000.0001) %MON vort_a_sd                    =   8.3751662789630E-05
(PID.TID 0000.0001) %MON vort_p_mean                  =   6.8751157229821E-08
(PID.TID 0000.0001) %MON vort_p_sd                    =   9.1622350844929E-05
(PID.TID 0000.0001) %MON surfExpan_theta_mean         =  -1.4091430104605E-02
(PID.TID 0000.0001) %MON surfExpan_salt_mean          =  -6.1082725928126E-04
(PID.TID 0000.0001) %MON surfExpan_Heat_mean          =   8.0385179465222E-01
(PID.TID 0000.0001) %MON En_Budget_T2PE_mean          =  -1.8275593059996E+00
(PID.TID 0000.0001) // =======================================================
(PID.TID 0000.0001) // End MONITOR dynamic field statistics
(PID.TID 0000.0001) // =======================================================
(PID.TID 0000.0001) // =======================================================
(PID.TID 0000.0001) // Begin MONITOR Land statistics
(PID.TID 0000.0001) // =======================================================
(PID.TID 0000.0001) %MON land_time_sec                =   9.4500000000000E+03
(PID.TID 0000.0001) %MON land_SnwH_ave_G              =   1.5322749835881E-01
(PID.TID 0000.0001) %MON land_SnwH_ave_S              =   5.5904469366909E-01
(PID.TID 0000.0001) %MON land_SnwH_ave_T              =   0.0000000000000E+00
(PID.TID 0000.0001) %MON land_SnwH_ave_N              =   1.2390368994368E-01
(PID.TID 0000.0001) %MON land_SnwH_max_S              =   9.9998865138618E-01
(PID.TID 0000.0001) %MON land_SnwH_max_T              =   0.0000000000000E+00
(PID.TID 0000.0001) %MON land_SnwH_max_N              =   9.9999859381432E-01
(PID.TID 0000.0001) %MON land_TotEnerg_G              =  -6.3451914118342E+21
(PID.TID 0000.0001) %MON land_TotEnerg_S              =  -5.0018824905440E+21
(PID.TID 0000.0001) %MON land_TotEnerg_T              =   7.2811504286877E+21
(PID.TID 0000.0001) %MON land_TotEnerg_N              =  -8.6244593499779E+21
(PID.TID 0000.0001) %MON land_Tsrf_ave_G              =  -8.2247741510683E+00
(PID.TID 0000.0001) %MON land_Tsrf_ave_S              =  -7.3361213612933E+00
(PID.TID 0000.0001) %MON land_Tsrf_ave_T              =   1.0683434710843E+01
(PID.TID 0000.0001) %MON land_Tsrf_ave_N              =  -2.1139393498500E+01
(PID.TID 0000.0001) %MON land_Tsrf_min_S              =  -3.3765773389017E+01
(PID.TID 0000.0001) %MON land_Tsrf_min_T              =  -4.0788526610919E+00
(PID.TID 0000.0001) %MON land_Tsrf_min_N              =  -5.2053545461248E+01
(PID.TID 0000.0001) %MON land_Tsrf_max_S              =   2.0838378797579E+01
(PID.TID 0000.0001) %MON land_Tsrf_max_T              =   2.1324237900385E+01
(PID.TID 0000.0001) %MON land_Tsrf_max_N              =   9.0267631172613E+00
(PID.TID 0000.0001) %MON land_Tgr1_ave_G              =  -6.9701600240224E+00
(PID.TID 0000.0001) %MON land_Tgr1_ave_S              =  -7.0390658197096E+00
(PID.TID 0000.0001) %MON land_Tgr1_ave_T              =   1.0683434710843E+01
(PID.TID 0000.0001) %MON land_Tgr1_ave_N              =  -1.8736358784356E+01
(PID.TID 0000.0001) %MON land_Tgr1_min_S              =  -3.9230099911723E+01
(PID.TID 0000.0001) %MON land_Tgr1_min_T              =  -4.0788526610919E+00
(PID.TID 0000.0001) %MON land_Tgr1_min_N              =  -5.4744812477337E+01
(PID.TID 0000.0001) %MON land_Tgr1_max_S              =   2.0838378797579E+01
(PID.TID 0000.0001) %MON land_Tgr1_max_T              =   2.1324237900385E+01
(PID.TID 0000.0001) %MON land_Tgr1_max_N              =   9.0267631172613E+00
(PID.TID 0000.0001) %MON land_Tgr2_ave_G              =   4.2044321491986E+00
(PID.TID 0000.0001) %MON land_Tgr2_ave_S              =  -1.8727429091451E+01
(PID.TID 0000.0001) %MON land_Tgr2_ave_T              =   2.2010175929681E+01
(PID.TID 0000.0001) %MON land_Tgr2_ave_N              =  -2.4676382900737E-01
(PID.TID 0000.0001) %MON land_Tgr2_min_S              =  -6.4753215042350E+01
(PID.TID 0000.0001) %MON land_Tgr2_min_T              =  -9.7040520384366E+00
(PID.TID 0000.0001) %MON land_Tgr2_min_N              =  -4.0198636661915E+01
(PID.TID 0000.0001) %MON land_Tgr2_max_S              =   2.3360268893313E+01
(PID.TID 0000.0001) %MON land_Tgr2_max_T              =   3.1353480417752E+01
(PID.TID 0000.0001) %MON land_Tgr2_max_N              =   2.9823718231433E+01
(PID.TID 0000.0001) %MON land_grdW_ave_G              =   4.8679031634898E-01
(PID.TID 0000.0001) %MON land_grdW_ave_S              =   3.0855631548794E-01
(PID.TID 0000.0001) %MON land_grdW_ave_T              =   5.6426143631811E-01
(PID.TID 0000.0001) %MON land_grdW_ave_N              =   4.9287540470270E-01
(PID.TID 0000.0001) %MON land_grdW_min_S              =   2.7160923552356E-02
(PID.TID 0000.0001) %MON land_grdW_min_T              =   0.0000000000000E+00
(PID.TID 0000.0001) %MON land_grdW_min_N              =   0.0000000000000E+00
(PID.TID 0000.0001) // =======================================================
(PID.TID 0000.0001) // End MONITOR Land statistics
(PID.TID 0000.0001) // =======================================================
(PID.TID 0000.0001) // =======================================================
(PID.TID 0000.0001) // Begin MONITOR Therm.SeaIce statistics
(PID.TID 0000.0001) // =======================================================
(PID.TID 0000.0001) %MON thSI_time_sec                =   9.4500000000000E+03
(PID.TID 0000.0001) %MON thSI_Ice_Area_G              =   1.6752431840607E+11
(PID.TID 0000.0001) %MON thSI_Ice_Area_S              =   0.0000000000000E+00
(PID.TID 0000.0001) %MON thSI_Ice_Area_N              =   1.6752431840607E+11
(PID.TID 0000.0001) %MON thSI_IceH_ave_G              =   1.3692284760069E-01
(PID.TID 0000.0001) %MON thSI_IceH_ave_S              =   0.0000000000000E+00
(PID.TID 0000.0001) %MON thSI_IceH_ave_N              =   1.3692284760069E-01
(PID.TID 0000.0001) %MON thSI_IceH_max_S              =   0.0000000000000E+00
(PID.TID 0000.0001) %MON thSI_IceH_max_N              =   1.4607413026171E-01
(PID.TID 0000.0001) %MON thSI_SnwH_ave_G              =   0.0000000000000E+00
(PID.TID 0000.0001) %MON thSI_SnwH_ave_S              =   0.0000000000000E+00
(PID.TID 0000.0001) %MON thSI_SnwH_ave_N              =   0.0000000000000E+00
(PID.TID 0000.0001) %MON thSI_SnwH_max_S              =   0.0000000000000E+00
(PID.TID 0000.0001) %MON thSI_SnwH_max_N              =   0.0000000000000E+00
(PID.TID 0000.0001) %MON thSI_TotEnerg_G              =  -7.0605950833858E+18
(PID.TID 0000.0001) %MON thSI_Tsrf_ave_G              =  -8.4782052588251E+00
(PID.TID 0000.0001) %MON thSI_Tsrf_ave_S              =   0.0000000000000E+00
(PID.TID 0000.0001) %MON thSI_Tsrf_ave_N              =  -8.4782052588251E+00
(PID.TID 0000.0001) %MON thSI_Tsrf_min_S              =   0.0000000000000E+00
(PID.TID 0000.0001) %MON thSI_Tsrf_min_N              =  -8.5761450247640E+00
(PID.TID 0000.0001) %MON thSI_Tsrf_max_S              =   0.0000000000000E+00
(PID.TID 0000.0001) %MON thSI_Tsrf_max_N              =  -8.2797539697007E+00
(PID.TID 0000.0001) %MON thSI_Tic1_ave_G              =  -6.0749894396074E+00
(PID.TID 0000.0001) %MON thSI_Tic1_ave_S              =   0.0000000000000E+00
(PID.TID 0000.0001) %MON thSI_Tic1_ave_N              =  -6.0749894396074E+00
(PID.TID 0000.0001) %MON thSI_Tic1_min_S              =   0.0000000000000E+00
(PID.TID 0000.0001) %MON thSI_Tic1_min_N              =  -6.1388836682106E+00
(PID.TID 0000.0001) %MON thSI_Tic1_max_S              =   0.0000000000000E+00
(PID.TID 0000.0001) %MON thSI_Tic1_max_N              =  -6.0133283222384E+00
(PID.TID 0000.0001) %MON thSI_Tic2_ave_G              =  -2.9196257505699E+00
(PID.TID 0000.0001) %MON thSI_Tic2_ave_S              =   0.0000000000000E+00
(PID.TID 0000.0001) %MON thSI_Tic2_ave_N              =  -2.9196257505699E+00
(PID.TID 0000.0001) %MON thSI_Tic2_min_S              =   0.0000000000000E+00
(PID.TID 0000.0001) %MON thSI_Tic2_min_N              =  -3.0048949611627E+00
(PID.TID 0000.0001) %MON thSI_Tic2_max_S              =   0.0000000000000E+00
(PID.TID 0000.0001) %MON thSI_Tic2_max_N              =  -2.8419647760048E+00
(PID.TID 0000.0001) // =======================================================
(PID.TID 0000.0001) // End MONITOR Therm.SeaIce statistics
(PID.TID 0000.0001) // =======================================================
 cg2d: Sum(rhs),rhsMax =   5.82076609134674E-11  2.58985974310567E+04
(PID.TID 0000.0001)                    cg2d_init_res =    1.19437762114611E+04
(PID.TID 0000.0001)                       cg2d_iters =    16
(PID.TID 0000.0001)                         cg2d_res =    7.09233464426527E-11
(PID.TID 0000.0001) // =======================================================
(PID.TID 0000.0001) // Begin MONITOR dynamic field statistics
(PID.TID 0000.0001) // =======================================================
(PID.TID 0000.0001) %MON time_tsnumber                =                    22
(PID.TID 0000.0001) %MON time_secondsf                =   9.9000000000000E+03
(PID.TID 0000.0001) %MON dynstat_eta_max              =   4.3989059536287E+03
(PID.TID 0000.0001) %MON dynstat_eta_min              =  -9.3496753280491E+02
(PID.TID 0000.0001) %MON dynstat_eta_mean             =  -2.8918364005828E-14
(PID.TID 0000.0001) %MON dynstat_eta_sd               =   5.5092663387922E+02
(PID.TID 0000.0001) %MON dynstat_eta_del2             =   3.6789528633933E+01
(PID.TID 0000.0001) %MON dynstat_uvel_max             =   5.8972561260416E+00
(PID.TID 0000.0001) %MON dynstat_uvel_min             =  -6.1042691425807E+00
(PID.TID 0000.0001) %MON dynstat_uvel_mean            =  -1.4582187970418E-03
(PID.TID 0000.0001) %MON dynstat_uvel_sd              =   8.3197062426473E-01
(PID.TID 0000.0001) %MON dynstat_uvel_del2            =   2.3091216783463E-02
(PID.TID 0000.0001) %MON dynstat_vvel_max             =   4.7375052607728E+00
(PID.TID 0000.0001) %MON dynstat_vvel_min             =  -5.8701961449843E+00
(PID.TID 0000.0001) %MON dynstat_vvel_mean            =   2.8462654575877E-02
(PID.TID 0000.0001) %MON dynstat_vvel_sd              =   8.0332560344248E-01
(PID.TID 0000.0001) %MON dynstat_vvel_del2            =   2.2172777620115E-02
(PID.TID 0000.0001) %MON dynstat_wvel_max             =   2.9235014654680E-01
(PID.TID 0000.0001) %MON dynstat_wvel_min             =  -1.2462678292803E-01
(PID.TID 0000.0001) %MON dynstat_wvel_mean            =   2.3199642191879E-04
(PID.TID 0000.0001) %MON dynstat_wvel_sd              =   9.9112223960150E-03
(PID.TID 0000.0001) %MON dynstat_wvel_del2            =   1.6275133335519E-03
(PID.TID 0000.0001) %MON dynstat_theta_max            =   4.3827264793774E+02
(PID.TID 0000.0001) %MON dynstat_theta_min            =   2.8432826231989E+02
(PID.TID 0000.0001) %MON dynstat_theta_mean           =   3.3169135304808E+02
(PID.TID 0000.0001) %MON dynstat_theta_sd             =   4.7447052501023E+01
(PID.TID 0000.0001) %MON dynstat_theta_del2           =   2.2953207541470E-02
(PID.TID 0000.0001) %MON dynstat_salt_max             =   4.3321488272312E+00
(PID.TID 0000.0001) %MON dynstat_salt_min             =  -6.3602095457410E-03
(PID.TID 0000.0001) %MON dynstat_salt_mean            =   8.0407102836607E-02
(PID.TID 0000.0001) %MON dynstat_salt_sd              =   3.2201902878880E-01
(PID.TID 0000.0001) %MON dynstat_salt_del2            =   9.9222738099699E-03
(PID.TID 0000.0001) %MON advcfl_uvel_max              =   8.7065131457655E-03
(PID.TID 0000.0001) %MON advcfl_vvel_max              =   8.3676570610000E-03
(PID.TID 0000.0001) %MON advcfl_wvel_max              =   4.7839114889476E-03
(PID.TID 0000.0001) %MON advcfl_W_hf_max              =   1.6415907448827E-02
(PID.TID 0000.0001) %MON pe_b_mean                    =  -1.1801552348071E+00
(PID.TID 0000.0001) %MON ke_max                       =   1.8387237050201E+01
(PID.TID 0000.0001) %MON ke_mean                      =   6.6519531958448E-01
(PID.TID 0000.0001) %MON ke_vol                       =   4.9523908919847E+19
(PID.TID 0000.0001) %MON vort_r_min                   =  -2.1765085623622E-05
(PID.TID 0000.0001) %MON vort_r_max                   =   7.7661599065510E-06
(PID.TID 0000.0001) %MON vort_a_mean                  =   6.7059142262048E-08
(PID.TID 0000.0001) %MON vort_a_sd                    =   8.3754342561803E-05
(PID.TID 0000.0001) %MON vort_p_mean                  =   6.8751158021314E-08
(PID.TID 0000.0001) %MON vort_p_sd                    =   9.1607484979679E-05
(PID.TID 0000.0001) %MON surfExpan_theta_mean         =  -2.5879290265563E-02
(PID.TID 0000.0001) %MON surfExpan_salt_mean          =  -6.9279475297555E-04
(PID.TID 0000.0001) %MON surfExpan_Heat_mean          =   1.7967941524718E+00
(PID.TID 0000.0001) %MON En_Budget_T2PE_mean          =  -3.6894455785153E+00
(PID.TID 0000.0001) // =======================================================
(PID.TID 0000.0001) // End MONITOR dynamic field statistics
(PID.TID 0000.0001) // =======================================================
(PID.TID 0000.0001) // =======================================================
(PID.TID 0000.0001) // Begin MONITOR Land statistics
(PID.TID 0000.0001) // =======================================================
(PID.TID 0000.0001) %MON land_time_sec                =   9.9000000000000E+03
(PID.TID 0000.0001) %MON land_SnwH_ave_G              =   1.5322653635442E-01
(PID.TID 0000.0001) %MON land_SnwH_ave_S              =   5.5904382278235E-01
(PID.TID 0000.0001) %MON land_SnwH_ave_T              =   0.0000000000000E+00
(PID.TID 0000.0001) %MON land_SnwH_ave_N              =   1.2390205598303E-01
(PID.TID 0000.0001) %MON land_SnwH_max_S              =   9.9998809094884E-01
(PID.TID 0000.0001) %MON land_SnwH_max_T              =   0.0000000000000E+00
(PID.TID 0000.0001) %MON land_SnwH_max_N              =   9.9999853035657E-01
(PID.TID 0000.0001) %MON land_TotEnerg_G              =  -6.3469613050280E+21
(PID.TID 0000.0001) %MON land_TotEnerg_S              =  -5.0019934511052E+21
(PID.TID 0000.0001) %MON land_TotEnerg_T              =   7.2801334431815E+21
(PID.TID 0000.0001) %MON land_TotEnerg_N              =  -8.6251012971043E+21
(PID.TID 0000.0001) %MON land_Tsrf_ave_G              =  -8.2761135797924E+00
(PID.TID 0000.0001) %MON land_Tsrf_ave_S              =  -7.3423255179989E+00
(PID.TID 0000.0001) %MON land_Tsrf_ave_T              =   1.0567948220823E+01
(PID.TID 0000.0001) %MON land_Tsrf_ave_N              =  -2.1162539013453E+01
(PID.TID 0000.0001) %MON land_Tsrf_min_S              =  -3.3765070304631E+01
(PID.TID 0000.0001) %MON land_Tsrf_min_T              =  -3.9499824948810E+00
(PID.TID 0000.0001) %MON land_Tsrf_min_N              =  -5.2056284709515E+01
(PID.TID 0000.0001) %MON land_Tsrf_max_S              =   2.0704897779708E+01
(PID.TID 0000.0001) %MON land_Tsrf_max_T              =   2.1114518843464E+01
(PID.TID 0000.0001) %MON land_Tsrf_max_N              =   8.8769953012300E+00
(PID.TID 0000.0001) %MON land_Tgr1_ave_G              =  -7.0298677843007E+00
(PID.TID 0000.0001) %MON land_Tgr1_ave_S              =  -7.0775665843158E+00
(PID.TID 0000.0001) %MON land_Tgr1_ave_T              =   1.0567948220823E+01
(PID.TID 0000.0001) %MON land_Tgr1_ave_N              =  -1.8765698569517E+01
(PID.TID 0000.0001) %MON land_Tgr1_min_S              =  -3.9241227685764E+01
(PID.TID 0000.0001) %MON land_Tgr1_min_T              =  -3.9499824948810E+00
(PID.TID 0000.0001) %MON land_Tgr1_min_N              =  -5.4732273661167E+01
(PID.TID 0000.0001) %MON land_Tgr1_max_S              =   2.0704897779708E+01
(PID.TID 0000.0001) %MON land_Tgr1_max_T              =   2.1114518843464E+01
(PID.TID 0000.0001) %MON land_Tgr1_max_N              =   8.8769953012300E+00
(PID.TID 0000.0001) %MON land_Tgr2_ave_G              =   4.2042598511032E+00
(PID.TID 0000.0001) %MON land_Tgr2_ave_S              =  -1.8727233906737E+01
(PID.TID 0000.0001) %MON land_Tgr2_ave_T              =   2.2009990465016E+01
(PID.TID 0000.0001) %MON land_Tgr2_ave_N              =  -2.4704654403956E-01
(PID.TID 0000.0001) %MON land_Tgr2_min_S              =  -6.4752784955536E+01
(PID.TID 0000.0001) %MON land_Tgr2_min_T              =  -9.7039793349537E+00
(PID.TID 0000.0001) %MON land_Tgr2_min_N              =  -4.0198872893979E+01
(PID.TID 0000.0001) %MON land_Tgr2_max_S              =   2.3360211497313E+01
(PID.TID 0000.0001) %MON land_Tgr2_max_T              =   3.1353059003864E+01
(PID.TID 0000.0001) %MON land_Tgr2_max_N              =   2.9823207188925E+01
(PID.TID 0000.0001) %MON land_grdW_ave_G              =   4.8678210778730E-01
(PID.TID 0000.0001) %MON land_grdW_ave_S              =   3.0854830544098E-01
(PID.TID 0000.0001) %MON land_grdW_ave_T              =   5.6424128724051E-01
(PID.TID 0000.0001) %MON land_grdW_ave_N              =   4.9287510526941E-01
(PID.TID 0000.0001) %MON land_grdW_min_S              =   2.7247260302337E-02
(PID.TID 0000.0001) %MON land_grdW_min_T              =   0.0000000000000E+00
(PID.TID 0000.0001) %MON land_grdW_min_N              =   0.0000000000000E+00
(PID.TID 0000.0001) // =======================================================
(PID.TID 0000.0001) // End MONITOR Land statistics
(PID.TID 0000.0001) // =======================================================
(PID.TID 0000.0001) // =======================================================
(PID.TID 0000.0001) // Begin MONITOR Therm.SeaIce statistics
(PID.TID 0000.0001) // =======================================================
(PID.TID 0000.0001) %MON thSI_time_sec                =   9.9000000000000E+03
(PID.TID 0000.0001) %MON thSI_Ice_Area_G              =   1.6939896185777E+11
(PID.TID 0000.0001) %MON thSI_Ice_Area_S              =   0.0000000000000E+00
(PID.TID 0000.0001) %MON thSI_Ice_Area_N              =   1.6939896185777E+11
(PID.TID 0000.0001) %MON thSI_IceH_ave_G              =   1.3760195711201E-01
(PID.TID 0000.0001) %MON thSI_IceH_ave_S              =   0.0000000000000E+00
(PID.TID 0000.0001) %MON thSI_IceH_ave_N              =   1.3760195711201E-01
(PID.TID 0000.0001) %MON thSI_IceH_max_S              =   0.0000000000000E+00
(PID.TID 0000.0001) %MON thSI_IceH_max_N              =   1.4682918125926E-01
(PID.TID 0000.0001) %MON thSI_SnwH_ave_G              =   0.0000000000000E+00
(PID.TID 0000.0001) %MON thSI_SnwH_ave_S              =   0.0000000000000E+00
(PID.TID 0000.0001) %MON thSI_SnwH_ave_N              =   0.0000000000000E+00
(PID.TID 0000.0001) %MON thSI_SnwH_max_S              =   0.0000000000000E+00
(PID.TID 0000.0001) %MON thSI_SnwH_max_N              =   0.0000000000000E+00
(PID.TID 0000.0001) %MON thSI_TotEnerg_G              =  -7.1794002614190E+18
(PID.TID 0000.0001) %MON thSI_Tsrf_ave_G              =  -8.5841023865630E+00
(PID.TID 0000.0001) %MON thSI_Tsrf_ave_S              =   0.0000000000000E+00
(PID.TID 0000.0001) %MON thSI_Tsrf_ave_N              =  -8.5841023865630E+00
(PID.TID 0000.0001) %MON thSI_Tsrf_min_S              =   0.0000000000000E+00
(PID.TID 0000.0001) %MON thSI_Tsrf_min_N              =  -8.6859261059730E+00
(PID.TID 0000.0001) %MON thSI_Tsrf_max_S              =   0.0000000000000E+00
(PID.TID 0000.0001) %MON thSI_Tsrf_max_N              =  -8.3773943739260E+00
(PID.TID 0000.0001) %MON thSI_Tic1_ave_G              =  -6.1965951013433E+00
(PID.TID 0000.0001) %MON thSI_Tic1_ave_S              =   0.0000000000000E+00
(PID.TID 0000.0001) %MON thSI_Tic1_ave_N              =  -6.1965951013433E+00
(PID.TID 0000.0001) %MON thSI_Tic1_min_S              =   0.0000000000000E+00
(PID.TID 0000.0001) %MON thSI_Tic1_min_N              =  -6.2528212760108E+00
(PID.TID 0000.0001) %MON thSI_Tic1_max_S              =   0.0000000000000E+00
(PID.TID 0000.0001) %MON thSI_Tic1_max_N              =  -6.1410178018586E+00
(PID.TID 0000.0001) %MON thSI_Tic2_ave_G              =  -2.9698230837587E+00
(PID.TID 0000.0001) %MON thSI_Tic2_ave_S              =   0.0000000000000E+00
(PID.TID 0000.0001) %MON thSI_Tic2_ave_N              =  -2.9698230837587E+00
(PID.TID 0000.0001) %MON thSI_Tic2_min_S              =   0.0000000000000E+00
(PID.TID 0000.0001) %MON thSI_Tic2_min_N              =  -3.0517764970649E+00
(PID.TID 0000.0001) %MON thSI_Tic2_max_S              =   0.0000000000000E+00
(PID.TID 0000.0001) %MON thSI_Tic2_max_N              =  -2.8945619682480E+00
(PID.TID 0000.0001) // =======================================================
(PID.TID 0000.0001) // End MONITOR Therm.SeaIce statistics
(PID.TID 0000.0001) // =======================================================
 cg2d: Sum(rhs),rhsMax =   1.45519152283669E-10  2.51292262183490E+04
(PID.TID 0000.0001)                    cg2d_init_res =    1.18238971001730E+04
(PID.TID 0000.0001)                       cg2d_iters =    16
(PID.TID 0000.0001)                         cg2d_res =    7.03390328217061E-11
(PID.TID 0000.0001) // =======================================================
(PID.TID 0000.0001) // Begin MONITOR dynamic field statistics
(PID.TID 0000.0001) // =======================================================
(PID.TID 0000.0001) %MON time_tsnumber                =                    23
(PID.TID 0000.0001) %MON time_secondsf                =   1.0350000000000E+04
(PID.TID 0000.0001) %MON dynstat_eta_max              =   4.2193077874736E+03
(PID.TID 0000.0001) %MON dynstat_eta_min              =  -8.9624806019589E+02
(PID.TID 0000.0001) %MON dynstat_eta_mean             =  -3.2131515562031E-15
(PID.TID 0000.0001) %MON dynstat_eta_sd               =   5.4336965485657E+02
(PID.TID 0000.0001) %MON dynstat_eta_del2             =   3.6703098528595E+01
(PID.TID 0000.0001) %MON dynstat_uvel_max             =   5.8457477026381E+00
(PID.TID 0000.0001) %MON dynstat_uvel_min             =  -6.1126027642497E+00
(PID.TID 0000.0001) %MON dynstat_uvel_mean            =   1.7416408671844E-03
(PID.TID 0000.0001) %MON dynstat_uvel_sd              =   8.3372341286450E-01
(PID.TID 0000.0001) %MON dynstat_uvel_del2            =   2.3575587128584E-02
(PID.TID 0000.0001) %MON dynstat_vvel_max             =   4.8612371096636E+00
(PID.TID 0000.0001) %MON dynstat_vvel_min             =  -6.0480722154644E+00
(PID.TID 0000.0001) %MON dynstat_vvel_mean            =   2.8412089001774E-02
(PID.TID 0000.0001) %MON dynstat_vvel_sd              =   8.0602832175718E-01
(PID.TID 0000.0001) %MON dynstat_vvel_del2            =   2.2595657859242E-02
(PID.TID 0000.0001) %MON dynstat_wvel_max             =   2.9129006681822E-01
(PID.TID 0000.0001) %MON dynstat_wvel_min             =  -1.3310909140502E-01
(PID.TID 0000.0001) %MON dynstat_wvel_mean            =   3.3761326704947E-04
(PID.TID 0000.0001) %MON dynstat_wvel_sd              =   1.0223897059144E-02
(PID.TID 0000.0001) %MON dynstat_wvel_del2            =   1.6874368075906E-03
(PID.TID 0000.0001) %MON dynstat_theta_max            =   4.3821582372060E+02
(PID.TID 0000.0001) %MON dynstat_theta_min            =   2.8410445355571E+02
(PID.TID 0000.0001) %MON dynstat_theta_mean           =   3.3168940773417E+02
(PID.TID 0000.0001) %MON dynstat_theta_sd             =   4.7449067496844E+01
(PID.TID 0000.0001) %MON dynstat_theta_del2           =   2.3808753037448E-02
(PID.TID 0000.0001) %MON dynstat_salt_max             =   4.3951093360881E+00
(PID.TID 0000.0001) %MON dynstat_salt_min             =  -8.1032677253154E-03
(PID.TID 0000.0001) %MON dynstat_salt_mean            =   8.3815485614641E-02
(PID.TID 0000.0001) %MON dynstat_salt_sd              =   3.3430224248636E-01
(PID.TID 0000.0001) %MON dynstat_salt_del2            =   1.0247202031047E-02
(PID.TID 0000.0001) %MON advcfl_uvel_max              =   8.5287159063118E-03
(PID.TID 0000.0001) %MON advcfl_vvel_max              =   8.6212100804179E-03
(PID.TID 0000.0001) %MON advcfl_wvel_max              =   4.7665647297527E-03
(PID.TID 0000.0001) %MON advcfl_W_hf_max              =   1.6062259680924E-02
(PID.TID 0000.0001) %MON pe_b_mean                    =  -1.1919829643355E+00
(PID.TID 0000.0001) %MON ke_max                       =   1.8082272178925E+01
(PID.TID 0000.0001) %MON ke_mean                      =   6.6880565348532E-01
(PID.TID 0000.0001) %MON ke_vol                       =   4.9523908919847E+19
(PID.TID 0000.0001) %MON vort_r_min                   =  -2.2443057678149E-05
(PID.TID 0000.0001) %MON vort_r_max                   =   8.2460097148773E-06
(PID.TID 0000.0001) %MON vort_a_mean                  =   6.7059142262013E-08
(PID.TID 0000.0001) %MON vort_a_sd                    =   8.3756993027577E-05
(PID.TID 0000.0001) %MON vort_p_mean                  =   6.8751158815051E-08
(PID.TID 0000.0001) %MON vort_p_sd                    =   9.1590811933937E-05
(PID.TID 0000.0001) %MON surfExpan_theta_mean         =  -3.5978374584983E-02
(PID.TID 0000.0001) %MON surfExpan_salt_mean          =  -7.8086496638608E-04
(PID.TID 0000.0001) %MON surfExpan_Heat_mean          =   2.6506848121945E+00
(PID.TID 0000.0001) %MON En_Budget_T2PE_mean          =  -5.2889200026964E+00
(PID.TID 0000.0001) // =======================================================
(PID.TID 0000.0001) // End MONITOR dynamic field statistics
(PID.TID 0000.0001) // =======================================================
(PID.TID 0000.0001) // =======================================================
(PID.TID 0000.0001) // Begin MONITOR Land statistics
(PID.TID 0000.0001) // =======================================================
(PID.TID 0000.0001) %MON land_time_sec                =   1.0350000000000E+04
(PID.TID 0000.0001) %MON land_SnwH_ave_G              =   1.5322557610938E-01
(PID.TID 0000.0001) %MON land_SnwH_ave_S              =   5.5904294898036E-01
(PID.TID 0000.0001) %MON land_SnwH_ave_T              =   0.0000000000000E+00
(PID.TID 0000.0001) %MON land_SnwH_ave_N              =   1.2390042647300E-01
(PID.TID 0000.0001) %MON land_SnwH_max_S              =   9.9998753168629E-01
(PID.TID 0000.0001) %MON land_SnwH_max_T              =   0.0000000000000E+00
(PID.TID 0000.0001) %MON land_SnwH_max_N              =   9.9999846689668E-01
(PID.TID 0000.0001) %MON land_TotEnerg_G              =  -6.3486159016366E+21
(PID.TID 0000.0001) %MON land_TotEnerg_S              =  -5.0020887346645E+21
(PID.TID 0000.0001) %MON land_TotEnerg_T              =   7.2792029649804E+21
(PID.TID 0000.0001) %MON land_TotEnerg_N              =  -8.6257301319525E+21
(PID.TID 0000.0001) %MON land_Tsrf_ave_G              =  -8.3225799743098E+00
(PID.TID 0000.0001) %MON land_Tsrf_ave_S              =  -7.3448378846545E+00
(PID.TID 0000.0001) %MON land_Tsrf_ave_T              =   1.0462669720451E+01
(PID.TID 0000.0001) %MON land_Tsrf_ave_N              =  -2.1183990832137E+01
(PID.TID 0000.0001) %MON land_Tsrf_min_S              =  -3.3761449735575E+01
(PID.TID 0000.0001) %MON land_Tsrf_min_T              =  -3.8249820804870E+00
(PID.TID 0000.0001) %MON land_Tsrf_min_N              =  -5.2056854225934E+01
(PID.TID 0000.0001) %MON land_Tsrf_max_S              =   2.0587048759084E+01
(PID.TID 0000.0001) %MON land_Tsrf_max_T              =   2.0925954819936E+01
(PID.TID 0000.0001) %MON land_Tsrf_max_N              =   8.7357814342432E+00
(PID.TID 0000.0001) %MON land_Tgr1_ave_G              =  -7.0845446612040E+00
(PID.TID 0000.0001) %MON land_Tgr1_ave_S              =  -7.1115303256006E+00
(PID.TID 0000.0001) %MON land_Tgr1_ave_T              =   1.0462669720451E+01
(PID.TID 0000.0001) %MON land_Tgr1_ave_N              =  -1.8793304385423E+01
(PID.TID 0000.0001) %MON land_Tgr1_min_S              =  -3.9252312153818E+01
(PID.TID 0000.0001) %MON land_Tgr1_min_T              =  -3.8249820804870E+00
(PID.TID 0000.0001) %MON land_Tgr1_min_N              =  -5.4719756110990E+01
(PID.TID 0000.0001) %MON land_Tgr1_max_S              =   2.0587048759084E+01
(PID.TID 0000.0001) %MON land_Tgr1_max_T              =   2.0925954819936E+01
(PID.TID 0000.0001) %MON land_Tgr1_max_N              =   8.7357814342432E+00
(PID.TID 0000.0001) %MON land_Tgr2_ave_G              =   4.2040867261312E+00
(PID.TID 0000.0001) %MON land_Tgr2_ave_S              =  -1.8727039262787E+01
(PID.TID 0000.0001) %MON land_Tgr2_ave_T              =   2.2009803447733E+01
(PID.TID 0000.0001) %MON land_Tgr2_ave_N              =  -2.4732969413204E-01
(PID.TID 0000.0001) %MON land_Tgr2_min_S              =  -6.4752355078110E+01
(PID.TID 0000.0001) %MON land_Tgr2_min_T              =  -9.7039050532262E+00
(PID.TID 0000.0001) %MON land_Tgr2_min_N              =  -4.0199108889255E+01
(PID.TID 0000.0001) %MON land_Tgr2_max_S              =   2.3360151743197E+01
(PID.TID 0000.0001) %MON land_Tgr2_max_T              =   3.1352634429673E+01
(PID.TID 0000.0001) %MON land_Tgr2_max_N              =   2.9822690724213E+01
(PID.TID 0000.0001) %MON land_grdW_ave_G              =   4.8677405061923E-01
(PID.TID 0000.0001) %MON land_grdW_ave_S              =   3.0854038971944E-01
(PID.TID 0000.0001) %MON land_grdW_ave_T              =   5.6422154055523E-01
(PID.TID 0000.0001) %MON land_grdW_ave_N              =   4.9287480813276E-01
(PID.TID 0000.0001) %MON land_grdW_min_S              =   2.7333933093614E-02
(PID.TID 0000.0001) %MON land_grdW_min_T              =   0.0000000000000E+00
(PID.TID 0000.0001) %MON land_grdW_min_N              =   0.0000000000000E+00
(PID.TID 0000.0001) // =======================================================
(PID.TID 0000.0001) // End MONITOR Land statistics
(PID.TID 0000.0001) // =======================================================
(PID.TID 0000.0001) // =======================================================
(PID.TID 0000.0001) // Begin MONITOR Therm.SeaIce statistics
(PID.TID 0000.0001) // =======================================================
(PID.TID 0000.0001) %MON thSI_time_sec                =   1.0350000000000E+04
(PID.TID 0000.0001) %MON thSI_Ice_Area_G              =   1.7125544387153E+11
(PID.TID 0000.0001) %MON thSI_Ice_Area_S              =   0.0000000000000E+00
(PID.TID 0000.0001) %MON thSI_Ice_Area_N              =   1.7125544387153E+11
(PID.TID 0000.0001) %MON thSI_IceH_ave_G              =   1.3828482580973E-01
(PID.TID 0000.0001) %MON thSI_IceH_ave_S              =   0.0000000000000E+00
(PID.TID 0000.0001) %MON thSI_IceH_ave_N              =   1.3828482580973E-01
(PID.TID 0000.0001) %MON thSI_IceH_max_S              =   0.0000000000000E+00
(PID.TID 0000.0001) %MON thSI_IceH_max_N              =   1.4758772222611E-01
(PID.TID 0000.0001) %MON thSI_SnwH_ave_G              =   0.0000000000000E+00
(PID.TID 0000.0001) %MON thSI_SnwH_ave_S              =   0.0000000000000E+00
(PID.TID 0000.0001) %MON thSI_SnwH_ave_N              =   0.0000000000000E+00
(PID.TID 0000.0001) %MON thSI_SnwH_max_S              =   0.0000000000000E+00
(PID.TID 0000.0001) %MON thSI_SnwH_max_N              =   0.0000000000000E+00
(PID.TID 0000.0001) %MON thSI_TotEnerg_G              =  -7.2982072783364E+18
(PID.TID 0000.0001) %MON thSI_Tsrf_ave_G              =  -8.6823053580677E+00
(PID.TID 0000.0001) %MON thSI_Tsrf_ave_S              =   0.0000000000000E+00
(PID.TID 0000.0001) %MON thSI_Tsrf_ave_N              =  -8.6823053580677E+00
(PID.TID 0000.0001) %MON thSI_Tsrf_min_S              =   0.0000000000000E+00
(PID.TID 0000.0001) %MON thSI_Tsrf_min_N              =  -8.7896973013893E+00
(PID.TID 0000.0001) %MON thSI_Tsrf_max_S              =   0.0000000000000E+00
(PID.TID 0000.0001) %MON thSI_Tsrf_max_N              =  -8.4663039859497E+00
(PID.TID 0000.0001) %MON thSI_Tic1_ave_G              =  -6.3094115496853E+00
(PID.TID 0000.0001) %MON thSI_Tic1_ave_S              =   0.0000000000000E+00
(PID.TID 0000.0001) %MON thSI_Tic1_ave_N              =  -6.3094115496853E+00
(PID.TID 0000.0001) %MON thSI_Tic1_min_S              =   0.0000000000000E+00
(PID.TID 0000.0001) %MON thSI_Tic1_min_N              =  -6.3575548506174E+00
(PID.TID 0000.0001) %MON thSI_Tic1_max_S              =   0.0000000000000E+00
(PID.TID 0000.0001) %MON thSI_Tic1_max_N              =  -6.2582350952604E+00
(PID.TID 0000.0001) %MON thSI_Tic2_ave_G              =  -3.0162085527152E+00
(PID.TID 0000.0001) %MON thSI_Tic2_ave_S              =   0.0000000000000E+00
(PID.TID 0000.0001) %MON thSI_Tic2_ave_N              =  -3.0162085527152E+00
(PID.TID 0000.0001) %MON thSI_Tic2_min_S              =   0.0000000000000E+00
(PID.TID 0000.0001) %MON thSI_Tic2_min_N              =  -3.0947435178740E+00
(PID.TID 0000.0001) %MON thSI_Tic2_max_S              =   0.0000000000000E+00
(PID.TID 0000.0001) %MON thSI_Tic2_max_N              =  -2.9435003574612E+00
(PID.TID 0000.0001) // =======================================================
(PID.TID 0000.0001) // End MONITOR Therm.SeaIce statistics
(PID.TID 0000.0001) // =======================================================
 cg2d: Sum(rhs),rhsMax =   1.22236087918282E-09  2.42358495883699E+04
(PID.TID 0000.0001)                    cg2d_init_res =    1.17053877023293E+04
(PID.TID 0000.0001)                       cg2d_iters =    16
(PID.TID 0000.0001)                         cg2d_res =    6.99101268913825E-11
(PID.TID 0000.0001) // =======================================================
(PID.TID 0000.0001) // Begin MONITOR dynamic field statistics
(PID.TID 0000.0001) // =======================================================
(PID.TID 0000.0001) %MON time_tsnumber                =                    24
(PID.TID 0000.0001) %MON time_secondsf                =   1.0800000000000E+04
(PID.TID 0000.0001) %MON dynstat_eta_max              =   4.0640552550504E+03
(PID.TID 0000.0001) %MON dynstat_eta_min              =  -8.5855800694021E+02
(PID.TID 0000.0001) %MON dynstat_eta_mean             =  -2.2492060893422E-14
(PID.TID 0000.0001) %MON dynstat_eta_sd               =   5.3451263984219E+02
(PID.TID 0000.0001) %MON dynstat_eta_del2             =   3.6615470919335E+01
(PID.TID 0000.0001) %MON dynstat_uvel_max             =   5.7751309948675E+00
(PID.TID 0000.0001) %MON dynstat_uvel_min             =  -6.0987905775145E+00
(PID.TID 0000.0001) %MON dynstat_uvel_mean            =   5.5393900224650E-03
(PID.TID 0000.0001) %MON dynstat_uvel_sd              =   8.3333714924465E-01
(PID.TID 0000.0001) %MON dynstat_uvel_del2            =   2.4069400660190E-02
(PID.TID 0000.0001) %MON dynstat_vvel_max             =   4.9640710249068E+00
(PID.TID 0000.0001) %MON dynstat_vvel_min             =  -6.1520287748107E+00
(PID.TID 0000.0001) %MON dynstat_vvel_mean            =   2.8110935980550E-02
(PID.TID 0000.0001) %MON dynstat_vvel_sd              =   8.0930822506102E-01
(PID.TID 0000.0001) %MON dynstat_vvel_del2            =   2.3051319443653E-02
(PID.TID 0000.0001) %MON dynstat_wvel_max             =   2.7940900209498E-01
(PID.TID 0000.0001) %MON dynstat_wvel_min             =  -1.3831191759483E-01
(PID.TID 0000.0001) %MON dynstat_wvel_mean            =   4.2467782748311E-04
(PID.TID 0000.0001) %MON dynstat_wvel_sd              =   1.0442955982674E-02
(PID.TID 0000.0001) %MON dynstat_wvel_del2            =   1.7457546861800E-03
(PID.TID 0000.0001) %MON dynstat_theta_max            =   4.3813598618267E+02
(PID.TID 0000.0001) %MON dynstat_theta_min            =   2.8388198341823E+02
(PID.TID 0000.0001) %MON dynstat_theta_mean           =   3.3168742154521E+02
(PID.TID 0000.0001) %MON dynstat_theta_sd             =   4.7451092514341E+01
(PID.TID 0000.0001) %MON dynstat_theta_del2           =   2.4683352429268E-02
(PID.TID 0000.0001) %MON dynstat_salt_max             =   4.4540957987248E+00
(PID.TID 0000.0001) %MON dynstat_salt_min             =  -9.9110532117718E-03
(PID.TID 0000.0001) %MON dynstat_salt_mean            =   8.7211253687456E-02
(PID.TID 0000.0001) %MON dynstat_salt_sd              =   3.4646444736382E-01
(PID.TID 0000.0001) %MON dynstat_salt_del2            =   1.0573947273817E-02
(PID.TID 0000.0001) %MON advcfl_uvel_max              =   8.5094442112169E-03
(PID.TID 0000.0001) %MON advcfl_vvel_max              =   8.7693947094094E-03
(PID.TID 0000.0001) %MON advcfl_wvel_max              =   4.5721473070088E-03
(PID.TID 0000.0001) %MON advcfl_W_hf_max              =   1.6534210891011E-02
(PID.TID 0000.0001) %MON pe_b_mean                    =  -1.2023184752009E+00
(PID.TID 0000.0001) %MON ke_max                       =   1.8631959395883E+01
(PID.TID 0000.0001) %MON ke_mean                      =   6.7112230696605E-01
(PID.TID 0000.0001) %MON ke_vol                       =   4.9523908919847E+19
(PID.TID 0000.0001) %MON vort_r_min                   =  -2.2678728560477E-05
(PID.TID 0000.0001) %MON vort_r_max                   =   8.7263031182497E-06
(PID.TID 0000.0001) %MON vort_a_mean                  =   6.7059142261954E-08
(PID.TID 0000.0001) %MON vort_a_sd                    =   8.3759606241201E-05
(PID.TID 0000.0001) %MON vort_p_mean                  =   6.8751159675821E-08
(PID.TID 0000.0001) %MON vort_p_sd                    =   9.1572847471544E-05
(PID.TID 0000.0001) %MON surfExpan_theta_mean         =  -4.4222416452840E-02
(PID.TID 0000.0001) %MON surfExpan_salt_mean          =  -8.7410726799406E-04
(PID.TID 0000.0001) %MON surfExpan_Heat_mean          =   3.3514161059476E+00
(PID.TID 0000.0001) %MON En_Budget_T2PE_mean          =  -6.5995384616763E+00
(PID.TID 0000.0001) // =======================================================
(PID.TID 0000.0001) // End MONITOR dynamic field statistics
(PID.TID 0000.0001) // =======================================================
(PID.TID 0000.0001) // =======================================================
(PID.TID 0000.0001) // Begin MONITOR Land statistics
(PID.TID 0000.0001) // =======================================================
(PID.TID 0000.0001) %MON land_time_sec                =   1.0800000000000E+04
(PID.TID 0000.0001) %MON land_SnwH_ave_G              =   1.5322461762090E-01
(PID.TID 0000.0001) %MON land_SnwH_ave_S              =   5.5904207279287E-01
(PID.TID 0000.0001) %MON land_SnwH_ave_T              =   0.0000000000000E+00
(PID.TID 0000.0001) %MON land_SnwH_ave_N              =   1.2389880123617E-01
(PID.TID 0000.0001) %MON land_SnwH_max_S              =   9.9998697313658E-01
(PID.TID 0000.0001) %MON land_SnwH_max_T              =   0.0000000000000E+00
(PID.TID 0000.0001) %MON land_SnwH_max_N              =   9.9999840341100E-01
(PID.TID 0000.0001) %MON land_TotEnerg_G              =  -6.3501671035195E+21
(PID.TID 0000.0001) %MON land_TotEnerg_S              =  -5.0021700339309E+21
(PID.TID 0000.0001) %MON land_TotEnerg_T              =   7.2783495189727E+21
(PID.TID 0000.0001) %MON land_TotEnerg_N              =  -8.6263465885614E+21
(PID.TID 0000.0001) %MON land_Tsrf_ave_G              =  -8.3648328310298E+00
(PID.TID 0000.0001) %MON land_Tsrf_ave_S              =  -7.3462510353615E+00
(PID.TID 0000.0001) %MON land_Tsrf_ave_T              =   1.0366230692048E+01
(PID.TID 0000.0001) %MON land_Tsrf_ave_N              =  -2.1203307908785E+01
(PID.TID 0000.0001) %MON land_Tsrf_min_S              =  -3.3754234140107E+01
(PID.TID 0000.0001) %MON land_Tsrf_min_T              =  -3.7037592600011E+00
(PID.TID 0000.0001) %MON land_Tsrf_min_N              =  -5.2055413486832E+01
(PID.TID 0000.0001) %MON land_Tsrf_max_S              =   2.0483302010528E+01
(PID.TID 0000.0001) %MON land_Tsrf_max_T              =   2.0756659145239E+01
(PID.TID 0000.0001) %MON land_Tsrf_max_N              =   8.6028092324161E+00
(PID.TID 0000.0001) %MON land_Tgr1_ave_G              =  -7.1345524155369E+00
(PID.TID 0000.0001) %MON land_Tgr1_ave_S              =  -7.1414455684686E+00
(PID.TID 0000.0001) %MON land_Tgr1_ave_T              =   1.0366230692048E+01
(PID.TID 0000.0001) %MON land_Tgr1_ave_N              =  -1.8818824588746E+01
(PID.TID 0000.0001) %MON land_Tgr1_min_S              =  -3.9263352387454E+01
(PID.TID 0000.0001) %MON land_Tgr1_min_T              =  -3.7037592600011E+00
(PID.TID 0000.0001) %MON land_Tgr1_min_N              =  -5.4707257834441E+01
(PID.TID 0000.0001) %MON land_Tgr1_max_S              =   2.0483302010528E+01
(PID.TID 0000.0001) %MON land_Tgr1_max_T              =   2.0756659145239E+01
(PID.TID 0000.0001) %MON land_Tgr1_max_N              =   8.6028092324161E+00
(PID.TID 0000.0001) %MON land_Tgr2_ave_G              =   4.2039128633036E+00
(PID.TID 0000.0001) %MON land_Tgr2_ave_S              =  -1.8726845095509E+01
(PID.TID 0000.0001) %MON land_Tgr2_ave_T              =   2.2009615054627E+01
(PID.TID 0000.0001) %MON land_Tgr2_ave_N              =  -2.4761324079137E-01
(PID.TID 0000.0001) %MON land_Tgr2_min_S              =  -6.4751925409616E+01
(PID.TID 0000.0001) %MON land_Tgr2_min_T              =  -9.7038292410169E+00
(PID.TID 0000.0001) %MON land_Tgr2_min_N              =  -4.0199344648207E+01
(PID.TID 0000.0001) %MON land_Tgr2_max_S              =   2.3360089868677E+01
(PID.TID 0000.0001) %MON land_Tgr2_max_T              =   3.1352206892230E+01
(PID.TID 0000.0001) %MON land_Tgr2_max_N              =   2.9822169041032E+01
(PID.TID 0000.0001) %MON land_grdW_ave_G              =   4.8676612785886E-01
(PID.TID 0000.0001) %MON land_grdW_ave_S              =   3.0853255903537E-01
(PID.TID 0000.0001) %MON land_grdW_ave_T              =   5.6420215057820E-01
(PID.TID 0000.0001) %MON land_grdW_ave_N              =   4.9287451297344E-01
(PID.TID 0000.0001) %MON land_grdW_min_S              =   2.7420814289647E-02
(PID.TID 0000.0001) %MON land_grdW_min_T              =   0.0000000000000E+00
(PID.TID 0000.0001) %MON land_grdW_min_N              =   0.0000000000000E+00
(PID.TID 0000.0001) // =======================================================
(PID.TID 0000.0001) // End MONITOR Land statistics
(PID.TID 0000.0001) // =======================================================
(PID.TID 0000.0001) // =======================================================
(PID.TID 0000.0001) // Begin MONITOR Therm.SeaIce statistics
(PID.TID 0000.0001) // =======================================================
(PID.TID 0000.0001) %MON thSI_time_sec                =   1.0800000000000E+04
(PID.TID 0000.0001) %MON thSI_Ice_Area_G              =   1.7309406925658E+11
(PID.TID 0000.0001) %MON thSI_Ice_Area_S              =   0.0000000000000E+00
(PID.TID 0000.0001) %MON thSI_Ice_Area_N              =   1.7309406925658E+11
(PID.TID 0000.0001) %MON thSI_IceH_ave_G              =   1.3897109724023E-01
(PID.TID 0000.0001) %MON thSI_IceH_ave_S              =   0.0000000000000E+00
(PID.TID 0000.0001) %MON thSI_IceH_ave_N              =   1.3897109724023E-01
(PID.TID 0000.0001) %MON thSI_IceH_max_S              =   0.0000000000000E+00
(PID.TID 0000.0001) %MON thSI_IceH_max_N              =   1.4834944005991E-01
(PID.TID 0000.0001) %MON thSI_SnwH_ave_G              =   0.0000000000000E+00
(PID.TID 0000.0001) %MON thSI_SnwH_ave_S              =   0.0000000000000E+00
(PID.TID 0000.0001) %MON thSI_SnwH_ave_N              =   0.0000000000000E+00
(PID.TID 0000.0001) %MON thSI_SnwH_max_S              =   0.0000000000000E+00
(PID.TID 0000.0001) %MON thSI_SnwH_max_N              =   0.0000000000000E+00
(PID.TID 0000.0001) %MON thSI_TotEnerg_G              =  -7.4170180052681E+18
(PID.TID 0000.0001) %MON thSI_Tsrf_ave_G              =  -8.7733086769263E+00
(PID.TID 0000.0001) %MON thSI_Tsrf_ave_S              =   0.0000000000000E+00
(PID.TID 0000.0001) %MON thSI_Tsrf_ave_N              =  -8.7733086769263E+00
(PID.TID 0000.0001) %MON thSI_Tsrf_min_S              =   0.0000000000000E+00
(PID.TID 0000.0001) %MON thSI_Tsrf_min_N              =  -8.8866078133151E+00
(PID.TID 0000.0001) %MON thSI_Tsrf_max_S              =   0.0000000000000E+00
(PID.TID 0000.0001) %MON thSI_Tsrf_max_N              =  -8.5472164195002E+00
(PID.TID 0000.0001) %MON thSI_Tic1_ave_G              =  -6.4140071133169E+00
(PID.TID 0000.0001) %MON thSI_Tic1_ave_S              =   0.0000000000000E+00
(PID.TID 0000.0001) %MON thSI_Tic1_ave_N              =  -6.4140071133169E+00
(PID.TID 0000.0001) %MON thSI_Tic1_min_S              =   0.0000000000000E+00
(PID.TID 0000.0001) %MON thSI_Tic1_min_N              =  -6.4542396023263E+00
(PID.TID 0000.0001) %MON thSI_Tic1_max_S              =   0.0000000000000E+00
(PID.TID 0000.0001) %MON thSI_Tic1_max_N              =  -6.3631465043935E+00
(PID.TID 0000.0001) %MON thSI_Tic2_ave_G              =  -3.0591109016109E+00
(PID.TID 0000.0001) %MON thSI_Tic2_ave_S              =   0.0000000000000E+00
(PID.TID 0000.0001) %MON thSI_Tic2_ave_N              =  -3.0591109016109E+00
(PID.TID 0000.0001) %MON thSI_Tic2_min_S              =   0.0000000000000E+00
(PID.TID 0000.0001) %MON thSI_Tic2_min_N              =  -3.1341568031728E+00
(PID.TID 0000.0001) %MON thSI_Tic2_max_S              =   0.0000000000000E+00
(PID.TID 0000.0001) %MON thSI_Tic2_max_N              =  -2.9890779526538E+00
(PID.TID 0000.0001) // =======================================================
(PID.TID 0000.0001) // End MONITOR Therm.SeaIce statistics
(PID.TID 0000.0001) // =======================================================
 cg2d: Sum(rhs),rhsMax =   1.16415321826935E-10  2.32861460566951E+04
(PID.TID 0000.0001)                    cg2d_init_res =    1.15919145113739E+04
(PID.TID 0000.0001)                       cg2d_iters =    16
(PID.TID 0000.0001)                         cg2d_res =    6.91433462418162E-11
(PID.TID 0000.0001) // =======================================================
(PID.TID 0000.0001) // Begin MONITOR dynamic field statistics
(PID.TID 0000.0001) // =======================================================
(PID.TID 0000.0001) %MON time_tsnumber                =                    25
(PID.TID 0000.0001) %MON time_secondsf                =   1.1250000000000E+04
(PID.TID 0000.0001) %MON dynstat_eta_max              =   3.9064126184444E+03
(PID.TID 0000.0001) %MON dynstat_eta_min              =  -8.2203314900848E+02
(PID.TID 0000.0001) %MON dynstat_eta_mean             =   1.9278909337219E-14
(PID.TID 0000.0001) %MON dynstat_eta_sd               =   5.2466895359001E+02
(PID.TID 0000.0001) %MON dynstat_eta_del2             =   3.6528492317451E+01
(PID.TID 0000.0001) %MON dynstat_uvel_max             =   5.6844852698561E+00
(PID.TID 0000.0001) %MON dynstat_uvel_min             =  -5.9715133196723E+00
(PID.TID 0000.0001) %MON dynstat_uvel_mean            =   9.9261883808202E-03
(PID.TID 0000.0001) %MON dynstat_uvel_sd              =   8.3096039415676E-01
(PID.TID 0000.0001) %MON dynstat_uvel_del2            =   2.4550749918227E-02
(PID.TID 0000.0001) %MON dynstat_vvel_max             =   5.0656554424572E+00
(PID.TID 0000.0001) %MON dynstat_vvel_min             =  -6.1822421322872E+00
(PID.TID 0000.0001) %MON dynstat_vvel_mean            =   2.7590519030423E-02
(PID.TID 0000.0001) %MON dynstat_vvel_sd              =   8.1266540444355E-01
(PID.TID 0000.0001) %MON dynstat_vvel_del2            =   2.3602048515048E-02
(PID.TID 0000.0001) %MON dynstat_wvel_max             =   2.5848346358654E-01
(PID.TID 0000.0001) %MON dynstat_wvel_min             =  -1.4007808992033E-01
(PID.TID 0000.0001) %MON dynstat_wvel_mean            =   4.9227110528354E-04
(PID.TID 0000.0001) %MON dynstat_wvel_sd              =   1.0571326912090E-02
(PID.TID 0000.0001) %MON dynstat_wvel_del2            =   1.8037638969617E-03
(PID.TID 0000.0001) %MON dynstat_theta_max            =   4.3803681834055E+02
(PID.TID 0000.0001) %MON dynstat_theta_min            =   2.8366086421570E+02
(PID.TID 0000.0001) %MON dynstat_theta_mean           =   3.3168539378277E+02
(PID.TID 0000.0001) %MON dynstat_theta_sd             =   4.7453127450232E+01
(PID.TID 0000.0001) %MON dynstat_theta_del2           =   2.5566775729318E-02
(PID.TID 0000.0001) %MON dynstat_salt_max             =   4.5095330582268E+00
(PID.TID 0000.0001) %MON dynstat_salt_min             =  -1.1782856758733E-02
(PID.TID 0000.0001) %MON dynstat_salt_mean            =   9.0593522119219E-02
(PID.TID 0000.0001) %MON dynstat_salt_sd              =   3.5850448293576E-01
(PID.TID 0000.0001) %MON dynstat_salt_del2            =   1.0899602098467E-02
(PID.TID 0000.0001) %MON advcfl_uvel_max              =   8.3318583913401E-03
(PID.TID 0000.0001) %MON advcfl_vvel_max              =   8.8124622675932E-03
(PID.TID 0000.0001) %MON advcfl_wvel_max              =   4.2297294041434E-03
(PID.TID 0000.0001) %MON advcfl_W_hf_max              =   1.6908724695105E-02
(PID.TID 0000.0001) %MON pe_b_mean                    =  -1.2109031778385E+00
(PID.TID 0000.0001) %MON ke_max                       =   1.8786207221047E+01
(PID.TID 0000.0001) %MON ke_mean                      =   6.7187976147380E-01
(PID.TID 0000.0001) %MON ke_vol                       =   4.9523908919847E+19
(PID.TID 0000.0001) %MON vort_r_min                   =  -2.2509260911584E-05
(PID.TID 0000.0001) %MON vort_r_max                   =   9.2085934184470E-06
(PID.TID 0000.0001) %MON vort_a_mean                  =   6.7059142261994E-08
(PID.TID 0000.0001) %MON vort_a_sd                    =   8.3762176394085E-05
(PID.TID 0000.0001) %MON vort_p_mean                  =   6.8751160654928E-08
(PID.TID 0000.0001) %MON vort_p_sd                    =   9.1554106116949E-05
(PID.TID 0000.0001) %MON surfExpan_theta_mean         =  -5.0527388152861E-02
(PID.TID 0000.0001) %MON surfExpan_salt_mean          =  -9.7128276835531E-04
(PID.TID 0000.0001) %MON surfExpan_Heat_mean          =   3.8919043746900E+00
(PID.TID 0000.0001) %MON En_Budget_T2PE_mean          =  -7.6079501294190E+00
(PID.TID 0000.0001) // =======================================================
(PID.TID 0000.0001) // End MONITOR dynamic field statistics
(PID.TID 0000.0001) // =======================================================
(PID.TID 0000.0001) // =======================================================
(PID.TID 0000.0001) // Begin MONITOR Land statistics
(PID.TID 0000.0001) // =======================================================
(PID.TID 0000.0001) %MON land_time_sec                =   1.1250000000000E+04
(PID.TID 0000.0001) %MON land_SnwH_ave_G              =   1.5322366091255E-01
(PID.TID 0000.0001) %MON land_SnwH_ave_S              =   5.5904119519513E-01
(PID.TID 0000.0001) %MON land_SnwH_ave_T              =   0.0000000000000E+00
(PID.TID 0000.0001) %MON land_SnwH_ave_N              =   1.2389718000311E-01
(PID.TID 0000.0001) %MON land_SnwH_max_S              =   9.9998641489888E-01
(PID.TID 0000.0001) %MON land_SnwH_max_T              =   0.0000000000000E+00
(PID.TID 0000.0001) %MON land_SnwH_max_N              =   9.9999833988189E-01
(PID.TID 0000.0001) %MON land_TotEnerg_G              =  -6.3516244726563E+21
(PID.TID 0000.0001) %MON land_TotEnerg_S              =  -5.0022388056620E+21
(PID.TID 0000.0001) %MON land_TotEnerg_T              =   7.2775654771664E+21
(PID.TID 0000.0001) %MON land_TotEnerg_N              =  -8.6269511441607E+21
(PID.TID 0000.0001) %MON land_Tsrf_ave_G              =  -8.4035945371791E+00
(PID.TID 0000.0001) %MON land_Tsrf_ave_S              =  -7.3480821698913E+00
(PID.TID 0000.0001) %MON land_Tsrf_ave_T              =   1.0278030459616E+01
(PID.TID 0000.0001) %MON land_Tsrf_ave_N              =  -2.1221036073457E+01
(PID.TID 0000.0001) %MON land_Tsrf_min_S              =  -3.3743546689648E+01
(PID.TID 0000.0001) %MON land_Tsrf_min_T              =  -3.5862345533646E+00
(PID.TID 0000.0001) %MON land_Tsrf_min_N              =  -5.2052429565037E+01
(PID.TID 0000.0001) %MON land_Tsrf_max_S              =   2.0392287092454E+01
(PID.TID 0000.0001) %MON land_Tsrf_max_T              =   2.0604909642299E+01
(PID.TID 0000.0001) %MON land_Tsrf_max_N              =   8.4777603197721E+00
(PID.TID 0000.0001) %MON land_Tgr1_ave_G              =  -7.1804292707226E+00
(PID.TID 0000.0001) %MON land_Tgr1_ave_S              =  -7.1677366222038E+00
(PID.TID 0000.0001) %MON land_Tgr1_ave_T              =   1.0278030459616E+01
(PID.TID 0000.0001) %MON land_Tgr1_ave_N              =  -1.8842792651968E+01
(PID.TID 0000.0001) %MON land_Tgr1_min_S              =  -3.9274350155500E+01
(PID.TID 0000.0001) %MON land_Tgr1_min_T              =  -3.5862345533646E+00
(PID.TID 0000.0001) %MON land_Tgr1_min_N              =  -5.4694777297209E+01
(PID.TID 0000.0001) %MON land_Tgr1_max_S              =   2.0392287092454E+01
(PID.TID 0000.0001) %MON land_Tgr1_max_T              =   2.0604909642299E+01
(PID.TID 0000.0001) %MON land_Tgr1_max_N              =   8.4777603197721E+00
(PID.TID 0000.0001) %MON land_Tgr2_ave_G              =   4.2037383135334E+00
(PID.TID 0000.0001) %MON land_Tgr2_ave_S              =  -1.8726651347553E+01
(PID.TID 0000.0001) %MON land_Tgr2_ave_T              =   2.2009425373442E+01
(PID.TID 0000.0001) %MON land_Tgr2_ave_N              =  -2.4789715978572E-01
(PID.TID 0000.0001) %MON land_Tgr2_min_S              =  -6.4751495949541E+01
(PID.TID 0000.0001) %MON land_Tgr2_min_T              =  -9.7037519450826E+00
(PID.TID 0000.0001) %MON land_Tgr2_min_N              =  -4.0199580171333E+01
(PID.TID 0000.0001) %MON land_Tgr2_max_S              =   2.3360026088125E+01
(PID.TID 0000.0001) %MON land_Tgr2_max_T              =   3.1351776575147E+01
(PID.TID 0000.0001) %MON land_Tgr2_max_N              =   2.9821642337066E+01
(PID.TID 0000.0001) %MON land_grdW_ave_G              =   4.8675832597439E-01
(PID.TID 0000.0001) %MON land_grdW_ave_S              =   3.0852480608806E-01
(PID.TID 0000.0001) %MON land_grdW_ave_T              =   5.6418308091031E-01
(PID.TID 0000.0001) %MON land_grdW_ave_N              =   4.9287421950845E-01
(PID.TID 0000.0001) %MON land_grdW_min_S              =   2.7507791579058E-02
(PID.TID 0000.0001) %MON land_grdW_min_T              =   0.0000000000000E+00
(PID.TID 0000.0001) %MON land_grdW_min_N              =   0.0000000000000E+00
(PID.TID 0000.0001) // =======================================================
(PID.TID 0000.0001) // End MONITOR Land statistics
(PID.TID 0000.0001) // =======================================================
(PID.TID 0000.0001) // =======================================================
(PID.TID 0000.0001) // Begin MONITOR Therm.SeaIce statistics
(PID.TID 0000.0001) // =======================================================
(PID.TID 0000.0001) %MON thSI_time_sec                =   1.1250000000000E+04
(PID.TID 0000.0001) %MON thSI_Ice_Area_G              =   1.7309406925658E+11
(PID.TID 0000.0001) %MON thSI_Ice_Area_S              =   0.0000000000000E+00
(PID.TID 0000.0001) %MON thSI_Ice_Area_N              =   1.7309406925658E+11
(PID.TID 0000.0001) %MON thSI_IceH_ave_G              =   1.3909111449028E-01
(PID.TID 0000.0001) %MON thSI_IceH_ave_S              =   0.0000000000000E+00
(PID.TID 0000.0001) %MON thSI_IceH_ave_N              =   1.3909111449028E-01
(PID.TID 0000.0001) %MON thSI_IceH_max_S              =   0.0000000000000E+00
(PID.TID 0000.0001) %MON thSI_IceH_max_N              =   1.4845706483447E-01
(PID.TID 0000.0001) %MON thSI_SnwH_ave_G              =   0.0000000000000E+00
(PID.TID 0000.0001) %MON thSI_SnwH_ave_S              =   0.0000000000000E+00
(PID.TID 0000.0001) %MON thSI_SnwH_ave_N              =   0.0000000000000E+00
(PID.TID 0000.0001) %MON thSI_SnwH_max_S              =   0.0000000000000E+00
(PID.TID 0000.0001) %MON thSI_SnwH_max_N              =   0.0000000000000E+00
(PID.TID 0000.0001) %MON thSI_TotEnerg_G              =  -7.4274566344176E+18
(PID.TID 0000.0001) %MON thSI_Tsrf_ave_G              =  -8.8578329062595E+00
(PID.TID 0000.0001) %MON thSI_Tsrf_ave_S              =   0.0000000000000E+00
(PID.TID 0000.0001) %MON thSI_Tsrf_ave_N              =  -8.8578329062595E+00
(PID.TID 0000.0001) %MON thSI_Tsrf_min_S              =   0.0000000000000E+00
(PID.TID 0000.0001) %MON thSI_Tsrf_min_N              =  -8.9770933211946E+00
(PID.TID 0000.0001) %MON thSI_Tsrf_max_S              =   0.0000000000000E+00
(PID.TID 0000.0001) %MON thSI_Tsrf_max_N              =  -8.6208232524924E+00
(PID.TID 0000.0001) %MON thSI_Tic1_ave_G              =  -6.5109361914142E+00
(PID.TID 0000.0001) %MON thSI_Tic1_ave_S              =   0.0000000000000E+00
(PID.TID 0000.0001) %MON thSI_Tic1_ave_N              =  -6.5109361914142E+00
(PID.TID 0000.0001) %MON thSI_Tic1_min_S              =   0.0000000000000E+00
(PID.TID 0000.0001) %MON thSI_Tic1_min_N              =  -6.5523580030313E+00
(PID.TID 0000.0001) %MON thSI_Tic1_max_S              =   0.0000000000000E+00
(PID.TID 0000.0001) %MON thSI_Tic1_max_N              =  -6.4600916493216E+00
(PID.TID 0000.0001) %MON thSI_Tic2_ave_G              =  -3.0988359848246E+00
(PID.TID 0000.0001) %MON thSI_Tic2_ave_S              =   0.0000000000000E+00
(PID.TID 0000.0001) %MON thSI_Tic2_ave_N              =  -3.0988359848246E+00
(PID.TID 0000.0001) %MON thSI_Tic2_min_S              =   0.0000000000000E+00
(PID.TID 0000.0001) %MON thSI_Tic2_min_N              =  -3.1703939481182E+00
(PID.TID 0000.0001) %MON thSI_Tic2_max_S              =   0.0000000000000E+00
(PID.TID 0000.0001) %MON thSI_Tic2_max_N              =  -3.0316460763511E+00
(PID.TID 0000.0001) // =======================================================
(PID.TID 0000.0001) // End MONITOR Therm.SeaIce statistics
(PID.TID 0000.0001) // =======================================================
 cg2d: Sum(rhs),rhsMax =   1.39698386192322E-09  2.23378097783160E+04
(PID.TID 0000.0001)                    cg2d_init_res =    1.14834560430841E+04
(PID.TID 0000.0001)                       cg2d_iters =    16
(PID.TID 0000.0001)                         cg2d_res =    6.95006176848317E-11
(PID.TID 0000.0001) // =======================================================
(PID.TID 0000.0001) // Begin MONITOR dynamic field statistics
(PID.TID 0000.0001) // =======================================================
(PID.TID 0000.0001) %MON time_tsnumber                =                    26
(PID.TID 0000.0001) %MON time_secondsf                =   1.1700000000000E+04
(PID.TID 0000.0001) %MON dynstat_eta_max              =   3.7362522343239E+03
(PID.TID 0000.0001) %MON dynstat_eta_min              =  -7.8903567861285E+02
(PID.TID 0000.0001) %MON dynstat_eta_mean             =   3.2131515562031E-15
(PID.TID 0000.0001) %MON dynstat_eta_sd               =   5.1416149071989E+02
(PID.TID 0000.0001) %MON dynstat_eta_del2             =   3.6431922519846E+01
(PID.TID 0000.0001) %MON dynstat_uvel_max             =   5.5741872044032E+00
(PID.TID 0000.0001) %MON dynstat_uvel_min             =  -5.8036337601758E+00
(PID.TID 0000.0001) %MON dynstat_uvel_mean            =   1.4876445721743E-02
(PID.TID 0000.0001) %MON dynstat_uvel_sd              =   8.2683741458274E-01
(PID.TID 0000.0001) %MON dynstat_uvel_del2            =   2.5055763382588E-02
(PID.TID 0000.0001) %MON dynstat_vvel_max             =   5.1471553672835E+00
(PID.TID 0000.0001) %MON dynstat_vvel_min             =  -6.1439462477023E+00
(PID.TID 0000.0001) %MON dynstat_vvel_mean            =   2.6894510496119E-02
(PID.TID 0000.0001) %MON dynstat_vvel_sd              =   8.1563184485711E-01
(PID.TID 0000.0001) %MON dynstat_vvel_del2            =   2.4220308938107E-02
(PID.TID 0000.0001) %MON dynstat_wvel_max             =   2.4535731992059E-01
(PID.TID 0000.0001) %MON dynstat_wvel_min             =  -1.3843158347300E-01
(PID.TID 0000.0001) %MON dynstat_wvel_mean            =   5.4034725752571E-04
(PID.TID 0000.0001) %MON dynstat_wvel_sd              =   1.0620536578233E-02
(PID.TID 0000.0001) %MON dynstat_wvel_del2            =   1.8568980051288E-03
(PID.TID 0000.0001) %MON dynstat_theta_max            =   4.3804294637927E+02
(PID.TID 0000.0001) %MON dynstat_theta_min            =   2.8344110151386E+02
(PID.TID 0000.0001) %MON dynstat_theta_mean           =   3.3168332724919E+02
(PID.TID 0000.0001) %MON dynstat_theta_sd             =   4.7455170174221E+01
(PID.TID 0000.0001) %MON dynstat_theta_del2           =   2.6457637164598E-02
(PID.TID 0000.0001) %MON dynstat_salt_max             =   4.5617883448684E+00
(PID.TID 0000.0001) %MON dynstat_salt_min             =  -1.3718236648208E-02
(PID.TID 0000.0001) %MON dynstat_salt_mean            =   9.3964041181277E-02
(PID.TID 0000.0001) %MON dynstat_salt_sd              =   3.7043357742029E-01
(PID.TID 0000.0001) %MON dynstat_salt_del2            =   1.1225337606544E-02
(PID.TID 0000.0001) %MON advcfl_uvel_max              =   8.1276082348968E-03
(PID.TID 0000.0001) %MON advcfl_vvel_max              =   8.7578734904655E-03
(PID.TID 0000.0001) %MON advcfl_wvel_max              =   4.0149379623369E-03
(PID.TID 0000.0001) %MON advcfl_W_hf_max              =   1.6926275125939E-02
(PID.TID 0000.0001) %MON pe_b_mean                    =  -1.2175804794459E+00
(PID.TID 0000.0001) %MON ke_max                       =   1.8547004201053E+01
(PID.TID 0000.0001) %MON ke_mean                      =   6.7092280859787E-01
(PID.TID 0000.0001) %MON ke_vol                       =   4.9523908919847E+19
(PID.TID 0000.0001) %MON vort_r_min                   =  -2.1988063691936E-05
(PID.TID 0000.0001) %MON vort_r_max                   =   9.6953271967349E-06
(PID.TID 0000.0001) %MON vort_a_mean                  =   6.7059142262043E-08
(PID.TID 0000.0001) %MON vort_a_sd                    =   8.3764699462244E-05
(PID.TID 0000.0001) %MON vort_p_mean                  =   6.8751161783318E-08
(PID.TID 0000.0001) %MON vort_p_sd                    =   9.1535069540454E-05
(PID.TID 0000.0001) %MON surfExpan_theta_mean         =  -5.4896124956123E-02
(PID.TID 0000.0001) %MON surfExpan_salt_mean          =  -1.0709141678331E-03
(PID.TID 0000.0001) %MON surfExpan_Heat_mean          =   4.2722252833999E+00
(PID.TID 0000.0001) %MON En_Budget_T2PE_mean          =  -8.3143474906803E+00
(PID.TID 0000.0001) // =======================================================
(PID.TID 0000.0001) // End MONITOR dynamic field statistics
(PID.TID 0000.0001) // =======================================================
(PID.TID 0000.0001) // =======================================================
(PID.TID 0000.0001) // Begin MONITOR Land statistics
(PID.TID 0000.0001) // =======================================================
(PID.TID 0000.0001) %MON land_time_sec                =   1.1700000000000E+04
(PID.TID 0000.0001) %MON land_SnwH_ave_G              =   1.5322270608872E-01
(PID.TID 0000.0001) %MON land_SnwH_ave_S              =   5.5904031748622E-01
(PID.TID 0000.0001) %MON land_SnwH_ave_T              =   0.0000000000000E+00
(PID.TID 0000.0001) %MON land_SnwH_ave_N              =   1.2389556256040E-01
(PID.TID 0000.0001) %MON land_SnwH_max_S              =   9.9998585662304E-01
(PID.TID 0000.0001) %MON land_SnwH_max_T              =   0.0000000000000E+00
(PID.TID 0000.0001) %MON land_SnwH_max_N              =   9.9999827629952E-01
(PID.TID 0000.0001) %MON land_TotEnerg_G              =  -6.3529972119807E+21
(PID.TID 0000.0001) %MON land_TotEnerg_S              =  -5.0022964580837E+21
(PID.TID 0000.0001) %MON land_TotEnerg_T              =   7.2768435891947E+21
(PID.TID 0000.0001) %MON land_TotEnerg_N              =  -8.6275443430916E+21
(PID.TID 0000.0001) %MON land_Tsrf_ave_G              =  -8.4393518390630E+00
(PID.TID 0000.0001) %MON land_Tsrf_ave_S              =  -7.3514213524305E+00
(PID.TID 0000.0001) %MON land_Tsrf_ave_T              =   1.0197248495851E+01
(PID.TID 0000.0001) %MON land_Tsrf_ave_N              =  -2.1237243470679E+01
(PID.TID 0000.0001) %MON land_Tsrf_min_S              =  -3.3729554916704E+01
(PID.TID 0000.0001) %MON land_Tsrf_min_T              =  -3.4723405727482E+00
(PID.TID 0000.0001) %MON land_Tsrf_min_N              =  -5.2048510357853E+01
(PID.TID 0000.0001) %MON land_Tsrf_max_S              =   2.0312772994259E+01
(PID.TID 0000.0001) %MON land_Tsrf_max_T              =   2.0469135699762E+01
(PID.TID 0000.0001) %MON land_Tsrf_max_N              =   8.3603134884428E+00
(PID.TID 0000.0001) %MON land_Tgr1_ave_G              =  -7.2225120925800E+00
(PID.TID 0000.0001) %MON land_Tgr1_ave_S              =  -7.1908003582191E+00
(PID.TID 0000.0001) %MON land_Tgr1_ave_T              =   1.0197248495851E+01
(PID.TID 0000.0001) %MON land_Tgr1_ave_N              =  -1.8865203000544E+01
(PID.TID 0000.0001) %MON land_Tgr1_min_S              =  -3.9285307715142E+01
(PID.TID 0000.0001) %MON land_Tgr1_min_T              =  -3.4723405727482E+00
(PID.TID 0000.0001) %MON land_Tgr1_min_N              =  -5.4682313559402E+01
(PID.TID 0000.0001) %MON land_Tgr1_max_S              =   2.0312772994259E+01
(PID.TID 0000.0001) %MON land_Tgr1_max_T              =   2.0469135699762E+01
(PID.TID 0000.0001) %MON land_Tgr1_max_N              =   8.3603134884428E+00
(PID.TID 0000.0001) %MON land_Tgr2_ave_G              =   4.2035631441291E+00
(PID.TID 0000.0001) %MON land_Tgr2_ave_S              =  -1.8726457967736E+01
(PID.TID 0000.0001) %MON land_Tgr2_ave_T              =   2.2009234530149E+01
(PID.TID 0000.0001) %MON land_Tgr2_ave_N              =  -2.4818141775008E-01
(PID.TID 0000.0001) %MON land_Tgr2_min_S              =  -6.4751066697320E+01
(PID.TID 0000.0001) %MON land_Tgr2_min_T              =  -9.7036732113267E+00
(PID.TID 0000.0001) %MON land_Tgr2_min_N              =  -4.0199815459190E+01
(PID.TID 0000.0001) %MON land_Tgr2_max_S              =   2.3359960595074E+01
(PID.TID 0000.0001) %MON land_Tgr2_max_T              =   3.1351343650597E+01
(PID.TID 0000.0001) %MON land_Tgr2_max_N              =   2.9821110803908E+01
(PID.TID 0000.0001) %MON land_grdW_ave_G              =   4.8675063201289E-01
(PID.TID 0000.0001) %MON land_grdW_ave_S              =   3.0851712182951E-01
(PID.TID 0000.0001) %MON land_grdW_ave_T              =   5.6416429770609E-01
(PID.TID 0000.0001) %MON land_grdW_ave_N              =   4.9287392746953E-01
(PID.TID 0000.0001) %MON land_grdW_min_S              =   2.7594767225094E-02
(PID.TID 0000.0001) %MON land_grdW_min_T              =   0.0000000000000E+00
(PID.TID 0000.0001) %MON land_grdW_min_N              =   0.0000000000000E+00
(PID.TID 0000.0001) // =======================================================
(PID.TID 0000.0001) // End MONITOR Land statistics
(PID.TID 0000.0001) // =======================================================
(PID.TID 0000.0001) // =======================================================
(PID.TID 0000.0001) // Begin MONITOR Therm.SeaIce statistics
(PID.TID 0000.0001) // =======================================================
(PID.TID 0000.0001) %MON thSI_time_sec                =   1.1700000000000E+04
(PID.TID 0000.0001) %MON thSI_Ice_Area_G              =   1.7309406925658E+11
(PID.TID 0000.0001) %MON thSI_Ice_Area_S              =   0.0000000000000E+00
(PID.TID 0000.0001) %MON thSI_Ice_Area_N              =   1.7309406925658E+11
(PID.TID 0000.0001) %MON thSI_IceH_ave_G              =   1.3921506763873E-01
(PID.TID 0000.0001) %MON thSI_IceH_ave_S              =   0.0000000000000E+00
(PID.TID 0000.0001) %MON thSI_IceH_ave_N              =   1.3921506763873E-01
(PID.TID 0000.0001) %MON thSI_IceH_max_S              =   0.0000000000000E+00
(PID.TID 0000.0001) %MON thSI_IceH_max_N              =   1.4856869581433E-01
(PID.TID 0000.0001) %MON thSI_SnwH_ave_G              =   0.0000000000000E+00
(PID.TID 0000.0001) %MON thSI_SnwH_ave_S              =   0.0000000000000E+00
(PID.TID 0000.0001) %MON thSI_SnwH_ave_N              =   0.0000000000000E+00
(PID.TID 0000.0001) %MON thSI_SnwH_max_S              =   0.0000000000000E+00
(PID.TID 0000.0001) %MON thSI_SnwH_max_N              =   0.0000000000000E+00
(PID.TID 0000.0001) %MON thSI_TotEnerg_G              =  -7.4377923555441E+18
(PID.TID 0000.0001) %MON thSI_Tsrf_ave_G              =  -8.9335706501548E+00
(PID.TID 0000.0001) %MON thSI_Tsrf_ave_S              =   0.0000000000000E+00
(PID.TID 0000.0001) %MON thSI_Tsrf_ave_N              =  -8.9335706501548E+00
(PID.TID 0000.0001) %MON thSI_Tsrf_min_S              =   0.0000000000000E+00
(PID.TID 0000.0001) %MON thSI_Tsrf_min_N              =  -9.0585613954673E+00
(PID.TID 0000.0001) %MON thSI_Tsrf_max_S              =   0.0000000000000E+00
(PID.TID 0000.0001) %MON thSI_Tsrf_max_N              =  -8.6858597885926E+00
(PID.TID 0000.0001) %MON thSI_Tic1_ave_G              =  -6.6078319423072E+00
(PID.TID 0000.0001) %MON thSI_Tic1_ave_S              =   0.0000000000000E+00
(PID.TID 0000.0001) %MON thSI_Tic1_ave_N              =  -6.6078319423072E+00
(PID.TID 0000.0001) %MON thSI_Tic1_min_S              =   0.0000000000000E+00
(PID.TID 0000.0001) %MON thSI_Tic1_min_N              =  -6.6508999492900E+00
(PID.TID 0000.0001) %MON thSI_Tic1_max_S              =   0.0000000000000E+00
(PID.TID 0000.0001) %MON thSI_Tic1_max_N              =  -6.5562826498491E+00
(PID.TID 0000.0001) %MON thSI_Tic2_ave_G              =  -3.1456783717107E+00
(PID.TID 0000.0001) %MON thSI_Tic2_ave_S              =   0.0000000000000E+00
(PID.TID 0000.0001) %MON thSI_Tic2_ave_N              =  -3.1456783717107E+00
(PID.TID 0000.0001) %MON thSI_Tic2_min_S              =   0.0000000000000E+00
(PID.TID 0000.0001) %MON thSI_Tic2_min_N              =  -3.2129869355738E+00
(PID.TID 0000.0001) %MON thSI_Tic2_max_S              =   0.0000000000000E+00
(PID.TID 0000.0001) %MON thSI_Tic2_max_N              =  -3.0819466933195E+00
(PID.TID 0000.0001) // =======================================================
(PID.TID 0000.0001) // End MONITOR Therm.SeaIce statistics
(PID.TID 0000.0001) // =======================================================
 cg2d: Sum(rhs),rhsMax =  -1.74622982740402E-10  2.14355110246507E+04
(PID.TID 0000.0001)                    cg2d_init_res =    1.13763253363252E+04
(PID.TID 0000.0001)                       cg2d_iters =    16
(PID.TID 0000.0001)                         cg2d_res =    6.97095243445591E-11
(PID.TID 0000.0001) // =======================================================
(PID.TID 0000.0001) // Begin MONITOR dynamic field statistics
(PID.TID 0000.0001) // =======================================================
(PID.TID 0000.0001) %MON time_tsnumber                =                    27
(PID.TID 0000.0001) %MON time_secondsf                =   1.2150000000000E+04
(PID.TID 0000.0001) %MON dynstat_eta_max              =   3.5645961101356E+03
(PID.TID 0000.0001) %MON dynstat_eta_min              =  -7.6408369381590E+02
(PID.TID 0000.0001) %MON dynstat_eta_mean             =   8.9968243573687E-14
(PID.TID 0000.0001) %MON dynstat_eta_sd               =   5.0331472384300E+02
(PID.TID 0000.0001) %MON dynstat_eta_del2             =   3.6341062095012E+01
(PID.TID 0000.0001) %MON dynstat_uvel_max             =   5.4461101600044E+00
(PID.TID 0000.0001) %MON dynstat_uvel_min             =  -5.7509545734218E+00
(PID.TID 0000.0001) %MON dynstat_uvel_mean            =   2.0348614505952E-02
(PID.TID 0000.0001) %MON dynstat_uvel_sd              =   8.2126480738734E-01
(PID.TID 0000.0001) %MON dynstat_uvel_del2            =   2.5560927761759E-02
(PID.TID 0000.0001) %MON dynstat_vvel_max             =   5.1962289958996E+00
(PID.TID 0000.0001) %MON dynstat_vvel_min             =  -6.0463611904831E+00
(PID.TID 0000.0001) %MON dynstat_vvel_mean            =   2.6076616260156E-02
(PID.TID 0000.0001) %MON dynstat_vvel_sd              =   8.1778762802668E-01
(PID.TID 0000.0001) %MON dynstat_vvel_del2            =   2.4907667271783E-02
(PID.TID 0000.0001) %MON dynstat_wvel_max             =   2.4779497046282E-01
(PID.TID 0000.0001) %MON dynstat_wvel_min             =  -1.3357863462308E-01
(PID.TID 0000.0001) %MON dynstat_wvel_mean            =   5.6966964421669E-04
(PID.TID 0000.0001) %MON dynstat_wvel_sd              =   1.0604436676131E-02
(PID.TID 0000.0001) %MON dynstat_wvel_del2            =   1.9069609675737E-03
(PID.TID 0000.0001) %MON dynstat_theta_max            =   4.3807738016682E+02
(PID.TID 0000.0001) %MON dynstat_theta_min            =   2.8322266470156E+02
(PID.TID 0000.0001) %MON dynstat_theta_mean           =   3.3168122375333E+02
(PID.TID 0000.0001) %MON dynstat_theta_sd             =   4.7457220069870E+01
(PID.TID 0000.0001) %MON dynstat_theta_del2           =   2.7373766616865E-02
(PID.TID 0000.0001) %MON dynstat_salt_max             =   4.6112119390909E+00
(PID.TID 0000.0001) %MON dynstat_salt_min             =  -1.5716941057347E-02
(PID.TID 0000.0001) %MON dynstat_salt_mean            =   9.7323173102360E-02
(PID.TID 0000.0001) %MON dynstat_salt_sd              =   3.8225362304293E-01
(PID.TID 0000.0001) %MON dynstat_salt_del2            =   1.1549379925497E-02
(PID.TID 0000.0001) %MON advcfl_uvel_max              =   8.0297050538326E-03
(PID.TID 0000.0001) %MON advcfl_vvel_max              =   8.6187711039489E-03
(PID.TID 0000.0001) %MON advcfl_wvel_max              =   4.0548267893915E-03
(PID.TID 0000.0001) %MON advcfl_W_hf_max              =   1.6990668126571E-02
(PID.TID 0000.0001) %MON pe_b_mean                    =  -1.2222713820451E+00
(PID.TID 0000.0001) %MON ke_max                       =   1.8251367123829E+01
(PID.TID 0000.0001) %MON ke_mean                      =   6.6817929191955E-01
(PID.TID 0000.0001) %MON ke_vol                       =   4.9523908919847E+19
(PID.TID 0000.0001) %MON vort_r_min                   =  -2.1180454536291E-05
(PID.TID 0000.0001) %MON vort_r_max                   =   1.0189743277914E-05
(PID.TID 0000.0001) %MON vort_a_mean                  =   6.7059142261979E-08
(PID.TID 0000.0001) %MON vort_a_sd                    =   8.3767172558874E-05
(PID.TID 0000.0001) %MON vort_p_mean                  =   6.8751163068885E-08
(PID.TID 0000.0001) %MON vort_p_sd                    =   9.1516162522453E-05
(PID.TID 0000.0001) %MON surfExpan_theta_mean         =  -5.7413211409388E-02
(PID.TID 0000.0001) %MON surfExpan_salt_mean          =  -1.1713297518485E-03
(PID.TID 0000.0001) %MON surfExpan_Heat_mean          =   4.4990365600298E+00
(PID.TID 0000.0001) %MON En_Budget_T2PE_mean          =  -8.7314885706461E+00
(PID.TID 0000.0001) // =======================================================
(PID.TID 0000.0001) // End MONITOR dynamic field statistics
(PID.TID 0000.0001) // =======================================================
(PID.TID 0000.0001) // =======================================================
(PID.TID 0000.0001) // Begin MONITOR Land statistics
(PID.TID 0000.0001) // =======================================================
(PID.TID 0000.0001) %MON land_time_sec                =   1.2150000000000E+04
(PID.TID 0000.0001) %MON land_SnwH_ave_G              =   1.5322175329812E-01
(PID.TID 0000.0001) %MON land_SnwH_ave_S              =   5.5903944102171E-01
(PID.TID 0000.0001) %MON land_SnwH_ave_T              =   0.0000000000000E+00
(PID.TID 0000.0001) %MON land_SnwH_ave_N              =   1.2389394876454E-01
(PID.TID 0000.0001) %MON land_SnwH_max_S              =   9.9998529798486E-01
(PID.TID 0000.0001) %MON land_SnwH_max_T              =   0.0000000000000E+00
(PID.TID 0000.0001) %MON land_SnwH_max_N              =   9.9999821266138E-01
(PID.TID 0000.0001) %MON land_TotEnerg_G              =  -6.3542934430690E+21
(PID.TID 0000.0001) %MON land_TotEnerg_S              =  -5.0023442294476E+21
(PID.TID 0000.0001) %MON land_TotEnerg_T              =   7.2761774798914E+21
(PID.TID 0000.0001) %MON land_TotEnerg_N              =  -8.6281266935127E+21
(PID.TID 0000.0001) %MON land_Tsrf_ave_G              =  -8.4722913922402E+00
(PID.TID 0000.0001) %MON land_Tsrf_ave_S              =  -7.3564181255658E+00
(PID.TID 0000.0001) %MON land_Tsrf_ave_T              =   1.0123575541554E+01
(PID.TID 0000.0001) %MON land_Tsrf_ave_N              =  -2.1252046924124E+01
(PID.TID 0000.0001) %MON land_Tsrf_min_S              =  -3.3712347527244E+01
(PID.TID 0000.0001) %MON land_Tsrf_min_T              =  -3.3620175631976E+00
(PID.TID 0000.0001) %MON land_Tsrf_min_N              =  -5.2044211264502E+01
(PID.TID 0000.0001) %MON land_Tsrf_max_S              =   2.0243657623350E+01
(PID.TID 0000.0001) %MON land_Tsrf_max_T              =   2.0347900583821E+01
(PID.TID 0000.0001) %MON land_Tsrf_max_N              =   8.2501490290949E+00
(PID.TID 0000.0001) %MON land_Tgr1_ave_G              =  -7.2610006068961E+00
(PID.TID 0000.0001) %MON land_Tgr1_ave_S              =  -7.2109945986392E+00
(PID.TID 0000.0001) %MON land_Tgr1_ave_T              =   1.0123575541554E+01
(PID.TID 0000.0001) %MON land_Tgr1_ave_N              =  -1.8886130931581E+01
(PID.TID 0000.0001) %MON land_Tgr1_min_S              =  -3.9296226455614E+01
(PID.TID 0000.0001) %MON land_Tgr1_min_T              =  -3.3620175631976E+00
(PID.TID 0000.0001) %MON land_Tgr1_min_N              =  -5.4669866223457E+01
(PID.TID 0000.0001) %MON land_Tgr1_max_S              =   2.0243657623350E+01
(PID.TID 0000.0001) %MON land_Tgr1_max_T              =   2.0347900583821E+01
(PID.TID 0000.0001) %MON land_Tgr1_max_N              =   8.2501490290949E+00
(PID.TID 0000.0001) %MON land_Tgr2_ave_G              =   4.2033874177733E+00
(PID.TID 0000.0001) %MON land_Tgr2_ave_S              =  -1.8726264910499E+01
(PID.TID 0000.0001) %MON land_Tgr2_ave_T              =   2.2009042644914E+01
(PID.TID 0000.0001) %MON land_Tgr2_ave_N              =  -2.4846598483161E-01
(PID.TID 0000.0001) %MON land_Tgr2_min_S              =  -6.4750637652338E+01
(PID.TID 0000.0001) %MON land_Tgr2_min_T              =  -9.7035930848962E+00
(PID.TID 0000.0001) %MON land_Tgr2_min_N              =  -4.0200050512423E+01
(PID.TID 0000.0001) %MON land_Tgr2_max_S              =   2.3359893564398E+01
(PID.TID 0000.0001) %MON land_Tgr2_max_T              =   3.1350908280427E+01
(PID.TID 0000.0001) %MON land_Tgr2_max_N              =   2.9820574626959E+01
(PID.TID 0000.0001) %MON land_grdW_ave_G              =   4.8674303474834E-01
(PID.TID 0000.0001) %MON land_grdW_ave_S              =   3.0850949953957E-01
(PID.TID 0000.0001) %MON land_grdW_ave_T              =   5.6414577113209E-01
(PID.TID 0000.0001) %MON land_grdW_ave_N              =   4.9287363659447E-01
(PID.TID 0000.0001) %MON land_grdW_min_S              =   2.7681657220593E-02
(PID.TID 0000.0001) %MON land_grdW_min_T              =   0.0000000000000E+00
(PID.TID 0000.0001) %MON land_grdW_min_N              =   0.0000000000000E+00
(PID.TID 0000.0001) // =======================================================
(PID.TID 0000.0001) // End MONITOR Land statistics
(PID.TID 0000.0001) // =======================================================
(PID.TID 0000.0001) // =======================================================
(PID.TID 0000.0001) // Begin MONITOR Therm.SeaIce statistics
(PID.TID 0000.0001) // =======================================================
(PID.TID 0000.0001) %MON thSI_time_sec                =   1.2150000000000E+04
(PID.TID 0000.0001) %MON thSI_Ice_Area_G              =   1.7309406925658E+11
(PID.TID 0000.0001) %MON thSI_Ice_Area_S              =   0.0000000000000E+00
(PID.TID 0000.0001) %MON thSI_Ice_Area_N              =   1.7309406925658E+11
(PID.TID 0000.0001) %MON thSI_IceH_ave_G              =   1.3934259160174E-01
(PID.TID 0000.0001) %MON thSI_IceH_ave_S              =   0.0000000000000E+00
(PID.TID 0000.0001) %MON thSI_IceH_ave_N              =   1.3934259160174E-01
(PID.TID 0000.0001) %MON thSI_IceH_max_S              =   0.0000000000000E+00
(PID.TID 0000.0001) %MON thSI_IceH_max_N              =   1.4868401239798E-01
(PID.TID 0000.0001) %MON thSI_SnwH_ave_G              =   0.0000000000000E+00
(PID.TID 0000.0001) %MON thSI_SnwH_ave_S              =   0.0000000000000E+00
(PID.TID 0000.0001) %MON thSI_SnwH_ave_N              =   0.0000000000000E+00
(PID.TID 0000.0001) %MON thSI_SnwH_max_S              =   0.0000000000000E+00
(PID.TID 0000.0001) %MON thSI_SnwH_max_N              =   0.0000000000000E+00
(PID.TID 0000.0001) %MON thSI_TotEnerg_G              =  -7.4480293003020E+18
(PID.TID 0000.0001) %MON thSI_Tsrf_ave_G              =  -9.0032197283849E+00
(PID.TID 0000.0001) %MON thSI_Tsrf_ave_S              =   0.0000000000000E+00
(PID.TID 0000.0001) %MON thSI_Tsrf_ave_N              =  -9.0032197283849E+00
(PID.TID 0000.0001) %MON thSI_Tsrf_min_S              =   0.0000000000000E+00
(PID.TID 0000.0001) %MON thSI_Tsrf_min_N              =  -9.1343668532530E+00
(PID.TID 0000.0001) %MON thSI_Tsrf_max_S              =   0.0000000000000E+00
(PID.TID 0000.0001) %MON thSI_Tsrf_max_N              =  -8.7443731205269E+00
(PID.TID 0000.0001) %MON thSI_Tic1_ave_G              =  -6.6977070904375E+00
(PID.TID 0000.0001) %MON thSI_Tic1_ave_S              =   0.0000000000000E+00
(PID.TID 0000.0001) %MON thSI_Tic1_ave_N              =  -6.6977070904375E+00
(PID.TID 0000.0001) %MON thSI_Tic1_min_S              =   0.0000000000000E+00
(PID.TID 0000.0001) %MON thSI_Tic1_min_N              =  -6.7425750510006E+00
(PID.TID 0000.0001) %MON thSI_Tic1_max_S              =   0.0000000000000E+00
(PID.TID 0000.0001) %MON thSI_Tic1_max_N              =  -6.6451602485759E+00
(PID.TID 0000.0001) %MON thSI_Tic2_ave_G              =  -3.1884625568088E+00
(PID.TID 0000.0001) %MON thSI_Tic2_ave_S              =   0.0000000000000E+00
(PID.TID 0000.0001) %MON thSI_Tic2_ave_N              =  -3.1884625568088E+00
(PID.TID 0000.0001) %MON thSI_Tic2_min_S              =   0.0000000000000E+00
(PID.TID 0000.0001) %MON thSI_Tic2_min_N              =  -3.2513137624202E+00
(PID.TID 0000.0001) %MON thSI_Tic2_max_S              =   0.0000000000000E+00
(PID.TID 0000.0001) %MON thSI_Tic2_max_N              =  -3.1284100822089E+00
(PID.TID 0000.0001) // =======================================================
(PID.TID 0000.0001) // End MONITOR Therm.SeaIce statistics
(PID.TID 0000.0001) // =======================================================
 cg2d: Sum(rhs),rhsMax =  -1.16415321826935E-10  2.06100495911117E+04
(PID.TID 0000.0001)                    cg2d_init_res =    1.12645149709653E+04
(PID.TID 0000.0001)                       cg2d_iters =    16
(PID.TID 0000.0001)                         cg2d_res =    6.86977712381431E-11
(PID.TID 0000.0001) // =======================================================
(PID.TID 0000.0001) // Begin MONITOR dynamic field statistics
(PID.TID 0000.0001) // =======================================================
(PID.TID 0000.0001) %MON time_tsnumber                =                    28
(PID.TID 0000.0001) %MON time_secondsf                =   1.2600000000000E+04
(PID.TID 0000.0001) %MON dynstat_eta_max              =   3.4001384925804E+03
(PID.TID 0000.0001) %MON dynstat_eta_min              =  -7.6204143327067E+02
(PID.TID 0000.0001) %MON dynstat_eta_mean             =   3.5344667118234E-14
(PID.TID 0000.0001) %MON dynstat_eta_sd               =   4.9244393609905E+02
(PID.TID 0000.0001) %MON dynstat_eta_del2             =   3.6263574001788E+01
(PID.TID 0000.0001) %MON dynstat_uvel_max             =   5.3035197821289E+00
(PID.TID 0000.0001) %MON dynstat_uvel_min             =  -5.6742583824340E+00
(PID.TID 0000.0001) %MON dynstat_uvel_mean            =   2.6286294218796E-02
(PID.TID 0000.0001) %MON dynstat_uvel_sd              =   8.1455617418724E-01
(PID.TID 0000.0001) %MON dynstat_uvel_del2            =   2.6085341996195E-02
(PID.TID 0000.0001) %MON dynstat_vvel_max             =   5.2086826650298E+00
(PID.TID 0000.0001) %MON dynstat_vvel_min             =  -5.9287339226786E+00
(PID.TID 0000.0001) %MON dynstat_vvel_mean            =   2.5197974840806E-02
(PID.TID 0000.0001) %MON dynstat_vvel_sd              =   8.1878153332199E-01
(PID.TID 0000.0001) %MON dynstat_vvel_del2            =   2.5599142700590E-02
(PID.TID 0000.0001) %MON dynstat_wvel_max             =   2.4455193646707E-01
(PID.TID 0000.0001) %MON dynstat_wvel_min             =  -1.2589565076244E-01
(PID.TID 0000.0001) %MON dynstat_wvel_mean            =   5.8169056660456E-04
(PID.TID 0000.0001) %MON dynstat_wvel_sd              =   1.0535528256623E-02
(PID.TID 0000.0001) %MON dynstat_wvel_del2            =   1.9523786526170E-03
(PID.TID 0000.0001) %MON dynstat_theta_max            =   4.3811861411116E+02
(PID.TID 0000.0001) %MON dynstat_theta_min            =   2.8300551472594E+02
(PID.TID 0000.0001) %MON dynstat_theta_mean           =   3.3167908546226E+02
(PID.TID 0000.0001) %MON dynstat_theta_sd             =   4.7459276844052E+01
(PID.TID 0000.0001) %MON dynstat_theta_del2           =   2.8285297728834E-02
(PID.TID 0000.0001) %MON dynstat_salt_max             =   4.6578267286775E+00
(PID.TID 0000.0001) %MON dynstat_salt_min             =  -1.7778735835708E-02
(PID.TID 0000.0001) %MON dynstat_salt_mean            =   1.0067124995568E-01
(PID.TID 0000.0001) %MON dynstat_salt_sd              =   3.9396757313283E-01
(PID.TID 0000.0001) %MON dynstat_salt_del2            =   1.1870330600089E-02
(PID.TID 0000.0001) %MON advcfl_uvel_max              =   7.9226188676139E-03
(PID.TID 0000.0001) %MON advcfl_vvel_max              =   8.4760501235428E-03
(PID.TID 0000.0001) %MON advcfl_wvel_max              =   4.0017589603703E-03
(PID.TID 0000.0001) %MON advcfl_W_hf_max              =   1.7824550993637E-02
(PID.TID 0000.0001) %MON pe_b_mean                    =  -1.2249612807990E+00
(PID.TID 0000.0001) %MON ke_max                       =   1.7635362639254E+01
(PID.TID 0000.0001) %MON ke_mean                      =   6.6364492953029E-01
(PID.TID 0000.0001) %MON ke_vol                       =   4.9523908919847E+19
(PID.TID 0000.0001) %MON vort_r_min                   =  -2.0607740027493E-05
(PID.TID 0000.0001) %MON vort_r_max                   =   1.0695663070861E-05
(PID.TID 0000.0001) %MON vort_a_mean                  =   6.7059142261999E-08
(PID.TID 0000.0001) %MON vort_a_sd                    =   8.3769593206882E-05
(PID.TID 0000.0001) %MON vort_p_mean                  =   6.8751164497428E-08
(PID.TID 0000.0001) %MON vort_p_sd                    =   9.1497738241469E-05
(PID.TID 0000.0001) %MON surfExpan_theta_mean         =  -5.8233123395635E-02
(PID.TID 0000.0001) %MON surfExpan_salt_mean          =  -1.2707360962011E-03
(PID.TID 0000.0001) %MON surfExpan_Heat_mean          =   4.5845672393128E+00
(PID.TID 0000.0001) %MON En_Budget_T2PE_mean          =  -8.8828059176891E+00
(PID.TID 0000.0001) // =======================================================
(PID.TID 0000.0001) // End MONITOR dynamic field statistics
(PID.TID 0000.0001) // =======================================================
(PID.TID 0000.0001) // =======================================================
(PID.TID 0000.0001) // Begin MONITOR Land statistics
(PID.TID 0000.0001) // =======================================================
(PID.TID 0000.0001) %MON land_time_sec                =   1.2600000000000E+04
(PID.TID 0000.0001) %MON land_SnwH_ave_G              =   1.5322080268520E-01
(PID.TID 0000.0001) %MON land_SnwH_ave_S              =   5.5903856708131E-01
(PID.TID 0000.0001) %MON land_SnwH_ave_T              =   0.0000000000000E+00
(PID.TID 0000.0001) %MON land_SnwH_ave_N              =   1.2389233848817E-01
(PID.TID 0000.0001) %MON land_SnwH_max_S              =   9.9998473868488E-01
(PID.TID 0000.0001) %MON land_SnwH_max_T              =   0.0000000000000E+00
(PID.TID 0000.0001) %MON land_SnwH_max_N              =   9.9999814896994E-01
(PID.TID 0000.0001) %MON land_TotEnerg_G              =  -6.3555203380868E+21
(PID.TID 0000.0001) %MON land_TotEnerg_S              =  -5.0023832433521E+21
(PID.TID 0000.0001) %MON land_TotEnerg_T              =   7.2755615656204E+21
(PID.TID 0000.0001) %MON land_TotEnerg_N              =  -8.6286986603550E+21
(PID.TID 0000.0001) %MON land_Tsrf_ave_G              =  -8.5029505497707E+00
(PID.TID 0000.0001) %MON land_Tsrf_ave_S              =  -7.3627886333291E+00
(PID.TID 0000.0001) %MON land_Tsrf_ave_T              =   1.0055684709118E+01
(PID.TID 0000.0001) %MON land_Tsrf_ave_N              =  -2.1265722954109E+01
(PID.TID 0000.0001) %MON land_Tsrf_min_S              =  -3.3692089625304E+01
(PID.TID 0000.0001) %MON land_Tsrf_min_T              =  -3.2552140068695E+00
(PID.TID 0000.0001) %MON land_Tsrf_min_N              =  -5.2039890106114E+01
(PID.TID 0000.0001) %MON land_Tsrf_max_S              =   2.0183934406236E+01
(PID.TID 0000.0001) %MON land_Tsrf_max_T              =   2.0239887833597E+01
(PID.TID 0000.0001) %MON land_Tsrf_max_N              =   8.1469562866436E+00
(PID.TID 0000.0001) %MON land_Tgr1_ave_G              =  -7.2964585178312E+00
(PID.TID 0000.0001) %MON land_Tgr1_ave_S              =  -7.2286416005987E+00
(PID.TID 0000.0001) %MON land_Tgr1_ave_T              =   1.0055684709118E+01
(PID.TID 0000.0001) %MON land_Tgr1_ave_N              =  -1.8905708841722E+01
(PID.TID 0000.0001) %MON land_Tgr1_min_S              =  -3.9307106480979E+01
(PID.TID 0000.0001) %MON land_Tgr1_min_T              =  -3.2552140068695E+00
(PID.TID 0000.0001) %MON land_Tgr1_min_N              =  -5.4657435240874E+01
(PID.TID 0000.0001) %MON land_Tgr1_max_S              =   2.0183934406236E+01
(PID.TID 0000.0001) %MON land_Tgr1_max_T              =   2.0239887833597E+01
(PID.TID 0000.0001) %MON land_Tgr1_max_N              =   8.1469562866436E+00
(PID.TID 0000.0001) %MON land_Tgr2_ave_G              =   4.2032111977450E+00
(PID.TID 0000.0001) %MON land_Tgr2_ave_S              =  -1.8726072135306E+01
(PID.TID 0000.0001) %MON land_Tgr2_ave_T              =   2.2008849846883E+01
(PID.TID 0000.0001) %MON land_Tgr2_ave_N              =  -2.4875083435874E-01
(PID.TID 0000.0001) %MON land_Tgr2_min_S              =  -6.4750208813928E+01
(PID.TID 0000.0001) %MON land_Tgr2_min_T              =  -9.7035116102854E+00
(PID.TID 0000.0001) %MON land_Tgr2_min_N              =  -4.0200285331770E+01
(PID.TID 0000.0001) %MON land_Tgr2_max_S              =   2.3359825154184E+01
(PID.TID 0000.0001) %MON land_Tgr2_max_T              =   3.1350470617043E+01
(PID.TID 0000.0001) %MON land_Tgr2_max_N              =   2.9820033985329E+01
(PID.TID 0000.0001) %MON land_grdW_ave_G              =   4.8673552411696E-01
(PID.TID 0000.0001) %MON land_grdW_ave_S              =   3.0850193276155E-01
(PID.TID 0000.0001) %MON land_grdW_ave_T              =   5.6412747461678E-01
(PID.TID 0000.0001) %MON land_grdW_ave_N              =   4.9287334667281E-01
(PID.TID 0000.0001) %MON land_grdW_min_S              =   2.7768390236280E-02
(PID.TID 0000.0001) %MON land_grdW_min_T              =   0.0000000000000E+00
(PID.TID 0000.0001) %MON land_grdW_min_N              =   0.0000000000000E+00
(PID.TID 0000.0001) // =======================================================
(PID.TID 0000.0001) // End MONITOR Land statistics
(PID.TID 0000.0001) // =======================================================
(PID.TID 0000.0001) // =======================================================
(PID.TID 0000.0001) // Begin MONITOR Therm.SeaIce statistics
(PID.TID 0000.0001) // =======================================================
(PID.TID 0000.0001) %MON thSI_time_sec                =   1.2600000000000E+04
(PID.TID 0000.0001) %MON thSI_Ice_Area_G              =   1.7309406925658E+11
(PID.TID 0000.0001) %MON thSI_Ice_Area_S              =   0.0000000000000E+00
(PID.TID 0000.0001) %MON thSI_Ice_Area_N              =   1.7309406925658E+11
(PID.TID 0000.0001) %MON thSI_IceH_ave_G              =   1.3947336094631E-01
(PID.TID 0000.0001) %MON thSI_IceH_ave_S              =   0.0000000000000E+00
(PID.TID 0000.0001) %MON thSI_IceH_ave_N              =   1.3947336094631E-01
(PID.TID 0000.0001) %MON thSI_IceH_max_S              =   0.0000000000000E+00
(PID.TID 0000.0001) %MON thSI_IceH_max_N              =   1.4880272392069E-01
(PID.TID 0000.0001) %MON thSI_SnwH_ave_G              =   0.0000000000000E+00
(PID.TID 0000.0001) %MON thSI_SnwH_ave_S              =   0.0000000000000E+00
(PID.TID 0000.0001) %MON thSI_SnwH_ave_N              =   0.0000000000000E+00
(PID.TID 0000.0001) %MON thSI_SnwH_max_S              =   0.0000000000000E+00
(PID.TID 0000.0001) %MON thSI_SnwH_max_N              =   0.0000000000000E+00
(PID.TID 0000.0001) %MON thSI_TotEnerg_G              =  -7.4581712867365E+18
(PID.TID 0000.0001) %MON thSI_Tsrf_ave_G              =  -9.0670334536533E+00
(PID.TID 0000.0001) %MON thSI_Tsrf_ave_S              =   0.0000000000000E+00
(PID.TID 0000.0001) %MON thSI_Tsrf_ave_N              =  -9.0670334536533E+00
(PID.TID 0000.0001) %MON thSI_Tsrf_min_S              =   0.0000000000000E+00
(PID.TID 0000.0001) %MON thSI_Tsrf_min_N              =  -9.2047278009845E+00
(PID.TID 0000.0001) %MON thSI_Tsrf_max_S              =   0.0000000000000E+00
(PID.TID 0000.0001) %MON thSI_Tsrf_max_N              =  -8.7967743632039E+00
(PID.TID 0000.0001) %MON thSI_Tic1_ave_G              =  -6.7808852374059E+00
(PID.TID 0000.0001) %MON thSI_Tic1_ave_S              =   0.0000000000000E+00
(PID.TID 0000.0001) %MON thSI_Tic1_ave_N              =  -6.7808852374059E+00
(PID.TID 0000.0001) %MON thSI_Tic1_min_S              =   0.0000000000000E+00
(PID.TID 0000.0001) %MON thSI_Tic1_min_N              =  -6.8276743150942E+00
(PID.TID 0000.0001) %MON thSI_Tic1_max_S              =   0.0000000000000E+00
(PID.TID 0000.0001) %MON thSI_Tic1_max_N              =  -6.7170489922939E+00
(PID.TID 0000.0001) %MON thSI_Tic2_ave_G              =  -3.2276269234702E+00
(PID.TID 0000.0001) %MON thSI_Tic2_ave_S              =   0.0000000000000E+00
(PID.TID 0000.0001) %MON thSI_Tic2_ave_N              =  -3.2276269234702E+00
(PID.TID 0000.0001) %MON thSI_Tic2_min_S              =   0.0000000000000E+00
(PID.TID 0000.0001) %MON thSI_Tic2_min_N              =  -3.2859003398545E+00
(PID.TID 0000.0001) %MON thSI_Tic2_max_S              =   0.0000000000000E+00
(PID.TID 0000.0001) %MON thSI_Tic2_max_N              =  -3.1713971707166E+00
(PID.TID 0000.0001) // =======================================================
(PID.TID 0000.0001) // End MONITOR Therm.SeaIce statistics
(PID.TID 0000.0001) // =======================================================
 cg2d: Sum(rhs),rhsMax =   1.16415321826935E-09  1.98792385562173E+04
(PID.TID 0000.0001)                    cg2d_init_res =    1.11416230770016E+04
(PID.TID 0000.0001)                       cg2d_iters =    16
(PID.TID 0000.0001)                         cg2d_res =    6.67761864480773E-11
(PID.TID 0000.0001) // =======================================================
(PID.TID 0000.0001) // Begin MONITOR dynamic field statistics
(PID.TID 0000.0001) // =======================================================
(PID.TID 0000.0001) %MON time_tsnumber                =                    29
(PID.TID 0000.0001) %MON time_secondsf                =   1.3050000000000E+04
(PID.TID 0000.0001) %MON dynstat_eta_max              =   3.3094026562417E+03
(PID.TID 0000.0001) %MON dynstat_eta_min              =  -7.6038915752351E+02
(PID.TID 0000.0001) %MON dynstat_eta_mean             =  -6.4263031124062E-14
(PID.TID 0000.0001) %MON dynstat_eta_sd               =   4.8184283228372E+02
(PID.TID 0000.0001) %MON dynstat_eta_del2             =   3.6197367569812E+01
(PID.TID 0000.0001) %MON dynstat_uvel_max             =   5.1507279287836E+00
(PID.TID 0000.0001) %MON dynstat_uvel_min             =  -5.5312543433558E+00
(PID.TID 0000.0001) %MON dynstat_uvel_mean            =   3.2619608915904E-02
(PID.TID 0000.0001) %MON dynstat_uvel_sd              =   8.0701474257782E-01
(PID.TID 0000.0001) %MON dynstat_uvel_del2            =   2.6619000094726E-02
(PID.TID 0000.0001) %MON dynstat_vvel_max             =   5.1826051449391E+00
(PID.TID 0000.0001) %MON dynstat_vvel_min             =  -5.8002696811964E+00
(PID.TID 0000.0001) %MON dynstat_vvel_mean            =   2.4324477227365E-02
(PID.TID 0000.0001) %MON dynstat_vvel_sd              =   8.1835398037750E-01
(PID.TID 0000.0001) %MON dynstat_vvel_del2            =   2.6288691566491E-02
(PID.TID 0000.0001) %MON dynstat_wvel_max             =   2.3587081385212E-01
(PID.TID 0000.0001) %MON dynstat_wvel_min             =  -1.1590224414530E-01
(PID.TID 0000.0001) %MON dynstat_wvel_mean            =   5.7839020272458E-04
(PID.TID 0000.0001) %MON dynstat_wvel_sd              =   1.0423840099947E-02
(PID.TID 0000.0001) %MON dynstat_wvel_del2            =   1.9914836011486E-03
(PID.TID 0000.0001) %MON dynstat_theta_max            =   4.3813616454362E+02
(PID.TID 0000.0001) %MON dynstat_theta_min            =   2.8278956002530E+02
(PID.TID 0000.0001) %MON dynstat_theta_mean           =   3.3167691481006E+02
(PID.TID 0000.0001) %MON dynstat_theta_sd             =   4.7461340473140E+01
(PID.TID 0000.0001) %MON dynstat_theta_del2           =   2.9202608822848E-02
(PID.TID 0000.0001) %MON dynstat_salt_max             =   4.7006745671237E+00
(PID.TID 0000.0001) %MON dynstat_salt_min             =  -1.9903155158885E-02
(PID.TID 0000.0001) %MON dynstat_salt_mean            =   1.0400856521600E-01
(PID.TID 0000.0001) %MON dynstat_salt_sd              =   4.0557715269770E-01
(PID.TID 0000.0001) %MON dynstat_salt_del2            =   1.2187581672813E-02
(PID.TID 0000.0001) %MON advcfl_uvel_max              =   7.7229511010466E-03
(PID.TID 0000.0001) %MON advcfl_vvel_max              =   8.2923904477862E-03
(PID.TID 0000.0001) %MON advcfl_wvel_max              =   3.8597042266710E-03
(PID.TID 0000.0001) %MON advcfl_W_hf_max              =   1.8451450757610E-02
(PID.TID 0000.0001) %MON pe_b_mean                    =  -1.2256968354212E+00
(PID.TID 0000.0001) %MON ke_max                       =   1.6766399820074E+01
(PID.TID 0000.0001) %MON ke_mean                      =   6.5737882111864E-01
(PID.TID 0000.0001) %MON ke_vol                       =   4.9523908919847E+19
(PID.TID 0000.0001) %MON vort_r_min                   =  -2.0408794127628E-05
(PID.TID 0000.0001) %MON vort_r_max                   =   1.1217149918149E-05
(PID.TID 0000.0001) %MON vort_a_mean                  =   6.7059142262088E-08
(PID.TID 0000.0001) %MON vort_a_sd                    =   8.3771958718493E-05
(PID.TID 0000.0001) %MON vort_p_mean                  =   6.8751166034623E-08
(PID.TID 0000.0001) %MON vort_p_sd                    =   9.1480072967958E-05
(PID.TID 0000.0001) %MON surfExpan_theta_mean         =  -5.7563274560344E-02
(PID.TID 0000.0001) %MON surfExpan_salt_mean          =  -1.3672891222264E-03
(PID.TID 0000.0001) %MON surfExpan_Heat_mean          =   4.5453151414693E+00
(PID.TID 0000.0001) %MON En_Budget_T2PE_mean          =  -8.7998638464366E+00
(PID.TID 0000.0001) // =======================================================
(PID.TID 0000.0001) // End MONITOR dynamic field statistics
(PID.TID 0000.0001) // =======================================================
(PID.TID 0000.0001) // =======================================================
(PID.TID 0000.0001) // Begin MONITOR Land statistics
(PID.TID 0000.0001) // =======================================================
(PID.TID 0000.0001) %MON land_time_sec                =   1.3050000000000E+04
(PID.TID 0000.0001) %MON land_SnwH_ave_G              =   1.5321985437542E-01
(PID.TID 0000.0001) %MON land_SnwH_ave_S              =   5.5903769678881E-01
(PID.TID 0000.0001) %MON land_SnwH_ave_T              =   0.0000000000000E+00
(PID.TID 0000.0001) %MON land_SnwH_ave_N              =   1.2389073161667E-01
(PID.TID 0000.0001) %MON land_SnwH_max_S              =   9.9998417846388E-01
(PID.TID 0000.0001) %MON land_SnwH_max_T              =   0.0000000000000E+00
(PID.TID 0000.0001) %MON land_SnwH_max_N              =   9.9999808522964E-01
(PID.TID 0000.0001) %MON land_TotEnerg_G              =  -6.3566841897680E+21
(PID.TID 0000.0001) %MON land_TotEnerg_S              =  -5.0024145549228E+21
(PID.TID 0000.0001) %MON land_TotEnerg_T              =   7.2749909754455E+21
(PID.TID 0000.0001) %MON land_TotEnerg_N              =  -8.6292606102907E+21
(PID.TID 0000.0001) %MON land_Tsrf_ave_G              =  -8.5315697712295E+00
(PID.TID 0000.0001) %MON land_Tsrf_ave_S              =  -7.3701069070710E+00
(PID.TID 0000.0001) %MON land_Tsrf_ave_T              =   9.9934684923084E+00
(PID.TID 0000.0001) %MON land_Tsrf_ave_N              =  -2.1278816987794E+01
(PID.TID 0000.0001) %MON land_Tsrf_min_S              =  -3.3669124438188E+01
(PID.TID 0000.0001) %MON land_Tsrf_min_T              =  -3.1518821973991E+00
(PID.TID 0000.0001) %MON land_Tsrf_min_N              =  -5.2035653563239E+01
(PID.TID 0000.0001) %MON land_Tsrf_max_S              =   2.0132685842505E+01
(PID.TID 0000.0001) %MON land_Tsrf_max_T              =   2.0143894741995E+01
(PID.TID 0000.0001) %MON land_Tsrf_max_N              =   8.0504313382740E+00
(PID.TID 0000.0001) %MON land_Tgr1_ave_G              =  -7.3292162157070E+00
(PID.TID 0000.0001) %MON land_Tgr1_ave_S              =  -7.2440441940049E+00
(PID.TID 0000.0001) %MON land_Tgr1_ave_T              =   9.9934684923084E+00
(PID.TID 0000.0001) %MON land_Tgr1_ave_N              =  -1.8924424897157E+01
(PID.TID 0000.0001) %MON land_Tgr1_min_S              =  -3.9317946817384E+01
(PID.TID 0000.0001) %MON land_Tgr1_min_T              =  -3.1518821973991E+00
(PID.TID 0000.0001) %MON land_Tgr1_min_N              =  -5.4645020667106E+01
(PID.TID 0000.0001) %MON land_Tgr1_max_S              =   2.0132685842505E+01
(PID.TID 0000.0001) %MON land_Tgr1_max_T              =   2.0143894741995E+01
(PID.TID 0000.0001) %MON land_Tgr1_max_N              =   8.0504313382740E+00
(PID.TID 0000.0001) %MON land_Tgr2_ave_G              =   4.2030345134300E+00
(PID.TID 0000.0001) %MON land_Tgr2_ave_S              =  -1.8725879606448E+01
(PID.TID 0000.0001) %MON land_Tgr2_ave_T              =   2.2008656183133E+01
(PID.TID 0000.0001) %MON land_Tgr2_ave_N              =  -2.4903595081049E-01
(PID.TID 0000.0001) %MON land_Tgr2_min_S              =  -6.4749780181384E+01
(PID.TID 0000.0001) %MON land_Tgr2_min_T              =  -9.7034288313841E+00
(PID.TID 0000.0001) %MON land_Tgr2_min_N              =  -4.0200519918048E+01
(PID.TID 0000.0001) %MON land_Tgr2_max_S              =   2.3359755503028E+01
(PID.TID 0000.0001) %MON land_Tgr2_max_T              =   3.1350030804324E+01
(PID.TID 0000.0001) %MON land_Tgr2_max_N              =   2.9819489051760E+01
(PID.TID 0000.0001) %MON land_grdW_ave_G              =   4.8672809121681E-01
(PID.TID 0000.0001) %MON land_grdW_ave_S              =   3.0849441507615E-01
(PID.TID 0000.0001) %MON land_grdW_ave_T              =   5.6410938495948E-01
(PID.TID 0000.0001) %MON land_grdW_ave_N              =   4.9287305754550E-01
(PID.TID 0000.0001) %MON land_grdW_min_S              =   2.7854906075807E-02
(PID.TID 0000.0001) %MON land_grdW_min_T              =   0.0000000000000E+00
(PID.TID 0000.0001) %MON land_grdW_min_N              =   0.0000000000000E+00
(PID.TID 0000.0001) // =======================================================
(PID.TID 0000.0001) // End MONITOR Land statistics
(PID.TID 0000.0001) // =======================================================
(PID.TID 0000.0001) // =======================================================
(PID.TID 0000.0001) // Begin MONITOR Therm.SeaIce statistics
(PID.TID 0000.0001) // =======================================================
(PID.TID 0000.0001) %MON thSI_time_sec                =   1.3050000000000E+04
(PID.TID 0000.0001) %MON thSI_Ice_Area_G              =   1.7309406925658E+11
(PID.TID 0000.0001) %MON thSI_Ice_Area_S              =   0.0000000000000E+00
(PID.TID 0000.0001) %MON thSI_Ice_Area_N              =   1.7309406925658E+11
(PID.TID 0000.0001) %MON thSI_IceH_ave_G              =   1.3960708295141E-01
(PID.TID 0000.0001) %MON thSI_IceH_ave_S              =   0.0000000000000E+00
(PID.TID 0000.0001) %MON thSI_IceH_ave_N              =   1.3960708295141E-01
(PID.TID 0000.0001) %MON thSI_IceH_max_S              =   0.0000000000000E+00
(PID.TID 0000.0001) %MON thSI_IceH_max_N              =   1.4892456510050E-01
(PID.TID 0000.0001) %MON thSI_SnwH_ave_G              =   0.0000000000000E+00
(PID.TID 0000.0001) %MON thSI_SnwH_ave_S              =   0.0000000000000E+00
(PID.TID 0000.0001) %MON thSI_SnwH_ave_N              =   0.0000000000000E+00
(PID.TID 0000.0001) %MON thSI_SnwH_max_S              =   0.0000000000000E+00
(PID.TID 0000.0001) %MON thSI_SnwH_max_N              =   0.0000000000000E+00
(PID.TID 0000.0001) %MON thSI_TotEnerg_G              =  -7.4682218822262E+18
(PID.TID 0000.0001) %MON thSI_Tsrf_ave_G              =  -9.1252893628236E+00
(PID.TID 0000.0001) %MON thSI_Tsrf_ave_S              =   0.0000000000000E+00
(PID.TID 0000.0001) %MON thSI_Tsrf_ave_N              =  -9.1252893628236E+00
(PID.TID 0000.0001) %MON thSI_Tsrf_min_S              =   0.0000000000000E+00
(PID.TID 0000.0001) %MON thSI_Tsrf_min_N              =  -9.2698676575736E+00
(PID.TID 0000.0001) %MON thSI_Tsrf_max_S              =   0.0000000000000E+00
(PID.TID 0000.0001) %MON thSI_Tsrf_max_N              =  -8.8434732605545E+00
(PID.TID 0000.0001) %MON thSI_Tic1_ave_G              =  -6.8577004856488E+00
(PID.TID 0000.0001) %MON thSI_Tic1_ave_S              =   0.0000000000000E+00
(PID.TID 0000.0001) %MON thSI_Tic1_ave_N              =  -6.8577004856488E+00
(PID.TID 0000.0001) %MON thSI_Tic1_min_S              =   0.0000000000000E+00
(PID.TID 0000.0001) %MON thSI_Tic1_min_N              =  -6.9064955065884E+00
(PID.TID 0000.0001) %MON thSI_Tic1_max_S              =   0.0000000000000E+00
(PID.TID 0000.0001) %MON thSI_Tic1_max_N              =  -6.7792011822638E+00
(PID.TID 0000.0001) %MON thSI_Tic2_ave_G              =  -3.2635323342194E+00
(PID.TID 0000.0001) %MON thSI_Tic2_ave_S              =   0.0000000000000E+00
(PID.TID 0000.0001) %MON thSI_Tic2_ave_N              =  -3.2635323342194E+00
(PID.TID 0000.0001) %MON thSI_Tic2_min_S              =   0.0000000000000E+00
(PID.TID 0000.0001) %MON thSI_Tic2_min_N              =  -3.3171684100537E+00
(PID.TID 0000.0001) %MON thSI_Tic2_max_S              =   0.0000000000000E+00
(PID.TID 0000.0001) %MON thSI_Tic2_max_N              =  -3.2112130196737E+00
(PID.TID 0000.0001) // =======================================================
(PID.TID 0000.0001) // End MONITOR Therm.SeaIce statistics
(PID.TID 0000.0001) // =======================================================
 cg2d: Sum(rhs),rhsMax =   1.16415321826935E-09  1.92499172456423E+04
(PID.TID 0000.0001)                    cg2d_init_res =    1.10028542698954E+04
(PID.TID 0000.0001)                       cg2d_iters =    16
(PID.TID 0000.0001)                         cg2d_res =    6.48126256579414E-11
(PID.TID 0000.0001) // =======================================================
(PID.TID 0000.0001) // Begin MONITOR dynamic field statistics
(PID.TID 0000.0001) // =======================================================
(PID.TID 0000.0001) %MON time_tsnumber                =                    30
(PID.TID 0000.0001) %MON time_secondsf                =   1.3500000000000E+04
(PID.TID 0000.0001) %MON dynstat_eta_max              =   3.2320281484407E+03
(PID.TID 0000.0001) %MON dynstat_eta_min              =  -7.5927973999931E+02
(PID.TID 0000.0001) %MON dynstat_eta_mean             =   7.0689334236469E-14
(PID.TID 0000.0001) %MON dynstat_eta_sd               =   4.7177127369654E+02
(PID.TID 0000.0001) %MON dynstat_eta_del2             =   3.6153701281010E+01
(PID.TID 0000.0001) %MON dynstat_uvel_max             =   4.9970485527161E+00
(PID.TID 0000.0001) %MON dynstat_uvel_min             =  -5.3375897397046E+00
(PID.TID 0000.0001) %MON dynstat_uvel_mean            =   3.9266821826107E-02
(PID.TID 0000.0001) %MON dynstat_uvel_sd              =   7.9891338662452E-01
(PID.TID 0000.0001) %MON dynstat_uvel_del2            =   2.7191754297934E-02
(PID.TID 0000.0001) %MON dynstat_vvel_max             =   5.1187750143371E+00
(PID.TID 0000.0001) %MON dynstat_vvel_min             =  -5.6321394544089E+00
(PID.TID 0000.0001) %MON dynstat_vvel_mean            =   2.3524241459341E-02
(PID.TID 0000.0001) %MON dynstat_vvel_sd              =   8.1635606280531E-01
(PID.TID 0000.0001) %MON dynstat_vvel_del2            =   2.6977027385223E-02
(PID.TID 0000.0001) %MON dynstat_wvel_max             =   2.2224684916034E-01
(PID.TID 0000.0001) %MON dynstat_wvel_min             =  -1.0422092468474E-01
(PID.TID 0000.0001) %MON dynstat_wvel_mean            =   5.6209857953377E-04
(PID.TID 0000.0001) %MON dynstat_wvel_sd              =   1.0277653239957E-02
(PID.TID 0000.0001) %MON dynstat_wvel_del2            =   2.0223468835107E-03
(PID.TID 0000.0001) %MON dynstat_theta_max            =   4.3813110374924E+02
(PID.TID 0000.0001) %MON dynstat_theta_min            =   2.8257467056912E+02
(PID.TID 0000.0001) %MON dynstat_theta_mean           =   3.3167471432992E+02
(PID.TID 0000.0001) %MON dynstat_theta_sd             =   4.7463411135401E+01
(PID.TID 0000.0001) %MON dynstat_theta_del2           =   3.0128487960172E-02
(PID.TID 0000.0001) %MON dynstat_salt_max             =   4.7403883847852E+00
(PID.TID 0000.0001) %MON dynstat_salt_min             =  -2.2089483769656E-02
(PID.TID 0000.0001) %MON dynstat_salt_mean            =   1.0733537136257E-01
(PID.TID 0000.0001) %MON dynstat_salt_sd              =   4.1708644056547E-01
(PID.TID 0000.0001) %MON dynstat_salt_del2            =   1.2504248162943E-02
(PID.TID 0000.0001) %MON advcfl_uvel_max              =   7.4844396073540E-03
(PID.TID 0000.0001) %MON advcfl_vvel_max              =   8.0520220574825E-03
(PID.TID 0000.0001) %MON advcfl_wvel_max              =   3.6567931474223E-03
(PID.TID 0000.0001) %MON advcfl_W_hf_max              =   1.8886095168187E-02
(PID.TID 0000.0001) %MON pe_b_mean                    =  -1.2245871410661E+00
(PID.TID 0000.0001) %MON ke_max                       =   1.5780836930837E+01
(PID.TID 0000.0001) %MON ke_mean                      =   6.4950332526553E-01
(PID.TID 0000.0001) %MON ke_vol                       =   4.9523908919847E+19
(PID.TID 0000.0001) %MON vort_r_min                   =  -2.0065624558973E-05
(PID.TID 0000.0001) %MON vort_r_max                   =   1.1758086161887E-05
(PID.TID 0000.0001) %MON vort_a_mean                  =   6.7059142262011E-08
(PID.TID 0000.0001) %MON vort_a_sd                    =   8.3774265789036E-05
(PID.TID 0000.0001) %MON vort_p_mean                  =   6.8751167630327E-08
(PID.TID 0000.0001) %MON vort_p_sd                    =   9.1463368168871E-05
(PID.TID 0000.0001) %MON surfExpan_theta_mean         =  -5.5644815787782E-02
(PID.TID 0000.0001) %MON surfExpan_salt_mean          =  -1.4591580552542E-03
(PID.TID 0000.0001) %MON surfExpan_Heat_mean          =   4.4006319339521E+00
(PID.TID 0000.0001) %MON En_Budget_T2PE_mean          =  -8.5195475791441E+00
(PID.TID 0000.0001) // =======================================================
(PID.TID 0000.0001) // End MONITOR dynamic field statistics
(PID.TID 0000.0001) // =======================================================
(PID.TID 0000.0001) // =======================================================
(PID.TID 0000.0001) // Begin MONITOR Land statistics
(PID.TID 0000.0001) // =======================================================
(PID.TID 0000.0001) %MON land_time_sec                =   1.3500000000000E+04
(PID.TID 0000.0001) %MON land_SnwH_ave_G              =   1.5321890845256E-01
(PID.TID 0000.0001) %MON land_SnwH_ave_S              =   5.5903683101055E-01
(PID.TID 0000.0001) %MON land_SnwH_ave_T              =   0.0000000000000E+00
(PID.TID 0000.0001) %MON land_SnwH_ave_N              =   1.2388912803593E-01
(PID.TID 0000.0001) %MON land_SnwH_max_S              =   9.9998361711543E-01
(PID.TID 0000.0001) %MON land_SnwH_max_T              =   0.0000000000000E+00
(PID.TID 0000.0001) %MON land_SnwH_max_N              =   9.9999802144418E-01
(PID.TID 0000.0001) %MON land_TotEnerg_G              =  -6.3577905073478E+21
(PID.TID 0000.0001) %MON land_TotEnerg_S              =  -5.0024389690320E+21
(PID.TID 0000.0001) %MON land_TotEnerg_T              =   7.2744614063096E+21
(PID.TID 0000.0001) %MON land_TotEnerg_N              =  -8.6298129446253E+21
(PID.TID 0000.0001) %MON land_Tsrf_ave_G              =  -8.5580979614862E+00
(PID.TID 0000.0001) %MON land_Tsrf_ave_S              =  -7.3776197690622E+00
(PID.TID 0000.0001) %MON land_Tsrf_ave_T              =   9.9364682515331E+00
(PID.TID 0000.0001) %MON land_Tsrf_ave_N              =  -2.1291165295509E+01
(PID.TID 0000.0001) %MON land_Tsrf_min_S              =  -3.3643925568860E+01
(PID.TID 0000.0001) %MON land_Tsrf_min_T              =  -3.0519783235309E+00
(PID.TID 0000.0001) %MON land_Tsrf_min_N              =  -5.2031394967511E+01
(PID.TID 0000.0001) %MON land_Tsrf_max_S              =   2.0089069062441E+01
(PID.TID 0000.0001) %MON land_Tsrf_max_T              =   2.0058811939542E+01
(PID.TID 0000.0001) %MON land_Tsrf_max_N              =   7.9602816292801E+00
(PID.TID 0000.0001) %MON land_Tgr1_ave_G              =  -7.3593895954675E+00
(PID.TID 0000.0001) %MON land_Tgr1_ave_S              =  -7.2574404895900E+00
(PID.TID 0000.0001) %MON land_Tgr1_ave_T              =   9.9364682515331E+00
(PID.TID 0000.0001) %MON land_Tgr1_ave_N              =  -1.8942126471979E+01
(PID.TID 0000.0001) %MON land_Tgr1_min_S              =  -3.9328745858465E+01
(PID.TID 0000.0001) %MON land_Tgr1_min_T              =  -3.0519783235309E+00
(PID.TID 0000.0001) %MON land_Tgr1_min_N              =  -5.4632622453653E+01
(PID.TID 0000.0001) %MON land_Tgr1_max_S              =   2.0089069062441E+01
(PID.TID 0000.0001) %MON land_Tgr1_max_T              =   2.0058811939542E+01
(PID.TID 0000.0001) %MON land_Tgr1_max_N              =   7.9602816292801E+00
(PID.TID 0000.0001) %MON land_Tgr2_ave_G              =   4.2028574089037E+00
(PID.TID 0000.0001) %MON land_Tgr2_ave_S              =  -1.8725687292073E+01
(PID.TID 0000.0001) %MON land_Tgr2_ave_T              =   2.2008461741374E+01
(PID.TID 0000.0001) %MON land_Tgr2_ave_N              =  -2.4932131528329E-01
(PID.TID 0000.0001) %MON land_Tgr2_min_S              =  -6.4749351753964E+01
(PID.TID 0000.0001) %MON land_Tgr2_min_T              =  -9.7033447915270E+00
(PID.TID 0000.0001) %MON land_Tgr2_min_N              =  -4.0200754272132E+01
(PID.TID 0000.0001) %MON land_Tgr2_max_S              =   2.3359684738152E+01
(PID.TID 0000.0001) %MON land_Tgr2_max_T              =   3.1349588978454E+01
(PID.TID 0000.0001) %MON land_Tgr2_max_N              =   2.9818939992632E+01
(PID.TID 0000.0001) %MON land_grdW_ave_G              =   4.8672072853950E-01
(PID.TID 0000.0001) %MON land_grdW_ave_S              =   3.0848694242263E-01
(PID.TID 0000.0001) %MON land_grdW_ave_T              =   5.6409148200461E-01
(PID.TID 0000.0001) %MON land_grdW_ave_N              =   4.9287276903117E-01
(PID.TID 0000.0001) %MON land_grdW_min_S              =   2.7941153495823E-02
(PID.TID 0000.0001) %MON land_grdW_min_T              =   0.0000000000000E+00
(PID.TID 0000.0001) %MON land_grdW_min_N              =   0.0000000000000E+00
(PID.TID 0000.0001) // =======================================================
(PID.TID 0000.0001) // End MONITOR Land statistics
(PID.TID 0000.0001) // =======================================================
(PID.TID 0000.0001) // =======================================================
(PID.TID 0000.0001) // Begin MONITOR Therm.SeaIce statistics
(PID.TID 0000.0001) // =======================================================
(PID.TID 0000.0001) %MON thSI_time_sec                =   1.3500000000000E+04
(PID.TID 0000.0001) %MON thSI_Ice_Area_G              =   1.7309406925658E+11
(PID.TID 0000.0001) %MON thSI_Ice_Area_S              =   0.0000000000000E+00
(PID.TID 0000.0001) %MON thSI_Ice_Area_N              =   1.7309406925658E+11
(PID.TID 0000.0001) %MON thSI_IceH_ave_G              =   1.3974349235627E-01
(PID.TID 0000.0001) %MON thSI_IceH_ave_S              =   0.0000000000000E+00
(PID.TID 0000.0001) %MON thSI_IceH_ave_N              =   1.3974349235627E-01
(PID.TID 0000.0001) %MON thSI_IceH_max_S              =   0.0000000000000E+00
(PID.TID 0000.0001) %MON thSI_IceH_max_N              =   1.4904929245085E-01
(PID.TID 0000.0001) %MON thSI_SnwH_ave_G              =   0.0000000000000E+00
(PID.TID 0000.0001) %MON thSI_SnwH_ave_S              =   0.0000000000000E+00
(PID.TID 0000.0001) %MON thSI_SnwH_ave_N              =   0.0000000000000E+00
(PID.TID 0000.0001) %MON thSI_SnwH_max_S              =   0.0000000000000E+00
(PID.TID 0000.0001) %MON thSI_SnwH_max_N              =   0.0000000000000E+00
(PID.TID 0000.0001) %MON thSI_TotEnerg_G              =  -7.4781844577070E+18
(PID.TID 0000.0001) %MON thSI_Tsrf_ave_G              =  -9.1782807881484E+00
(PID.TID 0000.0001) %MON thSI_Tsrf_ave_S              =   0.0000000000000E+00
(PID.TID 0000.0001) %MON thSI_Tsrf_ave_N              =  -9.1782807881484E+00
(PID.TID 0000.0001) %MON thSI_Tsrf_min_S              =   0.0000000000000E+00
(PID.TID 0000.0001) %MON thSI_Tsrf_min_N              =  -9.3300094315727E+00
(PID.TID 0000.0001) %MON thSI_Tsrf_max_S              =   0.0000000000000E+00
(PID.TID 0000.0001) %MON thSI_Tsrf_max_N              =  -8.8848671803662E+00
(PID.TID 0000.0001) %MON thSI_Tic1_ave_G              =  -6.9284908228751E+00
(PID.TID 0000.0001) %MON thSI_Tic1_ave_S              =   0.0000000000000E+00
(PID.TID 0000.0001) %MON thSI_Tic1_ave_N              =  -6.9284908228751E+00
(PID.TID 0000.0001) %MON thSI_Tic1_min_S              =   0.0000000000000E+00
(PID.TID 0000.0001) %MON thSI_Tic1_min_N              =  -6.9809876903809E+00
(PID.TID 0000.0001) %MON thSI_Tic1_max_S              =   0.0000000000000E+00
(PID.TID 0000.0001) %MON thSI_Tic1_max_N              =  -6.8352324876834E+00
(PID.TID 0000.0001) %MON thSI_Tic2_ave_G              =  -3.2964808575982E+00
(PID.TID 0000.0001) %MON thSI_Tic2_ave_S              =   0.0000000000000E+00
(PID.TID 0000.0001) %MON thSI_Tic2_ave_N              =  -3.2964808575982E+00
(PID.TID 0000.0001) %MON thSI_Tic2_min_S              =   0.0000000000000E+00
(PID.TID 0000.0001) %MON thSI_Tic2_min_N              =  -3.3454632201104E+00
(PID.TID 0000.0001) %MON thSI_Tic2_max_S              =   0.0000000000000E+00
(PID.TID 0000.0001) %MON thSI_Tic2_max_N              =  -3.2481188266350E+00
(PID.TID 0000.0001) // =======================================================
(PID.TID 0000.0001) // End MONITOR Therm.SeaIce statistics
(PID.TID 0000.0001) // =======================================================
 cg2d: Sum(rhs),rhsMax =   1.39698386192322E-09  1.87205552046499E+04
(PID.TID 0000.0001)                    cg2d_init_res =    1.08465685861960E+04
(PID.TID 0000.0001)                       cg2d_iters =    16
(PID.TID 0000.0001)                         cg2d_res =    6.31935308942822E-11
(PID.TID 0000.0001) // =======================================================
(PID.TID 0000.0001) // Begin MONITOR dynamic field statistics
(PID.TID 0000.0001) // =======================================================
(PID.TID 0000.0001) %MON time_tsnumber                =                    31
(PID.TID 0000.0001) %MON time_secondsf                =   1.3950000000000E+04
(PID.TID 0000.0001) %MON dynstat_eta_max              =   3.1557855113348E+03
(PID.TID 0000.0001) %MON dynstat_eta_min              =  -7.5880273636560E+02
(PID.TID 0000.0001) %MON dynstat_eta_mean             =  -8.3541940461281E-14
(PID.TID 0000.0001) %MON dynstat_eta_sd               =   4.6244512625306E+02
(PID.TID 0000.0001) %MON dynstat_eta_del2             =   3.6142826273416E+01
(PID.TID 0000.0001) %MON dynstat_uvel_max             =   4.8455770387434E+00
(PID.TID 0000.0001) %MON dynstat_uvel_min             =  -5.1753694318818E+00
(PID.TID 0000.0001) %MON dynstat_uvel_mean            =   4.6136244251182E-02
(PID.TID 0000.0001) %MON dynstat_uvel_sd              =   7.9048114122180E-01
(PID.TID 0000.0001) %MON dynstat_uvel_del2            =   2.7802911739450E-02
(PID.TID 0000.0001) %MON dynstat_vvel_max             =   5.0204714462671E+00
(PID.TID 0000.0001) %MON dynstat_vvel_min             =  -5.4374210883848E+00
(PID.TID 0000.0001) %MON dynstat_vvel_mean            =   2.2865306254711E-02
(PID.TID 0000.0001) %MON dynstat_vvel_sd              =   8.1275845383598E-01
(PID.TID 0000.0001) %MON dynstat_vvel_del2            =   2.7638962331348E-02
(PID.TID 0000.0001) %MON dynstat_wvel_max             =   2.1538043106287E-01
(PID.TID 0000.0001) %MON dynstat_wvel_min             =  -9.1527127589017E-02
(PID.TID 0000.0001) %MON dynstat_wvel_mean            =   5.3531820437463E-04
(PID.TID 0000.0001) %MON dynstat_wvel_sd              =   1.0105026115895E-02
(PID.TID 0000.0001) %MON dynstat_wvel_del2            =   2.0482952908268E-03
(PID.TID 0000.0001) %MON dynstat_theta_max            =   4.3810567592585E+02
(PID.TID 0000.0001) %MON dynstat_theta_min            =   2.8236067067801E+02
(PID.TID 0000.0001) %MON dynstat_theta_mean           =   3.3167248660575E+02
(PID.TID 0000.0001) %MON dynstat_theta_sd             =   4.7465489131215E+01
(PID.TID 0000.0001) %MON dynstat_theta_del2           =   3.1055215251416E-02
(PID.TID 0000.0001) %MON dynstat_salt_max             =   4.7774915549456E+00
(PID.TID 0000.0001) %MON dynstat_salt_min             =  -2.4336621279820E-02
(PID.TID 0000.0001) %MON dynstat_salt_mean            =   1.1065189398488E-01
(PID.TID 0000.0001) %MON dynstat_salt_sd              =   4.2849734429506E-01
(PID.TID 0000.0001) %MON dynstat_salt_del2            =   1.2821225598742E-02
(PID.TID 0000.0001) %MON advcfl_uvel_max              =   7.2654987023950E-03
(PID.TID 0000.0001) %MON advcfl_vvel_max              =   7.7736417739481E-03
(PID.TID 0000.0001) %MON advcfl_wvel_max              =   3.5244070537561E-03
(PID.TID 0000.0001) %MON advcfl_W_hf_max              =   1.9144090760519E-02
(PID.TID 0000.0001) %MON pe_b_mean                    =  -1.2218023149825E+00
(PID.TID 0000.0001) %MON ke_max                       =   1.5091446837419E+01
(PID.TID 0000.0001) %MON ke_mean                      =   6.4020114287576E-01
(PID.TID 0000.0001) %MON ke_vol                       =   4.9523908919847E+19
(PID.TID 0000.0001) %MON vort_r_min                   =  -1.9616141217281E-05
(PID.TID 0000.0001) %MON vort_r_max                   =   1.2321701887936E-05
(PID.TID 0000.0001) %MON vort_a_mean                  =   6.7059142262016E-08
(PID.TID 0000.0001) %MON vort_a_sd                    =   8.3776510319900E-05
(PID.TID 0000.0001) %MON vort_p_mean                  =   6.8751169223861E-08
(PID.TID 0000.0001) %MON vort_p_sd                    =   9.1447758410889E-05
(PID.TID 0000.0001) %MON surfExpan_theta_mean         =  -5.2733590979279E-02
(PID.TID 0000.0001) %MON surfExpan_salt_mean          =  -1.5445859051504E-03
(PID.TID 0000.0001) %MON surfExpan_Heat_mean          =   4.1713138904275E+00
(PID.TID 0000.0001) %MON En_Budget_T2PE_mean          =  -8.0812716572425E+00
(PID.TID 0000.0001) // =======================================================
(PID.TID 0000.0001) // End MONITOR dynamic field statistics
(PID.TID 0000.0001) // =======================================================
(PID.TID 0000.0001) // =======================================================
(PID.TID 0000.0001) // Begin MONITOR Land statistics
(PID.TID 0000.0001) // =======================================================
(PID.TID 0000.0001) %MON land_time_sec                =   1.3950000000000E+04
(PID.TID 0000.0001) %MON land_SnwH_ave_G              =   1.5321796496708E-01
(PID.TID 0000.0001) %MON land_SnwH_ave_S              =   5.5903597031689E-01
(PID.TID 0000.0001) %MON land_SnwH_ave_T              =   0.0000000000000E+00
(PID.TID 0000.0001) %MON land_SnwH_ave_N              =   1.2388752766143E-01
(PID.TID 0000.0001) %MON land_SnwH_max_S              =   9.9998305448498E-01
(PID.TID 0000.0001) %MON land_SnwH_max_T              =   0.0000000000000E+00
(PID.TID 0000.0001) %MON land_SnwH_max_N              =   9.9999795761490E-01
(PID.TID 0000.0001) %MON land_TotEnerg_G              =  -6.3588444206121E+21
(PID.TID 0000.0001) %MON land_TotEnerg_S              =  -5.0024573289248E+21
(PID.TID 0000.0001) %MON land_TotEnerg_T              =   7.2739689309181E+21
(PID.TID 0000.0001) %MON land_TotEnerg_N              =  -8.6303560226055E+21
(PID.TID 0000.0001) %MON land_Tsrf_ave_G              =  -8.5827674020936E+00
(PID.TID 0000.0001) %MON land_Tsrf_ave_S              =  -7.3845437367458E+00
(PID.TID 0000.0001) %MON land_Tsrf_ave_T              =   9.8839751969257E+00
(PID.TID 0000.0001) %MON land_Tsrf_ave_N              =  -2.1303011468258E+01
(PID.TID 0000.0001) %MON land_Tsrf_min_S              =  -3.3616973603707E+01
(PID.TID 0000.0001) %MON land_Tsrf_min_T              =  -2.9554609615829E+00
(PID.TID 0000.0001) %MON land_Tsrf_min_N              =  -5.2026887751120E+01
(PID.TID 0000.0001) %MON land_Tsrf_max_S              =   2.0052312941967E+01
(PID.TID 0000.0001) %MON land_Tsrf_max_T              =   1.9983621581969E+01
(PID.TID 0000.0001) %MON land_Tsrf_max_N              =   7.8762279271790E+00
(PID.TID 0000.0001) %MON land_Tgr1_ave_G              =  -7.3873644004462E+00
(PID.TID 0000.0001) %MON land_Tgr1_ave_S              =  -7.2690733312774E+00
(PID.TID 0000.0001) %MON land_Tgr1_ave_T              =   9.8839751969257E+00
(PID.TID 0000.0001) %MON land_Tgr1_ave_N              =  -1.8959029944243E+01
(PID.TID 0000.0001) %MON land_Tgr1_min_S              =  -3.9339501788225E+01
(PID.TID 0000.0001) %MON land_Tgr1_min_T              =  -2.9554609615829E+00
(PID.TID 0000.0001) %MON land_Tgr1_min_N              =  -5.4620240331485E+01
(PID.TID 0000.0001) %MON land_Tgr1_max_S              =   2.0052312941967E+01
(PID.TID 0000.0001) %MON land_Tgr1_max_T              =   1.9983621581969E+01
(PID.TID 0000.0001) %MON land_Tgr1_max_N              =   7.8762279271790E+00
(PID.TID 0000.0001) %MON land_Tgr2_ave_G              =   4.2026799206449E+00
(PID.TID 0000.0001) %MON land_Tgr2_ave_S              =  -1.8725495164188E+01
(PID.TID 0000.0001) %MON land_Tgr2_ave_T              =   2.2008266595728E+01
(PID.TID 0000.0001) %MON land_Tgr2_ave_N              =  -2.4960691368322E-01
(PID.TID 0000.0001) %MON land_Tgr2_min_S              =  -6.4748923530896E+01
(PID.TID 0000.0001) %MON land_Tgr2_min_T              =  -9.7032595335236E+00
(PID.TID 0000.0001) %MON land_Tgr2_min_N              =  -4.0200988394924E+01
(PID.TID 0000.0001) %MON land_Tgr2_max_S              =   2.3359612976376E+01
(PID.TID 0000.0001) %MON land_Tgr2_max_T              =   3.1349145268680E+01
(PID.TID 0000.0001) %MON land_Tgr2_max_N              =   2.9818386968068E+01
(PID.TID 0000.0001) %MON land_grdW_ave_G              =   4.8671342897606E-01
(PID.TID 0000.0001) %MON land_grdW_ave_S              =   3.0847950961193E-01
(PID.TID 0000.0001) %MON land_grdW_ave_T              =   5.6407374728038E-01
(PID.TID 0000.0001) %MON land_grdW_ave_N              =   4.9287248098581E-01
(PID.TID 0000.0001) %MON land_grdW_min_S              =   2.8027087408396E-02
(PID.TID 0000.0001) %MON land_grdW_min_T              =   0.0000000000000E+00
(PID.TID 0000.0001) %MON land_grdW_min_N              =   0.0000000000000E+00
(PID.TID 0000.0001) // =======================================================
(PID.TID 0000.0001) // End MONITOR Land statistics
(PID.TID 0000.0001) // =======================================================
(PID.TID 0000.0001) // =======================================================
(PID.TID 0000.0001) // Begin MONITOR Therm.SeaIce statistics
(PID.TID 0000.0001) // =======================================================
(PID.TID 0000.0001) %MON thSI_time_sec                =   1.3950000000000E+04
(PID.TID 0000.0001) %MON thSI_Ice_Area_G              =   1.7309406925658E+11
(PID.TID 0000.0001) %MON thSI_Ice_Area_S              =   0.0000000000000E+00
(PID.TID 0000.0001) %MON thSI_Ice_Area_N              =   1.7309406925658E+11
(PID.TID 0000.0001) %MON thSI_IceH_ave_G              =   1.3988234734303E-01
(PID.TID 0000.0001) %MON thSI_IceH_ave_S              =   0.0000000000000E+00
(PID.TID 0000.0001) %MON thSI_IceH_ave_N              =   1.3988234734303E-01
(PID.TID 0000.0001) %MON thSI_IceH_max_S              =   0.0000000000000E+00
(PID.TID 0000.0001) %MON thSI_IceH_max_N              =   1.4917668143250E-01
(PID.TID 0000.0001) %MON thSI_SnwH_ave_G              =   0.0000000000000E+00
(PID.TID 0000.0001) %MON thSI_SnwH_ave_S              =   0.0000000000000E+00
(PID.TID 0000.0001) %MON thSI_SnwH_ave_N              =   0.0000000000000E+00
(PID.TID 0000.0001) %MON thSI_SnwH_max_S              =   0.0000000000000E+00
(PID.TID 0000.0001) %MON thSI_SnwH_max_N              =   0.0000000000000E+00
(PID.TID 0000.0001) %MON thSI_TotEnerg_G              =  -7.4880622346725E+18
(PID.TID 0000.0001) %MON thSI_Tsrf_ave_G              =  -9.2263105524181E+00
(PID.TID 0000.0001) %MON thSI_Tsrf_ave_S              =   0.0000000000000E+00
(PID.TID 0000.0001) %MON thSI_Tsrf_ave_N              =  -9.2263105524181E+00
(PID.TID 0000.0001) %MON thSI_Tsrf_min_S              =   0.0000000000000E+00
(PID.TID 0000.0001) %MON thSI_Tsrf_min_N              =  -9.3853766473301E+00
(PID.TID 0000.0001) %MON thSI_Tsrf_max_S              =   0.0000000000000E+00
(PID.TID 0000.0001) %MON thSI_Tsrf_max_N              =  -8.9213340739038E+00
(PID.TID 0000.0001) %MON thSI_Tic1_ave_G              =  -6.9935933677858E+00
(PID.TID 0000.0001) %MON thSI_Tic1_ave_S              =   0.0000000000000E+00
(PID.TID 0000.0001) %MON thSI_Tic1_ave_N              =  -6.9935933677858E+00
(PID.TID 0000.0001) %MON thSI_Tic1_min_S              =   0.0000000000000E+00
(PID.TID 0000.0001) %MON thSI_Tic1_min_N              =  -7.0505400766960E+00
(PID.TID 0000.0001) %MON thSI_Tic1_max_S              =   0.0000000000000E+00
(PID.TID 0000.0001) %MON thSI_Tic1_max_N              =  -6.8855890564393E+00
(PID.TID 0000.0001) %MON thSI_Tic2_ave_G              =  -3.3267296197917E+00
(PID.TID 0000.0001) %MON thSI_Tic2_ave_S              =   0.0000000000000E+00
(PID.TID 0000.0001) %MON thSI_Tic2_ave_N              =  -3.3267296197917E+00
(PID.TID 0000.0001) %MON thSI_Tic2_min_S              =   0.0000000000000E+00
(PID.TID 0000.0001) %MON thSI_Tic2_min_N              =  -3.3710736006171E+00
(PID.TID 0000.0001) %MON thSI_Tic2_max_S              =   0.0000000000000E+00
(PID.TID 0000.0001) %MON thSI_Tic2_max_N              =  -3.2823410542294E+00
(PID.TID 0000.0001) // =======================================================
(PID.TID 0000.0001) // End MONITOR Therm.SeaIce statistics
(PID.TID 0000.0001) // =======================================================
 cg2d: Sum(rhs),rhsMax =   0.00000000000000E+00  1.82839832590120E+04
(PID.TID 0000.0001)                    cg2d_init_res =    1.06748820252110E+04
(PID.TID 0000.0001)                       cg2d_iters =    16
(PID.TID 0000.0001)                         cg2d_res =    6.17889063846223E-11
(PID.TID 0000.0001) // =======================================================
(PID.TID 0000.0001) // Begin MONITOR dynamic field statistics
(PID.TID 0000.0001) // =======================================================
(PID.TID 0000.0001) %MON time_tsnumber                =                    32
(PID.TID 0000.0001) %MON time_secondsf                =   1.4400000000000E+04
(PID.TID 0000.0001) %MON dynstat_eta_max              =   3.0831154693285E+03
(PID.TID 0000.0001) %MON dynstat_eta_min              =  -7.5899834657157E+02
(PID.TID 0000.0001) %MON dynstat_eta_mean             =  -5.7836728011656E-14
(PID.TID 0000.0001) %MON dynstat_eta_sd               =   4.5402994550502E+02
(PID.TID 0000.0001) %MON dynstat_eta_del2             =   3.6145716209431E+01
(PID.TID 0000.0001) %MON dynstat_uvel_max             =   4.6903213433706E+00
(PID.TID 0000.0001) %MON dynstat_uvel_min             =  -4.9499227765922E+00
(PID.TID 0000.0001) %MON dynstat_uvel_mean            =   5.3128439910528E-02
(PID.TID 0000.0001) %MON dynstat_uvel_sd              =   7.8189513932242E-01
(PID.TID 0000.0001) %MON dynstat_uvel_del2            =   2.8448933691386E-02
(PID.TID 0000.0001) %MON dynstat_vvel_max             =   4.8928954026069E+00
(PID.TID 0000.0001) %MON dynstat_vvel_min             =  -5.2279802254674E+00
(PID.TID 0000.0001) %MON dynstat_vvel_mean            =   2.2413618350860E-02
(PID.TID 0000.0001) %MON dynstat_vvel_sd              =   8.0764675414673E-01
(PID.TID 0000.0001) %MON dynstat_vvel_del2            =   2.8293114762320E-02
(PID.TID 0000.0001) %MON dynstat_wvel_max             =   2.0867269679690E-01
(PID.TID 0000.0001) %MON dynstat_wvel_min             =  -9.1388704311479E-02
(PID.TID 0000.0001) %MON dynstat_wvel_mean            =   5.0056141483218E-04
(PID.TID 0000.0001) %MON dynstat_wvel_sd              =   9.9151659446076E-03
(PID.TID 0000.0001) %MON dynstat_wvel_del2            =   2.0734952321508E-03
(PID.TID 0000.0001) %MON dynstat_theta_max            =   4.3806310749351E+02
(PID.TID 0000.0001) %MON dynstat_theta_min            =   2.8214739118909E+02
(PID.TID 0000.0001) %MON dynstat_theta_mean           =   3.3167023398585E+02
(PID.TID 0000.0001) %MON dynstat_theta_sd             =   4.7467574990742E+01
(PID.TID 0000.0001) %MON dynstat_theta_del2           =   3.1982611911585E-02
(PID.TID 0000.0001) %MON dynstat_salt_max             =   4.8124199682891E+00
(PID.TID 0000.0001) %MON dynstat_salt_min             =  -2.6643040587599E-02
(PID.TID 0000.0001) %MON dynstat_salt_mean            =   1.1395832551856E-01
(PID.TID 0000.0001) %MON dynstat_salt_sd              =   4.3981144572452E-01
(PID.TID 0000.0001) %MON dynstat_salt_del2            =   1.3137027592866E-02
(PID.TID 0000.0001) %MON advcfl_uvel_max              =   6.9809610976623E-03
(PID.TID 0000.0001) %MON advcfl_vvel_max              =   7.4742133841506E-03
(PID.TID 0000.0001) %MON advcfl_wvel_max              =   3.4146441294039E-03
(PID.TID 0000.0001) %MON advcfl_W_hf_max              =   1.9242352748280E-02
(PID.TID 0000.0001) %MON pe_b_mean                    =  -1.2175646914710E+00
(PID.TID 0000.0001) %MON ke_max                       =   1.4247793918637E+01
(PID.TID 0000.0001) %MON ke_mean                      =   6.2970482701073E-01
(PID.TID 0000.0001) %MON ke_vol                       =   4.9523908919847E+19
(PID.TID 0000.0001) %MON vort_r_min                   =  -1.9093657732707E-05
(PID.TID 0000.0001) %MON vort_r_max                   =   1.2910081489001E-05
(PID.TID 0000.0001) %MON vort_a_mean                  =   6.7059142261996E-08
(PID.TID 0000.0001) %MON vort_a_sd                    =   8.3778687421299E-05
(PID.TID 0000.0001) %MON vort_p_mean                  =   6.8751170747780E-08
(PID.TID 0000.0001) %MON vort_p_sd                    =   9.1433321814307E-05
(PID.TID 0000.0001) %MON surfExpan_theta_mean         =  -4.9083148811528E-02
(PID.TID 0000.0001) %MON surfExpan_salt_mean          =  -1.6219327560573E-03
(PID.TID 0000.0001) %MON surfExpan_Heat_mean          =   3.8782937969900E+00
(PID.TID 0000.0001) %MON En_Budget_T2PE_mean          =  -7.5244353540666E+00
(PID.TID 0000.0001) // =======================================================
(PID.TID 0000.0001) // End MONITOR dynamic field statistics
(PID.TID 0000.0001) // =======================================================
(PID.TID 0000.0001) // =======================================================
(PID.TID 0000.0001) // Begin MONITOR Land statistics
(PID.TID 0000.0001) // =======================================================
(PID.TID 0000.0001) %MON land_time_sec                =   1.4400000000000E+04
(PID.TID 0000.0001) %MON land_SnwH_ave_G              =   1.5321702391384E-01
(PID.TID 0000.0001) %MON land_SnwH_ave_S              =   5.5903511495349E-01
(PID.TID 0000.0001) %MON land_SnwH_ave_T              =   0.0000000000000E+00
(PID.TID 0000.0001) %MON land_SnwH_ave_N              =   1.2388593040325E-01
(PID.TID 0000.0001) %MON land_SnwH_max_S              =   9.9998249045868E-01
(PID.TID 0000.0001) %MON land_SnwH_max_T              =   0.0000000000000E+00
(PID.TID 0000.0001) %MON land_SnwH_max_N              =   9.9999789374021E-01
(PID.TID 0000.0001) %MON land_TotEnerg_G              =  -6.3598504050974E+21
(PID.TID 0000.0001) %MON land_TotEnerg_S              =  -5.0024703605207E+21
(PID.TID 0000.0001) %MON land_TotEnerg_T              =   7.2735101533860E+21
(PID.TID 0000.0001) %MON land_TotEnerg_N              =  -8.6308901979627E+21
(PID.TID 0000.0001) %MON land_Tsrf_ave_G              =  -8.6055462517349E+00
(PID.TID 0000.0001) %MON land_Tsrf_ave_S              =  -7.3900779058769E+00
(PID.TID 0000.0001) %MON land_Tsrf_ave_T              =   9.8355259420729E+00
(PID.TID 0000.0001) %MON land_Tsrf_ave_N              =  -2.1314242445536E+01
(PID.TID 0000.0001) %MON land_Tsrf_min_S              =  -3.3588669980206E+01
(PID.TID 0000.0001) %MON land_Tsrf_min_T              =  -2.8622898765346E+00
(PID.TID 0000.0001) %MON land_Tsrf_min_N              =  -5.2021886311671E+01
(PID.TID 0000.0001) %MON land_Tsrf_max_S              =   2.0021713111779E+01
(PID.TID 0000.0001) %MON land_Tsrf_max_T              =   1.9917390093929E+01
(PID.TID 0000.0001) %MON land_Tsrf_max_N              =   7.7980051730775E+00
(PID.TID 0000.0001) %MON land_Tgr1_ave_G              =  -7.4132977032249E+00
(PID.TID 0000.0001) %MON land_Tgr1_ave_S              =  -7.2791526980602E+00
(PID.TID 0000.0001) %MON land_Tgr1_ave_T              =   9.8355259420729E+00
(PID.TID 0000.0001) %MON land_Tgr1_ave_N              =  -1.8975070676647E+01
(PID.TID 0000.0001) %MON land_Tgr1_min_S              =  -3.9350212881686E+01
(PID.TID 0000.0001) %MON land_Tgr1_min_T              =  -2.8622898765346E+00
(PID.TID 0000.0001) %MON land_Tgr1_min_N              =  -5.4607873792874E+01
(PID.TID 0000.0001) %MON land_Tgr1_max_S              =   2.0021713111779E+01
(PID.TID 0000.0001) %MON land_Tgr1_max_T              =   1.9917390093929E+01
(PID.TID 0000.0001) %MON land_Tgr1_max_N              =   7.7980051730775E+00
(PID.TID 0000.0001) %MON land_Tgr2_ave_G              =   4.2025021016609E+00
(PID.TID 0000.0001) %MON land_Tgr2_ave_S              =  -1.8725303198141E+01
(PID.TID 0000.0001) %MON land_Tgr2_ave_T              =   2.2008070869466E+01
(PID.TID 0000.0001) %MON land_Tgr2_ave_N              =  -2.4989273072477E-01
(PID.TID 0000.0001) %MON land_Tgr2_min_S              =  -6.4748495511391E+01
(PID.TID 0000.0001) %MON land_Tgr2_min_T              =  -9.7031730996734E+00
(PID.TID 0000.0001) %MON land_Tgr2_min_N              =  -4.0201222287317E+01
(PID.TID 0000.0001) %MON land_Tgr2_max_S              =   2.3359540325279E+01
(PID.TID 0000.0001) %MON land_Tgr2_max_T              =   3.1348699797971E+01
(PID.TID 0000.0001) %MON land_Tgr2_max_N              =   2.9817830132114E+01
(PID.TID 0000.0001) %MON land_grdW_ave_G              =   4.8670618630619E-01
(PID.TID 0000.0001) %MON land_grdW_ave_S              =   3.0847211219875E-01
(PID.TID 0000.0001) %MON land_grdW_ave_T              =   5.6405616461281E-01
(PID.TID 0000.0001) %MON land_grdW_ave_N              =   4.9287219326009E-01
(PID.TID 0000.0001) %MON land_grdW_min_S              =   2.8112665630814E-02
(PID.TID 0000.0001) %MON land_grdW_min_T              =   0.0000000000000E+00
(PID.TID 0000.0001) %MON land_grdW_min_N              =   0.0000000000000E+00
(PID.TID 0000.0001) // =======================================================
(PID.TID 0000.0001) // End MONITOR Land statistics
(PID.TID 0000.0001) // =======================================================
(PID.TID 0000.0001) // =======================================================
(PID.TID 0000.0001) // Begin MONITOR Therm.SeaIce statistics
(PID.TID 0000.0001) // =======================================================
(PID.TID 0000.0001) %MON thSI_time_sec                =   1.4400000000000E+04
(PID.TID 0000.0001) %MON thSI_Ice_Area_G              =   1.7309406925658E+11
(PID.TID 0000.0001) %MON thSI_Ice_Area_S              =   0.0000000000000E+00
(PID.TID 0000.0001) %MON thSI_Ice_Area_N              =   1.7309406925658E+11
(PID.TID 0000.0001) %MON thSI_IceH_ave_G              =   1.4002342620244E-01
(PID.TID 0000.0001) %MON thSI_IceH_ave_S              =   0.0000000000000E+00
(PID.TID 0000.0001) %MON thSI_IceH_ave_N              =   1.4002342620244E-01
(PID.TID 0000.0001) %MON thSI_IceH_max_S              =   0.0000000000000E+00
(PID.TID 0000.0001) %MON thSI_IceH_max_N              =   1.4930652416938E-01
(PID.TID 0000.0001) %MON thSI_SnwH_ave_G              =   0.0000000000000E+00
(PID.TID 0000.0001) %MON thSI_SnwH_ave_S              =   0.0000000000000E+00
(PID.TID 0000.0001) %MON thSI_SnwH_ave_N              =   0.0000000000000E+00
(PID.TID 0000.0001) %MON thSI_SnwH_max_S              =   0.0000000000000E+00
(PID.TID 0000.0001) %MON thSI_SnwH_max_N              =   0.0000000000000E+00
(PID.TID 0000.0001) %MON thSI_TotEnerg_G              =  -7.4978576114288E+18
(PID.TID 0000.0001) %MON thSI_Tsrf_ave_G              =  -9.2695127633365E+00
(PID.TID 0000.0001) %MON thSI_Tsrf_ave_S              =   0.0000000000000E+00
(PID.TID 0000.0001) %MON thSI_Tsrf_ave_N              =  -9.2695127633365E+00
(PID.TID 0000.0001) %MON thSI_Tsrf_min_S              =   0.0000000000000E+00
(PID.TID 0000.0001) %MON thSI_Tsrf_min_N              =  -9.4361889671027E+00
(PID.TID 0000.0001) %MON thSI_Tsrf_max_S              =   0.0000000000000E+00
(PID.TID 0000.0001) %MON thSI_Tsrf_max_N              =  -8.9532295514725E+00
(PID.TID 0000.0001) %MON thSI_Tic1_ave_G              =  -7.0533166783418E+00
(PID.TID 0000.0001) %MON thSI_Tic1_ave_S              =   0.0000000000000E+00
(PID.TID 0000.0001) %MON thSI_Tic1_ave_N              =  -7.0533166783418E+00
(PID.TID 0000.0001) %MON thSI_Tic1_min_S              =   0.0000000000000E+00
(PID.TID 0000.0001) %MON thSI_Tic1_min_N              =  -7.1147313002182E+00
(PID.TID 0000.0001) %MON thSI_Tic1_max_S              =   0.0000000000000E+00
(PID.TID 0000.0001) %MON thSI_Tic1_max_N              =  -6.9306944568363E+00
(PID.TID 0000.0001) %MON thSI_Tic2_ave_G              =  -3.3544990243241E+00
(PID.TID 0000.0001) %MON thSI_Tic2_ave_S              =   0.0000000000000E+00
(PID.TID 0000.0001) %MON thSI_Tic2_ave_N              =  -3.3544990243241E+00
(PID.TID 0000.0001) %MON thSI_Tic2_min_S              =   0.0000000000000E+00
(PID.TID 0000.0001) %MON thSI_Tic2_min_N              =  -3.3942311954884E+00
(PID.TID 0000.0001) %MON thSI_Tic2_max_S              =   0.0000000000000E+00
(PID.TID 0000.0001) %MON thSI_Tic2_max_N              =  -3.3098417055849E+00
(PID.TID 0000.0001) // =======================================================
(PID.TID 0000.0001) // End MONITOR Therm.SeaIce statistics
(PID.TID 0000.0001) // =======================================================
 cg2d: Sum(rhs),rhsMax =  -2.32830643653870E-10  1.79299089913347E+04
(PID.TID 0000.0001)                    cg2d_init_res =    1.04931122187209E+04
(PID.TID 0000.0001)                       cg2d_iters =    16
(PID.TID 0000.0001)                         cg2d_res =    6.03833626112695E-11
(PID.TID 0000.0001) // =======================================================
(PID.TID 0000.0001) // Begin MONITOR dynamic field statistics
(PID.TID 0000.0001) // =======================================================
(PID.TID 0000.0001) %MON time_tsnumber                =                    33
(PID.TID 0000.0001) %MON time_secondsf                =   1.4850000000000E+04
(PID.TID 0000.0001) %MON dynstat_eta_max              =   3.0294410866530E+03
(PID.TID 0000.0001) %MON dynstat_eta_min              =  -7.5987102284629E+02
(PID.TID 0000.0001) %MON dynstat_eta_mean             =  -2.5705212449625E-14
(PID.TID 0000.0001) %MON dynstat_eta_sd               =   4.4663941476565E+02
(PID.TID 0000.0001) %MON dynstat_eta_del2             =   3.6174558978922E+01
(PID.TID 0000.0001) %MON dynstat_uvel_max             =   4.5361581545254E+00
(PID.TID 0000.0001) %MON dynstat_uvel_min             =  -4.8386310409191E+00
(PID.TID 0000.0001) %MON dynstat_uvel_mean            =   6.0138770959690E-02
(PID.TID 0000.0001) %MON dynstat_uvel_sd              =   7.7327710677606E-01
(PID.TID 0000.0001) %MON dynstat_uvel_del2            =   2.9148365987110E-02
(PID.TID 0000.0001) %MON dynstat_vvel_max             =   4.7423930140847E+00
(PID.TID 0000.0001) %MON dynstat_vvel_min             =  -5.0139215643512E+00
(PID.TID 0000.0001) %MON dynstat_vvel_mean            =   2.2231249892047E-02
(PID.TID 0000.0001) %MON dynstat_vvel_sd              =   8.0120361679180E-01
(PID.TID 0000.0001) %MON dynstat_vvel_del2            =   2.8937409886986E-02
(PID.TID 0000.0001) %MON dynstat_wvel_max             =   1.9746128272051E-01
(PID.TID 0000.0001) %MON dynstat_wvel_min             =  -9.3221409757562E-02
(PID.TID 0000.0001) %MON dynstat_wvel_mean            =   4.6021175179995E-04
(PID.TID 0000.0001) %MON dynstat_wvel_sd              =   9.7190437275348E-03
(PID.TID 0000.0001) %MON dynstat_wvel_del2            =   2.0965305552591E-03
(PID.TID 0000.0001) %MON dynstat_theta_max            =   4.3805768354556E+02
(PID.TID 0000.0001) %MON dynstat_theta_min            =   2.8193464201761E+02
(PID.TID 0000.0001) %MON dynstat_theta_mean           =   3.3166795749822E+02
(PID.TID 0000.0001) %MON dynstat_theta_sd             =   4.7469670081404E+01
(PID.TID 0000.0001) %MON dynstat_theta_del2           =   3.2924283661846E-02
(PID.TID 0000.0001) %MON dynstat_salt_max             =   4.8455383421849E+00
(PID.TID 0000.0001) %MON dynstat_salt_min             =  -2.9006754803375E-02
(PID.TID 0000.0001) %MON dynstat_salt_mean            =   1.1725359567657E-01
(PID.TID 0000.0001) %MON dynstat_salt_sd              =   4.5102572502033E-01
(PID.TID 0000.0001) %MON dynstat_salt_del2            =   1.3450440704113E-02
(PID.TID 0000.0001) %MON advcfl_uvel_max              =   6.8240044516113E-03
(PID.TID 0000.0001) %MON advcfl_vvel_max              =   7.2546108456976E-03
(PID.TID 0000.0001) %MON advcfl_wvel_max              =   3.2311846263357E-03
(PID.TID 0000.0001) %MON advcfl_W_hf_max              =   1.9199926683590E-02
(PID.TID 0000.0001) %MON pe_b_mean                    =  -1.2121316086758E+00
(PID.TID 0000.0001) %MON ke_max                       =   1.3299011962806E+01
(PID.TID 0000.0001) %MON ke_mean                      =   6.1827800079621E-01
(PID.TID 0000.0001) %MON ke_vol                       =   4.9523908919847E+19
(PID.TID 0000.0001) %MON vort_r_min                   =  -1.8526319947583E-05
(PID.TID 0000.0001) %MON vort_r_max                   =   1.3523699184007E-05
(PID.TID 0000.0001) %MON vort_a_mean                  =   6.7059142262075E-08
(PID.TID 0000.0001) %MON vort_a_sd                    =   8.3780791527168E-05
(PID.TID 0000.0001) %MON vort_p_mean                  =   6.8751172132390E-08
(PID.TID 0000.0001) %MON vort_p_sd                    =   9.1420091302860E-05
(PID.TID 0000.0001) %MON surfExpan_theta_mean         =  -4.4931013029698E-02
(PID.TID 0000.0001) %MON surfExpan_salt_mean          =  -1.6896858413618E-03
(PID.TID 0000.0001) %MON surfExpan_Heat_mean          =   3.5414940953917E+00
(PID.TID 0000.0001) %MON En_Budget_T2PE_mean          =  -6.8862723471934E+00
(PID.TID 0000.0001) // =======================================================
(PID.TID 0000.0001) // End MONITOR dynamic field statistics
(PID.TID 0000.0001) // =======================================================
(PID.TID 0000.0001) // =======================================================
(PID.TID 0000.0001) // Begin MONITOR Land statistics
(PID.TID 0000.0001) // =======================================================
(PID.TID 0000.0001) %MON land_time_sec                =   1.4850000000000E+04
(PID.TID 0000.0001) %MON land_SnwH_ave_G              =   1.5321608547007E-01
(PID.TID 0000.0001) %MON land_SnwH_ave_S              =   5.5903426483953E-01
(PID.TID 0000.0001) %MON land_SnwH_ave_T              =   0.0000000000000E+00
(PID.TID 0000.0001) %MON land_SnwH_ave_N              =   1.2388433664069E-01
(PID.TID 0000.0001) %MON land_SnwH_max_S              =   9.9998192494944E-01
(PID.TID 0000.0001) %MON land_SnwH_max_T              =   0.0000000000000E+00
(PID.TID 0000.0001) %MON land_SnwH_max_N              =   9.9999782981598E-01
(PID.TID 0000.0001) %MON land_TotEnerg_G              =  -6.3608124396281E+21
(PID.TID 0000.0001) %MON land_TotEnerg_S              =  -5.0024787028777E+21
(PID.TID 0000.0001) %MON land_TotEnerg_T              =   7.2730820677939E+21
(PID.TID 0000.0001) %MON land_TotEnerg_N              =  -8.6314158045443E+21
(PID.TID 0000.0001) %MON land_Tsrf_ave_G              =  -8.6265212354866E+00
(PID.TID 0000.0001) %MON land_Tsrf_ave_S              =  -7.3934713833077E+00
(PID.TID 0000.0001) %MON land_Tsrf_ave_T              =   9.7904998741685E+00
(PID.TID 0000.0001) %MON land_Tsrf_ave_N              =  -2.1324860156146E+01
(PID.TID 0000.0001) %MON land_Tsrf_min_S              =  -3.3559305896067E+01
(PID.TID 0000.0001) %MON land_Tsrf_min_T              =  -2.7724248956490E+00
(PID.TID 0000.0001) %MON land_Tsrf_min_N              =  -5.2016198491562E+01
(PID.TID 0000.0001) %MON land_Tsrf_max_S              =   1.9996629006316E+01
(PID.TID 0000.0001) %MON land_Tsrf_max_T              =   1.9859261453276E+01
(PID.TID 0000.0001) %MON land_Tsrf_max_N              =   7.7253639790738E+00
(PID.TID 0000.0001) %MON land_Tgr1_ave_G              =  -7.4374653740999E+00
(PID.TID 0000.0001) %MON land_Tgr1_ave_S              =  -7.2878645661837E+00
(PID.TID 0000.0001) %MON land_Tgr1_ave_T              =   9.7904998741685E+00
(PID.TID 0000.0001) %MON land_Tgr1_ave_N              =  -1.8990323491660E+01
(PID.TID 0000.0001) %MON land_Tgr1_min_S              =  -3.9360877685369E+01
(PID.TID 0000.0001) %MON land_Tgr1_min_T              =  -2.7724248956490E+00
(PID.TID 0000.0001) %MON land_Tgr1_min_N              =  -5.4595522143817E+01
(PID.TID 0000.0001) %MON land_Tgr1_max_S              =   1.9996629006316E+01
(PID.TID 0000.0001) %MON land_Tgr1_max_T              =   1.9859261453276E+01
(PID.TID 0000.0001) %MON land_Tgr1_max_N              =   7.7253639790738E+00
(PID.TID 0000.0001) %MON land_Tgr2_ave_G              =   4.2023239594760E+00
(PID.TID 0000.0001) %MON land_Tgr2_ave_S              =  -1.8725111372415E+01
(PID.TID 0000.0001) %MON land_Tgr2_ave_T              =   2.2007874552853E+01
(PID.TID 0000.0001) %MON land_Tgr2_ave_N              =  -2.5017875189676E-01
(PID.TID 0000.0001) %MON land_Tgr2_min_S              =  -6.4748067694642E+01
(PID.TID 0000.0001) %MON land_Tgr2_min_T              =  -9.7030855317668E+00
(PID.TID 0000.0001) %MON land_Tgr2_min_N              =  -4.0201455950162E+01
(PID.TID 0000.0001) %MON land_Tgr2_max_S              =   2.3359466884352E+01
(PID.TID 0000.0001) %MON land_Tgr2_max_T              =   3.1348252683565E+01
(PID.TID 0000.0001) %MON land_Tgr2_max_N              =   2.9817269632932E+01
(PID.TID 0000.0001) %MON land_grdW_ave_G              =   4.8669899487507E-01
(PID.TID 0000.0001) %MON land_grdW_ave_S              =   3.0846474629117E-01
(PID.TID 0000.0001) %MON land_grdW_ave_T              =   5.6403871944319E-01
(PID.TID 0000.0001) %MON land_grdW_ave_N              =   4.9287190557309E-01
(PID.TID 0000.0001) %MON land_grdW_min_S              =   2.8197845553300E-02
(PID.TID 0000.0001) %MON land_grdW_min_T              =   0.0000000000000E+00
(PID.TID 0000.0001) %MON land_grdW_min_N              =   0.0000000000000E+00
(PID.TID 0000.0001) // =======================================================
(PID.TID 0000.0001) // End MONITOR Land statistics
(PID.TID 0000.0001) // =======================================================
(PID.TID 0000.0001) // =======================================================
(PID.TID 0000.0001) // Begin MONITOR Therm.SeaIce statistics
(PID.TID 0000.0001) // =======================================================
(PID.TID 0000.0001) %MON thSI_time_sec                =   1.4850000000000E+04
(PID.TID 0000.0001) %MON thSI_Ice_Area_G              =   1.7542134468177E+11
(PID.TID 0000.0001) %MON thSI_Ice_Area_S              =   0.0000000000000E+00
(PID.TID 0000.0001) %MON thSI_Ice_Area_N              =   1.7542134468177E+11
(PID.TID 0000.0001) %MON thSI_IceH_ave_G              =   1.3963283141513E-01
(PID.TID 0000.0001) %MON thSI_IceH_ave_S              =   0.0000000000000E+00
(PID.TID 0000.0001) %MON thSI_IceH_ave_N              =   1.3963283141513E-01
(PID.TID 0000.0001) %MON thSI_IceH_max_S              =   0.0000000000000E+00
(PID.TID 0000.0001) %MON thSI_IceH_max_N              =   1.4943761690083E-01
(PID.TID 0000.0001) %MON thSI_SnwH_ave_G              =   0.0000000000000E+00
(PID.TID 0000.0001) %MON thSI_SnwH_ave_S              =   0.0000000000000E+00
(PID.TID 0000.0001) %MON thSI_SnwH_ave_N              =   0.0000000000000E+00
(PID.TID 0000.0001) %MON thSI_SnwH_max_S              =   0.0000000000000E+00
(PID.TID 0000.0001) %MON thSI_SnwH_max_N              =   0.0000000000000E+00
(PID.TID 0000.0001) %MON thSI_TotEnerg_G              =  -7.5771205220235E+18
(PID.TID 0000.0001) %MON thSI_Tsrf_ave_G              =  -9.2073159661740E+00
(PID.TID 0000.0001) %MON thSI_Tsrf_ave_S              =   0.0000000000000E+00
(PID.TID 0000.0001) %MON thSI_Tsrf_ave_N              =  -9.2073159661740E+00
(PID.TID 0000.0001) %MON thSI_Tsrf_min_S              =   0.0000000000000E+00
(PID.TID 0000.0001) %MON thSI_Tsrf_min_N              =  -9.4826465495488E+00
(PID.TID 0000.0001) %MON thSI_Tsrf_max_S              =   0.0000000000000E+00
(PID.TID 0000.0001) %MON thSI_Tsrf_max_N              =  -1.6817785059359E+00
(PID.TID 0000.0001) %MON thSI_Tic1_ave_G              =  -7.0564693267164E+00
(PID.TID 0000.0001) %MON thSI_Tic1_ave_S              =   0.0000000000000E+00
(PID.TID 0000.0001) %MON thSI_Tic1_ave_N              =  -7.0564693267164E+00
(PID.TID 0000.0001) %MON thSI_Tic1_min_S              =   0.0000000000000E+00
(PID.TID 0000.0001) %MON thSI_Tic1_min_N              =  -7.1738600134193E+00
(PID.TID 0000.0001) %MON thSI_Tic1_max_S              =   0.0000000000000E+00
(PID.TID 0000.0001) %MON thSI_Tic1_max_N              =  -1.6817785059359E+00
(PID.TID 0000.0001) %MON thSI_Tic2_ave_G              =  -3.3638857876808E+00
(PID.TID 0000.0001) %MON thSI_Tic2_ave_S              =   0.0000000000000E+00
(PID.TID 0000.0001) %MON thSI_Tic2_ave_N              =  -3.3638857876808E+00
(PID.TID 0000.0001) %MON thSI_Tic2_min_S              =   0.0000000000000E+00
(PID.TID 0000.0001) %MON thSI_Tic2_min_N              =  -3.4165183609095E+00
(PID.TID 0000.0001) %MON thSI_Tic2_max_S              =   0.0000000000000E+00
(PID.TID 0000.0001) %MON thSI_Tic2_max_N              =  -1.6817785059359E+00
(PID.TID 0000.0001) // =======================================================
(PID.TID 0000.0001) // End MONITOR Therm.SeaIce statistics
(PID.TID 0000.0001) // =======================================================
 cg2d: Sum(rhs),rhsMax =  -4.65661287307739E-10  1.76469946045841E+04
(PID.TID 0000.0001)                    cg2d_init_res =    1.03083037179725E+04
(PID.TID 0000.0001)                       cg2d_iters =    16
(PID.TID 0000.0001)                         cg2d_res =    5.85949571618776E-11
(PID.TID 0000.0001) // =======================================================
(PID.TID 0000.0001) // Begin MONITOR dynamic field statistics
(PID.TID 0000.0001) // =======================================================
(PID.TID 0000.0001) %MON time_tsnumber                =                    34
(PID.TID 0000.0001) %MON time_secondsf                =   1.5300000000000E+04
(PID.TID 0000.0001) %MON dynstat_eta_max              =   2.9784121771237E+03
(PID.TID 0000.0001) %MON dynstat_eta_min              =  -7.6139946136772E+02
(PID.TID 0000.0001) %MON dynstat_eta_mean             =  -1.0924715291091E-13
(PID.TID 0000.0001) %MON dynstat_eta_sd               =   4.4033835245813E+02
(PID.TID 0000.0001) %MON dynstat_eta_del2             =   3.6219727739397E+01
(PID.TID 0000.0001) %MON dynstat_uvel_max             =   4.3968483850850E+00
(PID.TID 0000.0001) %MON dynstat_uvel_min             =  -4.6537898899665E+00
(PID.TID 0000.0001) %MON dynstat_uvel_mean            =   6.7060248532791E-02
(PID.TID 0000.0001) %MON dynstat_uvel_sd              =   7.6469432170701E-01
(PID.TID 0000.0001) %MON dynstat_uvel_del2            =   2.9879265800275E-02
(PID.TID 0000.0001) %MON dynstat_vvel_max             =   4.5757446519658E+00
(PID.TID 0000.0001) %MON dynstat_vvel_min             =  -4.8033303351641E+00
(PID.TID 0000.0001) %MON dynstat_vvel_mean            =   2.2374818262974E-02
(PID.TID 0000.0001) %MON dynstat_vvel_sd              =   7.9368086018103E-01
(PID.TID 0000.0001) %MON dynstat_vvel_del2            =   2.9581688697241E-02
(PID.TID 0000.0001) %MON dynstat_wvel_max             =   1.8239286483474E-01
(PID.TID 0000.0001) %MON dynstat_wvel_min             =  -9.3839747305543E-02
(PID.TID 0000.0001) %MON dynstat_wvel_mean            =   4.1641806516956E-04
(PID.TID 0000.0001) %MON dynstat_wvel_sd              =   9.5290804806830E-03
(PID.TID 0000.0001) %MON dynstat_wvel_del2            =   2.1173173601515E-03
(PID.TID 0000.0001) %MON dynstat_theta_max            =   4.3807171067555E+02
(PID.TID 0000.0001) %MON dynstat_theta_min            =   2.8172224009044E+02
(PID.TID 0000.0001) %MON dynstat_theta_mean           =   3.3166566065151E+02
(PID.TID 0000.0001) %MON dynstat_theta_sd             =   4.7471773624179E+01
(PID.TID 0000.0001) %MON dynstat_theta_del2           =   3.3864134348738E-02
(PID.TID 0000.0001) %MON dynstat_salt_max             =   4.8771530051473E+00
(PID.TID 0000.0001) %MON dynstat_salt_min             =  -3.1425456503737E-02
(PID.TID 0000.0001) %MON dynstat_salt_mean            =   1.2053910077760E-01
(PID.TID 0000.0001) %MON dynstat_salt_sd              =   4.6214821455103E-01
(PID.TID 0000.0001) %MON dynstat_salt_del2            =   1.3762409627181E-02
(PID.TID 0000.0001) %MON advcfl_uvel_max              =   6.5633198021155E-03
(PID.TID 0000.0001) %MON advcfl_vvel_max              =   7.5588854532045E-03
(PID.TID 0000.0001) %MON advcfl_wvel_max              =   2.9846105154776E-03
(PID.TID 0000.0001) %MON advcfl_W_hf_max              =   1.9038656234218E-02
(PID.TID 0000.0001) %MON pe_b_mean                    =  -1.2057725023143E+00
(PID.TID 0000.0001) %MON ke_max                       =   1.2303851040702E+01
(PID.TID 0000.0001) %MON ke_mean                      =   6.0619137699096E-01
(PID.TID 0000.0001) %MON ke_vol                       =   4.9523908919847E+19
(PID.TID 0000.0001) %MON vort_r_min                   =  -1.7937516197410E-05
(PID.TID 0000.0001) %MON vort_r_max                   =   1.4160973680825E-05
(PID.TID 0000.0001) %MON vort_a_mean                  =   6.7059142262006E-08
(PID.TID 0000.0001) %MON vort_a_sd                    =   8.3782816561430E-05
(PID.TID 0000.0001) %MON vort_p_mean                  =   6.8751173308604E-08
(PID.TID 0000.0001) %MON vort_p_sd                    =   9.1408065097023E-05
(PID.TID 0000.0001) %MON surfExpan_theta_mean         =  -4.0488897101201E-02
(PID.TID 0000.0001) %MON surfExpan_salt_mean          =  -1.7465151575386E-03
(PID.TID 0000.0001) %MON surfExpan_Heat_mean          =   3.1789146320888E+00
(PID.TID 0000.0001) %MON En_Budget_T2PE_mean          =  -6.2002191004832E+00
(PID.TID 0000.0001) // =======================================================
(PID.TID 0000.0001) // End MONITOR dynamic field statistics
(PID.TID 0000.0001) // =======================================================
(PID.TID 0000.0001) // =======================================================
(PID.TID 0000.0001) // Begin MONITOR Land statistics
(PID.TID 0000.0001) // =======================================================
(PID.TID 0000.0001) %MON land_time_sec                =   1.5300000000000E+04
(PID.TID 0000.0001) %MON land_SnwH_ave_G              =   1.5321514984381E-01
(PID.TID 0000.0001) %MON land_SnwH_ave_S              =   5.5903341962628E-01
(PID.TID 0000.0001) %MON land_SnwH_ave_T              =   0.0000000000000E+00
(PID.TID 0000.0001) %MON land_SnwH_ave_N              =   1.2388274690129E-01
(PID.TID 0000.0001) %MON land_SnwH_max_S              =   9.9998135788622E-01
(PID.TID 0000.0001) %MON land_SnwH_max_T              =   0.0000000000000E+00
(PID.TID 0000.0001) %MON land_SnwH_max_N              =   9.9999776583629E-01
(PID.TID 0000.0001) %MON land_TotEnerg_G              =  -6.3617341720293E+21
(PID.TID 0000.0001) %MON land_TotEnerg_S              =  -5.0024828881788E+21
(PID.TID 0000.0001) %MON land_TotEnerg_T              =   7.2726818650316E+21
(PID.TID 0000.0001) %MON land_TotEnerg_N              =  -8.6319331488821E+21
(PID.TID 0000.0001) %MON land_Tsrf_ave_G              =  -8.6456507776648E+00
(PID.TID 0000.0001) %MON land_Tsrf_ave_S              =  -7.3942128036684E+00
(PID.TID 0000.0001) %MON land_Tsrf_ave_T              =   9.7489070369031E+00
(PID.TID 0000.0001) %MON land_Tsrf_ave_N              =  -2.1334954365176E+01
(PID.TID 0000.0001) %MON land_Tsrf_min_S              =  -3.3529084361296E+01
(PID.TID 0000.0001) %MON land_Tsrf_min_T              =  -2.7128400584608E+00
(PID.TID 0000.0001) %MON land_Tsrf_min_N              =  -5.2009719853830E+01
(PID.TID 0000.0001) %MON land_Tsrf_max_S              =   1.9976479625783E+01
(PID.TID 0000.0001) %MON land_Tsrf_max_T              =   1.9808450829673E+01
(PID.TID 0000.0001) %MON land_Tsrf_max_N              =   7.6580854666352E+00
(PID.TID 0000.0001) %MON land_Tgr1_ave_G              =  -7.4599619646323E+00
(PID.TID 0000.0001) %MON land_Tgr1_ave_S              =  -7.2953649160746E+00
(PID.TID 0000.0001) %MON land_Tgr1_ave_T              =   9.7489070369031E+00
(PID.TID 0000.0001) %MON land_Tgr1_ave_N              =  -1.9004932859326E+01
(PID.TID 0000.0001) %MON land_Tgr1_min_S              =  -3.9371495104645E+01
(PID.TID 0000.0001) %MON land_Tgr1_min_T              =  -2.7128400584608E+00
(PID.TID 0000.0001) %MON land_Tgr1_min_N              =  -5.4583184589762E+01
(PID.TID 0000.0001) %MON land_Tgr1_max_S              =   1.9976479625783E+01
(PID.TID 0000.0001) %MON land_Tgr1_max_T              =   1.9808450829673E+01
(PID.TID 0000.0001) %MON land_Tgr1_max_N              =   7.6580854666352E+00
(PID.TID 0000.0001) %MON land_Tgr2_ave_G              =   4.2021455455763E+00
(PID.TID 0000.0001) %MON land_Tgr2_ave_S              =  -1.8724919668066E+01
(PID.TID 0000.0001) %MON land_Tgr2_ave_T              =   2.2007677701190E+01
(PID.TID 0000.0001) %MON land_Tgr2_ave_N              =  -2.5046491770525E-01
(PID.TID 0000.0001) %MON land_Tgr2_min_S              =  -6.4747640079831E+01
(PID.TID 0000.0001) %MON land_Tgr2_min_T              =  -9.7029968710724E+00
(PID.TID 0000.0001) %MON land_Tgr2_min_N              =  -4.0201689384241E+01
(PID.TID 0000.0001) %MON land_Tgr2_max_S              =   2.3359392746096E+01
(PID.TID 0000.0001) %MON land_Tgr2_max_T              =   3.1347804037386E+01
(PID.TID 0000.0001) %MON land_Tgr2_max_N              =   2.9816705613089E+01
(PID.TID 0000.0001) %MON land_grdW_ave_G              =   4.8669184965293E-01
(PID.TID 0000.0001) %MON land_grdW_ave_S              =   3.0845740881374E-01
(PID.TID 0000.0001) %MON land_grdW_ave_T              =   5.6402139873523E-01
(PID.TID 0000.0001) %MON land_grdW_ave_N              =   4.9287161760757E-01
(PID.TID 0000.0001) %MON land_grdW_min_S              =   2.8282581207705E-02
(PID.TID 0000.0001) %MON land_grdW_min_T              =   0.0000000000000E+00
(PID.TID 0000.0001) %MON land_grdW_min_N              =   0.0000000000000E+00
(PID.TID 0000.0001) // =======================================================
(PID.TID 0000.0001) // End MONITOR Land statistics
(PID.TID 0000.0001) // =======================================================
(PID.TID 0000.0001) // =======================================================
(PID.TID 0000.0001) // Begin MONITOR Therm.SeaIce statistics
(PID.TID 0000.0001) // =======================================================
(PID.TID 0000.0001) %MON thSI_time_sec                =   1.5300000000000E+04
(PID.TID 0000.0001) %MON thSI_Ice_Area_G              =   1.7769173176555E+11
(PID.TID 0000.0001) %MON thSI_Ice_Area_S              =   0.0000000000000E+00
(PID.TID 0000.0001) %MON thSI_Ice_Area_N              =   1.7769173176555E+11
(PID.TID 0000.0001) %MON thSI_IceH_ave_G              =   1.3929534158210E-01
(PID.TID 0000.0001) %MON thSI_IceH_ave_S              =   0.0000000000000E+00
(PID.TID 0000.0001) %MON thSI_IceH_ave_N              =   1.3929534158210E-01
(PID.TID 0000.0001) %MON thSI_IceH_max_S              =   0.0000000000000E+00
(PID.TID 0000.0001) %MON thSI_IceH_max_N              =   1.4957079440536E-01
(PID.TID 0000.0001) %MON thSI_SnwH_ave_G              =   0.0000000000000E+00
(PID.TID 0000.0001) %MON thSI_SnwH_ave_S              =   0.0000000000000E+00
(PID.TID 0000.0001) %MON thSI_SnwH_ave_N              =   0.0000000000000E+00
(PID.TID 0000.0001) %MON thSI_SnwH_max_S              =   0.0000000000000E+00
(PID.TID 0000.0001) %MON thSI_SnwH_max_N              =   0.0000000000000E+00
(PID.TID 0000.0001) %MON thSI_TotEnerg_G              =  -7.6564720830777E+18
(PID.TID 0000.0001) %MON thSI_Tsrf_ave_G              =  -9.2008878565784E+00
(PID.TID 0000.0001) %MON thSI_Tsrf_ave_S              =   0.0000000000000E+00
(PID.TID 0000.0001) %MON thSI_Tsrf_ave_N              =  -9.2008878565784E+00
(PID.TID 0000.0001) %MON thSI_Tsrf_min_S              =   0.0000000000000E+00
(PID.TID 0000.0001) %MON thSI_Tsrf_min_N              =  -9.5249710247417E+00
(PID.TID 0000.0001) %MON thSI_Tsrf_max_S              =   0.0000000000000E+00
(PID.TID 0000.0001) %MON thSI_Tsrf_max_N              =  -3.8539210272348E+00
(PID.TID 0000.0001) %MON thSI_Tic1_ave_G              =  -7.0588100769094E+00
(PID.TID 0000.0001) %MON thSI_Tic1_ave_S              =   0.0000000000000E+00
(PID.TID 0000.0001) %MON thSI_Tic1_ave_N              =  -7.0588100769094E+00
(PID.TID 0000.0001) %MON thSI_Tic1_min_S              =   0.0000000000000E+00
(PID.TID 0000.0001) %MON thSI_Tic1_min_N              =  -7.2280642711772E+00
(PID.TID 0000.0001) %MON thSI_Tic1_max_S              =   0.0000000000000E+00
(PID.TID 0000.0001) %MON thSI_Tic1_max_N              =  -1.8780885541525E+00
(PID.TID 0000.0001) %MON thSI_Tic2_ave_G              =  -3.3715592245745E+00
(PID.TID 0000.0001) %MON thSI_Tic2_ave_S              =   0.0000000000000E+00
(PID.TID 0000.0001) %MON thSI_Tic2_ave_N              =  -3.3715592245745E+00
(PID.TID 0000.0001) %MON thSI_Tic2_min_S              =   0.0000000000000E+00
(PID.TID 0000.0001) %MON thSI_Tic2_min_N              =  -3.4407983541623E+00
(PID.TID 0000.0001) %MON thSI_Tic2_max_S              =   0.0000000000000E+00
(PID.TID 0000.0001) %MON thSI_Tic2_max_N              =  -1.7057562073727E+00
(PID.TID 0000.0001) // =======================================================
(PID.TID 0000.0001) // End MONITOR Therm.SeaIce statistics
(PID.TID 0000.0001) // =======================================================
 cg2d: Sum(rhs),rhsMax =   4.65661287307739E-10  1.74243769796171E+04
(PID.TID 0000.0001)                    cg2d_init_res =    1.01273914424576E+04
(PID.TID 0000.0001)                       cg2d_iters =    16
(PID.TID 0000.0001)                         cg2d_res =    5.66841159415424E-11
(PID.TID 0000.0001) // =======================================================
(PID.TID 0000.0001) // Begin MONITOR dynamic field statistics
(PID.TID 0000.0001) // =======================================================
(PID.TID 0000.0001) %MON time_tsnumber                =                    35
(PID.TID 0000.0001) %MON time_secondsf                =   1.5750000000000E+04
(PID.TID 0000.0001) %MON dynstat_eta_max              =   2.9767166979464E+03
(PID.TID 0000.0001) %MON dynstat_eta_min              =  -7.6354386278781E+02
(PID.TID 0000.0001) %MON dynstat_eta_mean             =  -1.2852606224812E-14
(PID.TID 0000.0001) %MON dynstat_eta_sd               =   4.3514910801593E+02
(PID.TID 0000.0001) %MON dynstat_eta_del2             =   3.6266953768348E+01
(PID.TID 0000.0001) %MON dynstat_uvel_max             =   4.2732223723938E+00
(PID.TID 0000.0001) %MON dynstat_uvel_min             =  -4.4134369808970E+00
(PID.TID 0000.0001) %MON dynstat_uvel_mean            =   7.3786653152259E-02
(PID.TID 0000.0001) %MON dynstat_uvel_sd              =   7.5616548473268E-01
(PID.TID 0000.0001) %MON dynstat_uvel_del2            =   3.0644834892566E-02
(PID.TID 0000.0001) %MON dynstat_vvel_max             =   4.4210560553230E+00
(PID.TID 0000.0001) %MON dynstat_vvel_min             =  -4.6022535423891E+00
(PID.TID 0000.0001) %MON dynstat_vvel_mean            =   2.2893980376381E-02
(PID.TID 0000.0001) %MON dynstat_vvel_sd              =   7.8536636572398E-01
(PID.TID 0000.0001) %MON dynstat_vvel_del2            =   3.0258266472530E-02
(PID.TID 0000.0001) %MON dynstat_wvel_max             =   1.6424573934314E-01
(PID.TID 0000.0001) %MON dynstat_wvel_min             =  -9.3077678860344E-02
(PID.TID 0000.0001) %MON dynstat_wvel_mean            =   3.7102159070698E-04
(PID.TID 0000.0001) %MON dynstat_wvel_sd              =   9.3581181751098E-03
(PID.TID 0000.0001) %MON dynstat_wvel_del2            =   2.1374631270110E-03
(PID.TID 0000.0001) %MON dynstat_theta_max            =   4.3807752826108E+02
(PID.TID 0000.0001) %MON dynstat_theta_min            =   2.8151002299788E+02
(PID.TID 0000.0001) %MON dynstat_theta_mean           =   3.3166334517587E+02
(PID.TID 0000.0001) %MON dynstat_theta_sd             =   4.7473886040288E+01
(PID.TID 0000.0001) %MON dynstat_theta_del2           =   3.4795590985417E-02
(PID.TID 0000.0001) %MON dynstat_salt_max             =   4.9075221266386E+00
(PID.TID 0000.0001) %MON dynstat_salt_min             =  -3.3896562425191E-02
(PID.TID 0000.0001) %MON dynstat_salt_mean            =   1.2381497217938E-01
(PID.TID 0000.0001) %MON dynstat_salt_sd              =   4.7318063349357E-01
(PID.TID 0000.0001) %MON dynstat_salt_del2            =   1.4071186595803E-02
(PID.TID 0000.0001) %MON advcfl_uvel_max              =   6.2243459668349E-03
(PID.TID 0000.0001) %MON advcfl_vvel_max              =   7.7268991174642E-03
(PID.TID 0000.0001) %MON advcfl_wvel_max              =   2.6876575528877E-03
(PID.TID 0000.0001) %MON advcfl_W_hf_max              =   1.8904190135321E-02
(PID.TID 0000.0001) %MON pe_b_mean                    =  -1.1987451470834E+00
(PID.TID 0000.0001) %MON ke_max                       =   1.1320265705417E+01
(PID.TID 0000.0001) %MON ke_mean                      =   5.9369880061134E-01
(PID.TID 0000.0001) %MON ke_vol                       =   4.9523908919847E+19
(PID.TID 0000.0001) %MON vort_r_min                   =  -1.7346705098265E-05
(PID.TID 0000.0001) %MON vort_r_max                   =   1.4817951395235E-05
(PID.TID 0000.0001) %MON vort_a_mean                  =   6.7059142261989E-08
(PID.TID 0000.0001) %MON vort_a_sd                    =   8.3784756118447E-05
(PID.TID 0000.0001) %MON vort_p_mean                  =   6.8751174211483E-08
(PID.TID 0000.0001) %MON vort_p_sd                    =   9.1397215672739E-05
(PID.TID 0000.0001) %MON surfExpan_theta_mean         =  -3.5936445575654E-02
(PID.TID 0000.0001) %MON surfExpan_salt_mean          =  -1.7912452258577E-03
(PID.TID 0000.0001) %MON surfExpan_Heat_mean          =   2.8059884882402E+00
(PID.TID 0000.0001) %MON En_Budget_T2PE_mean          =  -5.4948053938506E+00
(PID.TID 0000.0001) // =======================================================
(PID.TID 0000.0001) // End MONITOR dynamic field statistics
(PID.TID 0000.0001) // =======================================================
(PID.TID 0000.0001) // =======================================================
(PID.TID 0000.0001) // Begin MONITOR Land statistics
(PID.TID 0000.0001) // =======================================================
(PID.TID 0000.0001) %MON land_time_sec                =   1.5750000000000E+04
(PID.TID 0000.0001) %MON land_SnwH_ave_G              =   1.5321421632406E-01
(PID.TID 0000.0001) %MON land_SnwH_ave_S              =   5.5903257871145E-01
(PID.TID 0000.0001) %MON land_SnwH_ave_T              =   0.0000000000000E+00
(PID.TID 0000.0001) %MON land_SnwH_ave_N              =   1.2388115996404E-01
(PID.TID 0000.0001) %MON land_SnwH_max_S              =   9.9998078920704E-01
(PID.TID 0000.0001) %MON land_SnwH_max_T              =   0.0000000000000E+00
(PID.TID 0000.0001) %MON land_SnwH_max_N              =   9.9999770179445E-01
(PID.TID 0000.0001) %MON land_TotEnerg_G              =  -6.3626187360026E+21
(PID.TID 0000.0001) %MON land_TotEnerg_S              =  -5.0024833708463E+21
(PID.TID 0000.0001) %MON land_TotEnerg_T              =   7.2723070540889E+21
(PID.TID 0000.0001) %MON land_TotEnerg_N              =  -8.6324424192452E+21
(PID.TID 0000.0001) %MON land_Tsrf_ave_G              =  -8.6630185426330E+00
(PID.TID 0000.0001) %MON land_Tsrf_ave_S              =  -7.3917977173315E+00
(PID.TID 0000.0001) %MON land_Tsrf_ave_T              =   9.7104543790157E+00
(PID.TID 0000.0001) %MON land_Tsrf_ave_N              =  -2.1344659695173E+01
(PID.TID 0000.0001) %MON land_Tsrf_min_S              =  -3.3498147088910E+01
(PID.TID 0000.0001) %MON land_Tsrf_min_T              =  -2.8231642844964E+00
(PID.TID 0000.0001) %MON land_Tsrf_min_N              =  -5.2002443018389E+01
(PID.TID 0000.0001) %MON land_Tsrf_max_S              =   1.9960736302022E+01
(PID.TID 0000.0001) %MON land_Tsrf_max_T              =   1.9764238490546E+01
(PID.TID 0000.0001) %MON land_Tsrf_max_N              =   7.5959544352268E+00
(PID.TID 0000.0001) %MON land_Tgr1_ave_G              =  -7.4810257983259E+00
(PID.TID 0000.0001) %MON land_Tgr1_ave_S              =  -7.3017872133297E+00
(PID.TID 0000.0001) %MON land_Tgr1_ave_T              =   9.7104543790157E+00
(PID.TID 0000.0001) %MON land_Tgr1_ave_N              =  -1.9019134572827E+01
(PID.TID 0000.0001) %MON land_Tgr1_min_S              =  -3.9382064423587E+01
(PID.TID 0000.0001) %MON land_Tgr1_min_T              =  -2.8231642844964E+00
(PID.TID 0000.0001) %MON land_Tgr1_min_N              =  -5.4570860330272E+01
(PID.TID 0000.0001) %MON land_Tgr1_max_S              =   1.9960736302022E+01
(PID.TID 0000.0001) %MON land_Tgr1_max_T              =   1.9764238490546E+01
(PID.TID 0000.0001) %MON land_Tgr1_max_N              =   7.5959544352268E+00
(PID.TID 0000.0001) %MON land_Tgr2_ave_G              =   4.2019668855479E+00
(PID.TID 0000.0001) %MON land_Tgr2_ave_S              =  -1.8724728068060E+01
(PID.TID 0000.0001) %MON land_Tgr2_ave_T              =   2.2007480364276E+01
(PID.TID 0000.0001) %MON land_Tgr2_ave_N              =  -2.5075121595719E-01
(PID.TID 0000.0001) %MON land_Tgr2_min_S              =  -6.4747212666127E+01
(PID.TID 0000.0001) %MON land_Tgr2_min_T              =  -9.7029071583132E+00
(PID.TID 0000.0001) %MON land_Tgr2_min_N              =  -4.0201922590253E+01
(PID.TID 0000.0001) %MON land_Tgr2_max_S              =   2.3359317996997E+01
(PID.TID 0000.0001) %MON land_Tgr2_max_T              =   3.1347353966354E+01
(PID.TID 0000.0001) %MON land_Tgr2_max_N              =   2.9816138209890E+01
(PID.TID 0000.0001) %MON land_grdW_ave_G              =   4.8668474634976E-01
(PID.TID 0000.0001) %MON land_grdW_ave_S              =   3.0845009719916E-01
(PID.TID 0000.0001) %MON land_grdW_ave_T              =   5.6400419049985E-01
(PID.TID 0000.0001) %MON land_grdW_ave_N              =   4.9287132965589E-01
(PID.TID 0000.0001) %MON land_grdW_min_S              =   2.8366820785575E-02
(PID.TID 0000.0001) %MON land_grdW_min_T              =   0.0000000000000E+00
(PID.TID 0000.0001) %MON land_grdW_min_N              =   0.0000000000000E+00
(PID.TID 0000.0001) // =======================================================
(PID.TID 0000.0001) // End MONITOR Land statistics
(PID.TID 0000.0001) // =======================================================
(PID.TID 0000.0001) // =======================================================
(PID.TID 0000.0001) // Begin MONITOR Therm.SeaIce statistics
(PID.TID 0000.0001) // =======================================================
(PID.TID 0000.0001) %MON thSI_time_sec                =   1.5750000000000E+04
(PID.TID 0000.0001) %MON thSI_Ice_Area_G              =   1.7990743540394E+11
(PID.TID 0000.0001) %MON thSI_Ice_Area_S              =   0.0000000000000E+00
(PID.TID 0000.0001) %MON thSI_Ice_Area_N              =   1.7990743540394E+11
(PID.TID 0000.0001) %MON thSI_IceH_ave_G              =   1.3900714440191E-01
(PID.TID 0000.0001) %MON thSI_IceH_ave_S              =   0.0000000000000E+00
(PID.TID 0000.0001) %MON thSI_IceH_ave_N              =   1.3900714440191E-01
(PID.TID 0000.0001) %MON thSI_IceH_max_S              =   0.0000000000000E+00
(PID.TID 0000.0001) %MON thSI_IceH_max_N              =   1.4970588740232E-01
(PID.TID 0000.0001) %MON thSI_SnwH_ave_G              =   0.0000000000000E+00
(PID.TID 0000.0001) %MON thSI_SnwH_ave_S              =   0.0000000000000E+00
(PID.TID 0000.0001) %MON thSI_SnwH_ave_N              =   0.0000000000000E+00
(PID.TID 0000.0001) %MON thSI_SnwH_max_S              =   0.0000000000000E+00
(PID.TID 0000.0001) %MON thSI_SnwH_max_N              =   0.0000000000000E+00
(PID.TID 0000.0001) %MON thSI_TotEnerg_G              =  -7.7359058111561E+18
(PID.TID 0000.0001) %MON thSI_Tsrf_ave_G              =  -9.1727361535358E+00
(PID.TID 0000.0001) %MON thSI_Tsrf_ave_S              =   0.0000000000000E+00
(PID.TID 0000.0001) %MON thSI_Tsrf_ave_N              =  -9.1727361535358E+00
(PID.TID 0000.0001) %MON thSI_Tsrf_min_S              =   0.0000000000000E+00
(PID.TID 0000.0001) %MON thSI_Tsrf_min_N              =  -9.5620363753022E+00
(PID.TID 0000.0001) %MON thSI_Tsrf_max_S              =   0.0000000000000E+00
(PID.TID 0000.0001) %MON thSI_Tsrf_max_N              =  -4.0796819146728E+00
(PID.TID 0000.0001) %MON thSI_Tic1_ave_G              =  -7.0614807916548E+00
(PID.TID 0000.0001) %MON thSI_Tic1_ave_S              =   0.0000000000000E+00
(PID.TID 0000.0001) %MON thSI_Tic1_ave_N              =  -7.0614807916548E+00
(PID.TID 0000.0001) %MON thSI_Tic1_min_S              =   0.0000000000000E+00
(PID.TID 0000.0001) %MON thSI_Tic1_min_N              =  -7.2777880903962E+00
(PID.TID 0000.0001) %MON thSI_Tic1_max_S              =   0.0000000000000E+00
(PID.TID 0000.0001) %MON thSI_Tic1_max_N              =  -2.1075217049648E+00
(PID.TID 0000.0001) %MON thSI_Tic2_ave_G              =  -3.3781963863934E+00
(PID.TID 0000.0001) %MON thSI_Tic2_ave_S              =   0.0000000000000E+00
(PID.TID 0000.0001) %MON thSI_Tic2_ave_N              =  -3.3781963863934E+00
(PID.TID 0000.0001) %MON thSI_Tic2_min_S              =   0.0000000000000E+00
(PID.TID 0000.0001) %MON thSI_Tic2_min_N              =  -3.4630852344050E+00
(PID.TID 0000.0001) %MON thSI_Tic2_max_S              =   0.0000000000000E+00
(PID.TID 0000.0001) %MON thSI_Tic2_max_N              =  -1.7479734162936E+00
(PID.TID 0000.0001) // =======================================================
(PID.TID 0000.0001) // End MONITOR Therm.SeaIce statistics
(PID.TID 0000.0001) // =======================================================
 cg2d: Sum(rhs),rhsMax =   0.00000000000000E+00  1.72525995636437E+04
(PID.TID 0000.0001)                    cg2d_init_res =    9.95562618851401E+03
(PID.TID 0000.0001)                       cg2d_iters =    16
(PID.TID 0000.0001)                         cg2d_res =    5.55195451232879E-11
(PID.TID 0000.0001) // =======================================================
(PID.TID 0000.0001) // Begin MONITOR dynamic field statistics
(PID.TID 0000.0001) // =======================================================
(PID.TID 0000.0001) %MON time_tsnumber                =                    36
(PID.TID 0000.0001) %MON time_secondsf                =   1.6200000000000E+04
(PID.TID 0000.0001) %MON dynstat_eta_max              =   3.0027081418828E+03
(PID.TID 0000.0001) %MON dynstat_eta_min              =  -7.8131897276601E+02
(PID.TID 0000.0001) %MON dynstat_eta_mean             =  -5.7836728011656E-14
(PID.TID 0000.0001) %MON dynstat_eta_sd               =   4.3105966969382E+02
(PID.TID 0000.0001) %MON dynstat_eta_del2             =   3.6311822664766E+01
(PID.TID 0000.0001) %MON dynstat_uvel_max             =   4.1629589666825E+00
(PID.TID 0000.0001) %MON dynstat_uvel_min             =  -4.1352525542010E+00
(PID.TID 0000.0001) %MON dynstat_uvel_mean            =   8.0215731990575E-02
(PID.TID 0000.0001) %MON dynstat_uvel_sd              =   7.4767157814681E-01
(PID.TID 0000.0001) %MON dynstat_uvel_del2            =   3.1427489824583E-02
(PID.TID 0000.0001) %MON dynstat_vvel_max             =   4.2528686616579E+00
(PID.TID 0000.0001) %MON dynstat_vvel_min             =  -4.4148609613276E+00
(PID.TID 0000.0001) %MON dynstat_vvel_mean            =   2.3830067242514E-02
(PID.TID 0000.0001) %MON dynstat_vvel_sd              =   7.7655038547788E-01
(PID.TID 0000.0001) %MON dynstat_vvel_del2            =   3.0996862153947E-02
(PID.TID 0000.0001) %MON dynstat_wvel_max             =   1.4386365689961E-01
(PID.TID 0000.0001) %MON dynstat_wvel_min             =  -9.1494085651458E-02
(PID.TID 0000.0001) %MON dynstat_wvel_mean            =   3.2552121516740E-04
(PID.TID 0000.0001) %MON dynstat_wvel_sd              =   9.2180212968997E-03
(PID.TID 0000.0001) %MON dynstat_wvel_del2            =   2.1612021528933E-03
(PID.TID 0000.0001) %MON dynstat_theta_max            =   4.3819869377482E+02
(PID.TID 0000.0001) %MON dynstat_theta_min            =   2.8129784529775E+02
(PID.TID 0000.0001) %MON dynstat_theta_mean           =   3.3166101250475E+02
(PID.TID 0000.0001) %MON dynstat_theta_sd             =   4.7476007694051E+01
(PID.TID 0000.0001) %MON dynstat_theta_del2           =   3.5719088011781E-02
(PID.TID 0000.0001) %MON dynstat_salt_max             =   4.9368640274511E+00
(PID.TID 0000.0001) %MON dynstat_salt_min             =  -3.6417247613275E-02
(PID.TID 0000.0001) %MON dynstat_salt_mean            =   1.2708131343180E-01
(PID.TID 0000.0001) %MON dynstat_salt_sd              =   4.8412377923663E-01
(PID.TID 0000.0001) %MON dynstat_salt_del2            =   1.4379418383154E-02
(PID.TID 0000.0001) %MON advcfl_uvel_max              =   6.0811353777828E-03
(PID.TID 0000.0001) %MON advcfl_vvel_max              =   7.7432401187709E-03
(PID.TID 0000.0001) %MON advcfl_wvel_max              =   2.6176416315178E-03
(PID.TID 0000.0001) %MON advcfl_W_hf_max              =   1.9929809333657E-02
(PID.TID 0000.0001) %MON pe_b_mean                    =  -1.1912760257264E+00
(PID.TID 0000.0001) %MON ke_max                       =   1.0397187501582E+01
(PID.TID 0000.0001) %MON ke_mean                      =   5.8101796735313E-01
(PID.TID 0000.0001) %MON ke_vol                       =   4.9523908919847E+19
(PID.TID 0000.0001) %MON vort_r_min                   =  -1.6770246383452E-05
(PID.TID 0000.0001) %MON vort_r_max                   =   1.5488159273187E-05
(PID.TID 0000.0001) %MON vort_a_mean                  =   6.7059142262080E-08
(PID.TID 0000.0001) %MON vort_a_sd                    =   8.3786603649374E-05
(PID.TID 0000.0001) %MON vort_p_mean                  =   6.8751174781948E-08
(PID.TID 0000.0001) %MON vort_p_sd                    =   9.1387496932719E-05
(PID.TID 0000.0001) %MON surfExpan_theta_mean         =  -3.1418763492660E-02
(PID.TID 0000.0001) %MON surfExpan_salt_mean          =  -1.8228521129763E-03
(PID.TID 0000.0001) %MON surfExpan_Heat_mean          =   2.4352397463482E+00
(PID.TID 0000.0001) %MON En_Budget_T2PE_mean          =  -4.7931299038019E+00
(PID.TID 0000.0001) // =======================================================
(PID.TID 0000.0001) // End MONITOR dynamic field statistics
(PID.TID 0000.0001) // =======================================================
(PID.TID 0000.0001) // =======================================================
(PID.TID 0000.0001) // Begin MONITOR Land statistics
(PID.TID 0000.0001) // =======================================================
(PID.TID 0000.0001) %MON land_time_sec                =   1.6200000000000E+04
(PID.TID 0000.0001) %MON land_SnwH_ave_G              =   1.5321328777359E-01
(PID.TID 0000.0001) %MON land_SnwH_ave_S              =   5.5903174129961E-01
(PID.TID 0000.0001) %MON land_SnwH_ave_T              =   0.0000000000000E+00
(PID.TID 0000.0001) %MON land_SnwH_ave_N              =   1.2387958179005E-01
(PID.TID 0000.0001) %MON land_SnwH_max_S              =   9.9998021885324E-01
(PID.TID 0000.0001) %MON land_SnwH_max_T              =   0.0000000000000E+00
(PID.TID 0000.0001) %MON land_SnwH_max_N              =   9.9999763768400E-01
(PID.TID 0000.0001) %MON land_TotEnerg_G              =  -6.3634689776246E+21
(PID.TID 0000.0001) %MON land_TotEnerg_S              =  -5.0024805467597E+21
(PID.TID 0000.0001) %MON land_TotEnerg_T              =   7.2719554298226E+21
(PID.TID 0000.0001) %MON land_TotEnerg_N              =  -8.6329438606875E+21
(PID.TID 0000.0001) %MON land_Tsrf_ave_G              =  -8.6785570786766E+00
(PID.TID 0000.0001) %MON land_Tsrf_ave_S              =  -7.3858582034228E+00
(PID.TID 0000.0001) %MON land_Tsrf_ave_T              =   9.6749059782966E+00
(PID.TID 0000.0001) %MON land_Tsrf_ave_N              =  -2.1353803580603E+01
(PID.TID 0000.0001) %MON land_Tsrf_min_S              =  -3.3466587587175E+01
(PID.TID 0000.0001) %MON land_Tsrf_min_T              =  -2.9305599984467E+00
(PID.TID 0000.0001) %MON land_Tsrf_min_N              =  -5.1994469321449E+01
(PID.TID 0000.0001) %MON land_Tsrf_max_S              =   1.9948911938249E+01
(PID.TID 0000.0001) %MON land_Tsrf_max_T              =   1.9725964249259E+01
(PID.TID 0000.0001) %MON land_Tsrf_max_N              =   7.5387596673912E+00
(PID.TID 0000.0001) %MON land_Tgr1_ave_G              =  -7.5006858424325E+00
(PID.TID 0000.0001) %MON land_Tgr1_ave_S              =  -7.3072480975186E+00
(PID.TID 0000.0001) %MON land_Tgr1_ave_T              =   9.6749059782966E+00
(PID.TID 0000.0001) %MON land_Tgr1_ave_N              =  -1.9032790960617E+01
(PID.TID 0000.0001) %MON land_Tgr1_min_S              =  -3.9392585269014E+01
(PID.TID 0000.0001) %MON land_Tgr1_min_T              =  -2.9305599984467E+00
(PID.TID 0000.0001) %MON land_Tgr1_min_N              =  -5.4558548664889E+01
(PID.TID 0000.0001) %MON land_Tgr1_max_S              =   1.9948911938249E+01
(PID.TID 0000.0001) %MON land_Tgr1_max_T              =   1.9725964249259E+01
(PID.TID 0000.0001) %MON land_Tgr1_max_N              =   7.5387596673912E+00
(PID.TID 0000.0001) %MON land_Tgr2_ave_G              =   4.2017879742079E+00
(PID.TID 0000.0001) %MON land_Tgr2_ave_S              =  -1.8724536557251E+01
(PID.TID 0000.0001) %MON land_Tgr2_ave_T              =   2.2007282588239E+01
(PID.TID 0000.0001) %MON land_Tgr2_ave_N              =  -2.5103769269571E-01
(PID.TID 0000.0001) %MON land_Tgr2_min_S              =  -6.4746785452694E+01
(PID.TID 0000.0001) %MON land_Tgr2_min_T              =  -9.7028164336634E+00
(PID.TID 0000.0001) %MON land_Tgr2_min_N              =  -4.0202155568806E+01
(PID.TID 0000.0001) %MON land_Tgr2_max_S              =   2.3359242718279E+01
(PID.TID 0000.0001) %MON land_Tgr2_max_T              =   3.1346902572576E+01
(PID.TID 0000.0001) %MON land_Tgr2_max_N              =   2.9815567555723E+01
(PID.TID 0000.0001) %MON land_grdW_ave_G              =   4.8667768003582E-01
(PID.TID 0000.0001) %MON land_grdW_ave_S              =   3.0844280905717E-01
(PID.TID 0000.0001) %MON land_grdW_ave_T              =   5.6398708435025E-01
(PID.TID 0000.0001) %MON land_grdW_ave_N              =   4.9287103960862E-01
(PID.TID 0000.0001) %MON land_grdW_min_S              =   2.8450505052860E-02
(PID.TID 0000.0001) %MON land_grdW_min_T              =   0.0000000000000E+00
(PID.TID 0000.0001) %MON land_grdW_min_N              =   0.0000000000000E+00
(PID.TID 0000.0001) // =======================================================
(PID.TID 0000.0001) // End MONITOR Land statistics
(PID.TID 0000.0001) // =======================================================
(PID.TID 0000.0001) // =======================================================
(PID.TID 0000.0001) // Begin MONITOR Therm.SeaIce statistics
(PID.TID 0000.0001) // =======================================================
(PID.TID 0000.0001) %MON thSI_time_sec                =   1.6200000000000E+04
(PID.TID 0000.0001) %MON thSI_Ice_Area_G              =   1.8207055316282E+11
(PID.TID 0000.0001) %MON thSI_Ice_Area_S              =   0.0000000000000E+00
(PID.TID 0000.0001) %MON thSI_Ice_Area_N              =   1.8207055316282E+11
(PID.TID 0000.0001) %MON thSI_IceH_ave_G              =   1.3876486812887E-01
(PID.TID 0000.0001) %MON thSI_IceH_ave_S              =   0.0000000000000E+00
(PID.TID 0000.0001) %MON thSI_IceH_ave_N              =   1.3876486812887E-01
(PID.TID 0000.0001) %MON thSI_IceH_max_S              =   0.0000000000000E+00
(PID.TID 0000.0001) %MON thSI_IceH_max_N              =   1.4984273824016E-01
(PID.TID 0000.0001) %MON thSI_SnwH_ave_G              =   0.0000000000000E+00
(PID.TID 0000.0001) %MON thSI_SnwH_ave_S              =   0.0000000000000E+00
(PID.TID 0000.0001) %MON thSI_SnwH_ave_N              =   0.0000000000000E+00
(PID.TID 0000.0001) %MON thSI_SnwH_max_S              =   0.0000000000000E+00
(PID.TID 0000.0001) %MON thSI_SnwH_max_N              =   0.0000000000000E+00
(PID.TID 0000.0001) %MON thSI_TotEnerg_G              =  -7.8154176506475E+18
(PID.TID 0000.0001) %MON thSI_Tsrf_ave_G              =  -9.1497349012270E+00
(PID.TID 0000.0001) %MON thSI_Tsrf_ave_S              =   0.0000000000000E+00
(PID.TID 0000.0001) %MON thSI_Tsrf_ave_N              =  -9.1497349012270E+00
(PID.TID 0000.0001) %MON thSI_Tsrf_min_S              =   0.0000000000000E+00
(PID.TID 0000.0001) %MON thSI_Tsrf_min_N              =  -9.5965850231241E+00
(PID.TID 0000.0001) %MON thSI_Tsrf_max_S              =   0.0000000000000E+00
(PID.TID 0000.0001) %MON thSI_Tsrf_max_N              =  -4.3112736358753E+00
(PID.TID 0000.0001) %MON thSI_Tic1_ave_G              =  -7.0650157806706E+00
(PID.TID 0000.0001) %MON thSI_Tic1_ave_S              =   0.0000000000000E+00
(PID.TID 0000.0001) %MON thSI_Tic1_ave_N              =  -7.0650157806706E+00
(PID.TID 0000.0001) %MON thSI_Tic1_min_S              =   0.0000000000000E+00
(PID.TID 0000.0001) %MON thSI_Tic1_min_N              =  -7.3233014868054E+00
(PID.TID 0000.0001) %MON thSI_Tic1_max_S              =   0.0000000000000E+00
(PID.TID 0000.0001) %MON thSI_Tic1_max_N              =  -2.3509867305233E+00
(PID.TID 0000.0001) %MON thSI_Tic2_ave_G              =  -3.3842524332327E+00
(PID.TID 0000.0001) %MON thSI_Tic2_ave_S              =   0.0000000000000E+00
(PID.TID 0000.0001) %MON thSI_Tic2_ave_N              =  -3.3842524332327E+00
(PID.TID 0000.0001) %MON thSI_Tic2_min_S              =   0.0000000000000E+00
(PID.TID 0000.0001) %MON thSI_Tic2_min_N              =  -3.4835210791674E+00
(PID.TID 0000.0001) %MON thSI_Tic2_max_S              =   0.0000000000000E+00
(PID.TID 0000.0001) %MON thSI_Tic2_max_N              =  -1.8027770066315E+00
(PID.TID 0000.0001) // =======================================================
(PID.TID 0000.0001) // End MONITOR Therm.SeaIce statistics
(PID.TID 0000.0001) // =======================================================
 cg2d: Sum(rhs),rhsMax =   4.65661287307739E-10  1.71240099400284E+04
(PID.TID 0000.0001)                    cg2d_init_res =    9.79570790983422E+03
(PID.TID 0000.0001)                       cg2d_iters =    16
(PID.TID 0000.0001)                         cg2d_res =    5.42001483538809E-11
(PID.TID 0000.0001) // =======================================================
(PID.TID 0000.0001) // Begin MONITOR dynamic field statistics
(PID.TID 0000.0001) // =======================================================
(PID.TID 0000.0001) %MON time_tsnumber                =                    37
(PID.TID 0000.0001) %MON time_secondsf                =   1.6650000000000E+04
(PID.TID 0000.0001) %MON dynstat_eta_max              =   3.0264878935120E+03
(PID.TID 0000.0001) %MON dynstat_eta_min              =  -8.4606309959026E+02
(PID.TID 0000.0001) %MON dynstat_eta_mean             =   3.2131515562031E-14
(PID.TID 0000.0001) %MON dynstat_eta_sd               =   4.2803183751713E+02
(PID.TID 0000.0001) %MON dynstat_eta_del2             =   3.6341344261274E+01
(PID.TID 0000.0001) %MON dynstat_uvel_max             =   4.1810623833948E+00
(PID.TID 0000.0001) %MON dynstat_uvel_min             =  -3.8354859635499E+00
(PID.TID 0000.0001) %MON dynstat_uvel_mean            =   8.6252279506666E-02
(PID.TID 0000.0001) %MON dynstat_uvel_sd              =   7.3917130516458E-01
(PID.TID 0000.0001) %MON dynstat_uvel_del2            =   3.2212105728134E-02
(PID.TID 0000.0001) %MON dynstat_vvel_max             =   4.0761302281849E+00
(PID.TID 0000.0001) %MON dynstat_vvel_min             =  -4.2635832433206E+00
(PID.TID 0000.0001) %MON dynstat_vvel_mean            =   2.5214863927366E-02
(PID.TID 0000.0001) %MON dynstat_vvel_sd              =   7.6749545664493E-01
(PID.TID 0000.0001) %MON dynstat_vvel_del2            =   3.1777634864202E-02
(PID.TID 0000.0001) %MON dynstat_wvel_max             =   1.2209072423835E-01
(PID.TID 0000.0001) %MON dynstat_wvel_min             =  -9.5209367207101E-02
(PID.TID 0000.0001) %MON dynstat_wvel_mean            =   2.8107034965291E-04
(PID.TID 0000.0001) %MON dynstat_wvel_sd              =   9.1183413635960E-03
(PID.TID 0000.0001) %MON dynstat_wvel_del2            =   2.1895890191174E-03
(PID.TID 0000.0001) %MON dynstat_theta_max            =   4.3830279458497E+02
(PID.TID 0000.0001) %MON dynstat_theta_min            =   2.8108563063758E+02
(PID.TID 0000.0001) %MON dynstat_theta_mean           =   3.3165866343286E+02
(PID.TID 0000.0001) %MON dynstat_theta_sd             =   4.7478139205634E+01
(PID.TID 0000.0001) %MON dynstat_theta_del2           =   3.6640012134701E-02
(PID.TID 0000.0001) %MON dynstat_salt_max             =   4.9653639827892E+00
(PID.TID 0000.0001) %MON dynstat_salt_min             =  -3.8984615484314E-02
(PID.TID 0000.0001) %MON dynstat_salt_mean            =   1.3033821106541E-01
(PID.TID 0000.0001) %MON dynstat_salt_sd              =   4.9497886376939E-01
(PID.TID 0000.0001) %MON dynstat_salt_del2            =   1.4686559097038E-02
(PID.TID 0000.0001) %MON advcfl_uvel_max              =   6.2837653118274E-03
(PID.TID 0000.0001) %MON advcfl_vvel_max              =   7.5989611766268E-03
(PID.TID 0000.0001) %MON advcfl_wvel_max              =   2.7195721171514E-03
(PID.TID 0000.0001) %MON advcfl_W_hf_max              =   2.0961425123747E-02
(PID.TID 0000.0001) %MON pe_b_mean                    =  -1.1835481742748E+00
(PID.TID 0000.0001) %MON ke_max                       =   9.5698076395734E+00
(PID.TID 0000.0001) %MON ke_mean                      =   5.6831919981590E-01
(PID.TID 0000.0001) %MON ke_vol                       =   4.9523908919847E+19
(PID.TID 0000.0001) %MON vort_r_min                   =  -1.6222009761566E-05
(PID.TID 0000.0001) %MON vort_r_max                   =   1.6162638905011E-05
(PID.TID 0000.0001) %MON vort_a_mean                  =   6.7059142262043E-08
(PID.TID 0000.0001) %MON vort_a_sd                    =   8.3788352647883E-05
(PID.TID 0000.0001) %MON vort_p_mean                  =   6.8751174968404E-08
(PID.TID 0000.0001) %MON vort_p_sd                    =   9.1378849895636E-05
(PID.TID 0000.0001) %MON surfExpan_theta_mean         =  -2.7046715399084E-02
(PID.TID 0000.0001) %MON surfExpan_salt_mean          =  -1.8404513286181E-03
(PID.TID 0000.0001) %MON surfExpan_Heat_mean          =   2.0762203570144E+00
(PID.TID 0000.0001) %MON En_Budget_T2PE_mean          =  -4.1128219983007E+00
(PID.TID 0000.0001) // =======================================================
(PID.TID 0000.0001) // End MONITOR dynamic field statistics
(PID.TID 0000.0001) // =======================================================
(PID.TID 0000.0001) // =======================================================
(PID.TID 0000.0001) // Begin MONITOR Land statistics
(PID.TID 0000.0001) // =======================================================
(PID.TID 0000.0001) %MON land_time_sec                =   1.6650000000000E+04
(PID.TID 0000.0001) %MON land_SnwH_ave_G              =   1.5321236392374E-01
(PID.TID 0000.0001) %MON land_SnwH_ave_S              =   5.5903090652779E-01
(PID.TID 0000.0001) %MON land_SnwH_ave_T              =   0.0000000000000E+00
(PID.TID 0000.0001) %MON land_SnwH_ave_N              =   1.2387801212406E-01
(PID.TID 0000.0001) %MON land_SnwH_max_S              =   9.9997964676255E-01
(PID.TID 0000.0001) %MON land_SnwH_max_T              =   0.0000000000000E+00
(PID.TID 0000.0001) %MON land_SnwH_max_N              =   9.9999757350017E-01
(PID.TID 0000.0001) %MON land_TotEnerg_G              =  -6.3642874912699E+21
(PID.TID 0000.0001) %MON land_TotEnerg_S              =  -5.0024747698215E+21
(PID.TID 0000.0001) %MON land_TotEnerg_T              =   7.2716250243852E+21
(PID.TID 0000.0001) %MON land_TotEnerg_N              =  -8.6334377458336E+21
(PID.TID 0000.0001) %MON land_Tsrf_ave_G              =  -8.6922639153788E+00
(PID.TID 0000.0001) %MON land_Tsrf_ave_S              =  -7.3764192502296E+00
(PID.TID 0000.0001) %MON land_Tsrf_ave_T              =   9.6422688000222E+00
(PID.TID 0000.0001) %MON land_Tsrf_ave_N              =  -2.1362377645148E+01
(PID.TID 0000.0001) %MON land_Tsrf_min_S              =  -3.3434435402961E+01
(PID.TID 0000.0001) %MON land_Tsrf_min_T              =  -3.0351061115984E+00
(PID.TID 0000.0001) %MON land_Tsrf_min_N              =  -5.1986009388452E+01
(PID.TID 0000.0001) %MON land_Tsrf_max_S              =   1.9940547598132E+01
(PID.TID 0000.0001) %MON land_Tsrf_max_T              =   1.9693021839444E+01
(PID.TID 0000.0001) %MON land_Tsrf_max_N              =   7.4862928484731E+00
(PID.TID 0000.0001) %MON land_Tgr1_ave_G              =  -7.5189775109047E+00
(PID.TID 0000.0001) %MON land_Tgr1_ave_S              =  -7.3118513924919E+00
(PID.TID 0000.0001) %MON land_Tgr1_ave_T              =   9.6422688000222E+00
(PID.TID 0000.0001) %MON land_Tgr1_ave_N              =  -1.9045943544496E+01
(PID.TID 0000.0001) %MON land_Tgr1_min_S              =  -3.9403057529159E+01
(PID.TID 0000.0001) %MON land_Tgr1_min_T              =  -3.0351061115984E+00
(PID.TID 0000.0001) %MON land_Tgr1_min_N              =  -5.4546249099394E+01
(PID.TID 0000.0001) %MON land_Tgr1_max_S              =   1.9940547598132E+01
(PID.TID 0000.0001) %MON land_Tgr1_max_T              =   1.9693021839444E+01
(PID.TID 0000.0001) %MON land_Tgr1_max_N              =   7.4862928484731E+00
(PID.TID 0000.0001) %MON land_Tgr2_ave_G              =   4.2016088550208E+00
(PID.TID 0000.0001) %MON land_Tgr2_ave_S              =  -1.8724345122157E+01
(PID.TID 0000.0001) %MON land_Tgr2_ave_T              =   2.2007084420661E+01
(PID.TID 0000.0001) %MON land_Tgr2_ave_N              =  -2.5132429747892E-01
(PID.TID 0000.0001) %MON land_Tgr2_min_S              =  -6.4746358438684E+01
(PID.TID 0000.0001) %MON land_Tgr2_min_T              =  -9.7027247366722E+00
(PID.TID 0000.0001) %MON land_Tgr2_min_N              =  -4.0202388320425E+01
(PID.TID 0000.0001) %MON land_Tgr2_max_S              =   2.3359166986367E+01
(PID.TID 0000.0001) %MON land_Tgr2_max_T              =   3.1346449954058E+01
(PID.TID 0000.0001) %MON land_Tgr2_max_N              =   2.9814993778419E+01
(PID.TID 0000.0001) %MON land_grdW_ave_G              =   4.8667064724805E-01
(PID.TID 0000.0001) %MON land_grdW_ave_S              =   3.0843554236301E-01
(PID.TID 0000.0001) %MON land_grdW_ave_T              =   5.6397007101823E-01
(PID.TID 0000.0001) %MON land_grdW_ave_N              =   4.9287074741257E-01
(PID.TID 0000.0001) %MON land_grdW_min_S              =   2.8533566581505E-02
(PID.TID 0000.0001) %MON land_grdW_min_T              =   0.0000000000000E+00
(PID.TID 0000.0001) %MON land_grdW_min_N              =   0.0000000000000E+00
(PID.TID 0000.0001) // =======================================================
(PID.TID 0000.0001) // End MONITOR Land statistics
(PID.TID 0000.0001) // =======================================================
(PID.TID 0000.0001) // =======================================================
(PID.TID 0000.0001) // Begin MONITOR Therm.SeaIce statistics
(PID.TID 0000.0001) // =======================================================
(PID.TID 0000.0001) %MON thSI_time_sec                =   1.6650000000000E+04
(PID.TID 0000.0001) %MON thSI_Ice_Area_G              =   1.8418307442212E+11
(PID.TID 0000.0001) %MON thSI_Ice_Area_S              =   0.0000000000000E+00
(PID.TID 0000.0001) %MON thSI_Ice_Area_N              =   1.8418307442212E+11
(PID.TID 0000.0001) %MON thSI_IceH_ave_G              =   1.3856549845915E-01
(PID.TID 0000.0001) %MON thSI_IceH_ave_S              =   0.0000000000000E+00
(PID.TID 0000.0001) %MON thSI_IceH_ave_N              =   1.3856549845915E-01
(PID.TID 0000.0001) %MON thSI_IceH_max_S              =   0.0000000000000E+00
(PID.TID 0000.0001) %MON thSI_IceH_max_N              =   1.4998119948699E-01
(PID.TID 0000.0001) %MON thSI_SnwH_ave_G              =   0.0000000000000E+00
(PID.TID 0000.0001) %MON thSI_SnwH_ave_S              =   0.0000000000000E+00
(PID.TID 0000.0001) %MON thSI_SnwH_ave_N              =   0.0000000000000E+00
(PID.TID 0000.0001) %MON thSI_SnwH_max_S              =   0.0000000000000E+00
(PID.TID 0000.0001) %MON thSI_SnwH_max_N              =   0.0000000000000E+00
(PID.TID 0000.0001) %MON thSI_TotEnerg_G              =  -7.8950013785882E+18
(PID.TID 0000.0001) %MON thSI_Tsrf_ave_G              =  -9.1313797566159E+00
(PID.TID 0000.0001) %MON thSI_Tsrf_ave_S              =   0.0000000000000E+00
(PID.TID 0000.0001) %MON thSI_Tsrf_ave_N              =  -9.1313797566159E+00
(PID.TID 0000.0001) %MON thSI_Tsrf_min_S              =   0.0000000000000E+00
(PID.TID 0000.0001) %MON thSI_Tsrf_min_N              =  -9.6276495489401E+00
(PID.TID 0000.0001) %MON thSI_Tsrf_max_S              =   0.0000000000000E+00
(PID.TID 0000.0001) %MON thSI_Tsrf_max_N              =  -4.5511155824167E+00
(PID.TID 0000.0001) %MON thSI_Tic1_ave_G              =  -7.0697614971546E+00
(PID.TID 0000.0001) %MON thSI_Tic1_ave_S              =   0.0000000000000E+00
(PID.TID 0000.0001) %MON thSI_Tic1_ave_N              =  -7.0697614971546E+00
(PID.TID 0000.0001) %MON thSI_Tic1_min_S              =   0.0000000000000E+00
(PID.TID 0000.0001) %MON thSI_Tic1_min_N              =  -7.3648618348240E+00
(PID.TID 0000.0001) %MON thSI_Tic1_max_S              =   0.0000000000000E+00
(PID.TID 0000.0001) %MON thSI_Tic1_max_N              =  -2.6033492130534E+00
(PID.TID 0000.0001) %MON thSI_Tic2_ave_G              =  -3.3900231896899E+00
(PID.TID 0000.0001) %MON thSI_Tic2_ave_S              =   0.0000000000000E+00
(PID.TID 0000.0001) %MON thSI_Tic2_ave_N              =  -3.3900231896899E+00
(PID.TID 0000.0001) %MON thSI_Tic2_min_S              =   0.0000000000000E+00
(PID.TID 0000.0001) %MON thSI_Tic2_min_N              =  -3.5022356331328E+00
(PID.TID 0000.0001) %MON thSI_Tic2_max_S              =   0.0000000000000E+00
(PID.TID 0000.0001) %MON thSI_Tic2_max_N              =  -1.8662022383747E+00
(PID.TID 0000.0001) // =======================================================
(PID.TID 0000.0001) // End MONITOR Therm.SeaIce statistics
(PID.TID 0000.0001) // =======================================================
 cg2d: Sum(rhs),rhsMax =   1.39698386192322E-09  1.71517346126306E+04
(PID.TID 0000.0001)                    cg2d_init_res =    9.64769987120557E+03
(PID.TID 0000.0001)                       cg2d_iters =    16
(PID.TID 0000.0001)                         cg2d_res =    5.34390035274603E-11
(PID.TID 0000.0001) // =======================================================
(PID.TID 0000.0001) // Begin MONITOR dynamic field statistics
(PID.TID 0000.0001) // =======================================================
(PID.TID 0000.0001) %MON time_tsnumber                =                    38
(PID.TID 0000.0001) %MON time_secondsf                =   1.7100000000000E+04
(PID.TID 0000.0001) %MON dynstat_eta_max              =   3.0478990329291E+03
(PID.TID 0000.0001) %MON dynstat_eta_min              =  -8.9552006541512E+02
(PID.TID 0000.0001) %MON dynstat_eta_mean             =  -4.4984121786844E-14
(PID.TID 0000.0001) %MON dynstat_eta_sd               =   4.2600829134561E+02
(PID.TID 0000.0001) %MON dynstat_eta_del2             =   3.6356885385473E+01
(PID.TID 0000.0001) %MON dynstat_uvel_max             =   4.3163475866972E+00
(PID.TID 0000.0001) %MON dynstat_uvel_min             =  -3.5933069158526E+00
(PID.TID 0000.0001) %MON dynstat_uvel_mean            =   9.1810921072287E-02
(PID.TID 0000.0001) %MON dynstat_uvel_sd              =   7.3061915424104E-01
(PID.TID 0000.0001) %MON dynstat_uvel_del2            =   3.2997077048788E-02
(PID.TID 0000.0001) %MON dynstat_vvel_max             =   3.8954591948663E+00
(PID.TID 0000.0001) %MON dynstat_vvel_min             =  -4.1683815737890E+00
(PID.TID 0000.0001) %MON dynstat_vvel_mean            =   2.7069581749889E-02
(PID.TID 0000.0001) %MON dynstat_vvel_sd              =   7.5841302547236E-01
(PID.TID 0000.0001) %MON dynstat_vvel_del2            =   3.2564936271926E-02
(PID.TID 0000.0001) %MON dynstat_wvel_max             =   1.0971729630968E-01
(PID.TID 0000.0001) %MON dynstat_wvel_min             =  -9.8539369059877E-02
(PID.TID 0000.0001) %MON dynstat_wvel_mean            =   2.3849915182492E-04
(PID.TID 0000.0001) %MON dynstat_wvel_sd              =   9.0653458235106E-03
(PID.TID 0000.0001) %MON dynstat_wvel_del2            =   2.2230631480029E-03
(PID.TID 0000.0001) %MON dynstat_theta_max            =   4.3838655121953E+02
(PID.TID 0000.0001) %MON dynstat_theta_min            =   2.8087333234001E+02
(PID.TID 0000.0001) %MON dynstat_theta_mean           =   3.3165629884174E+02
(PID.TID 0000.0001) %MON dynstat_theta_sd             =   4.7480280828068E+01
(PID.TID 0000.0001) %MON dynstat_theta_del2           =   3.7550080037689E-02
(PID.TID 0000.0001) %MON dynstat_salt_max             =   4.9931798037123E+00
(PID.TID 0000.0001) %MON dynstat_salt_min             =  -4.1595869042976E-02
(PID.TID 0000.0001) %MON dynstat_salt_mean            =   1.3358572956960E-01
(PID.TID 0000.0001) %MON dynstat_salt_sd              =   5.0574885536805E-01
(PID.TID 0000.0001) %MON dynstat_salt_del2            =   1.4993915180270E-02
(PID.TID 0000.0001) %MON advcfl_uvel_max              =   6.4870869534970E-03
(PID.TID 0000.0001) %MON advcfl_vvel_max              =   7.2922958302349E-03
(PID.TID 0000.0001) %MON advcfl_wvel_max              =   2.8213019051061E-03
(PID.TID 0000.0001) %MON advcfl_W_hf_max              =   2.1994359975510E-02
(PID.TID 0000.0001) %MON pe_b_mean                    =  -1.1756976163941E+00
(PID.TID 0000.0001) %MON ke_max                       =   9.2245765460372E+00
(PID.TID 0000.0001) %MON ke_mean                      =   5.5572296461830E-01
(PID.TID 0000.0001) %MON ke_vol                       =   4.9523908919847E+19
(PID.TID 0000.0001) %MON vort_r_min                   =  -1.5713686748947E-05
(PID.TID 0000.0001) %MON vort_r_max                   =   1.6830195240222E-05
(PID.TID 0000.0001) %MON vort_a_mean                  =   6.7059142262016E-08
(PID.TID 0000.0001) %MON vort_a_sd                    =   8.3789996834840E-05
(PID.TID 0000.0001) %MON vort_p_mean                  =   6.8751174728623E-08
(PID.TID 0000.0001) %MON vort_p_sd                    =   9.1371206553526E-05
(PID.TID 0000.0001) %MON surfExpan_theta_mean         =  -2.2899278798686E-02
(PID.TID 0000.0001) %MON surfExpan_salt_mean          =  -1.8432770858479E-03
(PID.TID 0000.0001) %MON surfExpan_Heat_mean          =   1.7356768665775E+00
(PID.TID 0000.0001) %MON En_Budget_T2PE_mean          =  -3.4663890116286E+00
(PID.TID 0000.0001) // =======================================================
(PID.TID 0000.0001) // End MONITOR dynamic field statistics
(PID.TID 0000.0001) // =======================================================
(PID.TID 0000.0001) // =======================================================
(PID.TID 0000.0001) // Begin MONITOR Land statistics
(PID.TID 0000.0001) // =======================================================
(PID.TID 0000.0001) %MON land_time_sec                =   1.7100000000000E+04
(PID.TID 0000.0001) %MON land_SnwH_ave_G              =   1.5321144471414E-01
(PID.TID 0000.0001) %MON land_SnwH_ave_S              =   5.5903007349670E-01
(PID.TID 0000.0001) %MON land_SnwH_ave_T              =   0.0000000000000E+00
(PID.TID 0000.0001) %MON land_SnwH_ave_N              =   1.2387645113755E-01
(PID.TID 0000.0001) %MON land_SnwH_max_S              =   9.9997907286107E-01
(PID.TID 0000.0001) %MON land_SnwH_max_T              =   0.0000000000000E+00
(PID.TID 0000.0001) %MON land_SnwH_max_N              =   9.9999750924148E-01
(PID.TID 0000.0001) %MON land_TotEnerg_G              =  -6.3650764483445E+21
(PID.TID 0000.0001) %MON land_TotEnerg_S              =  -5.0024663283054E+21
(PID.TID 0000.0001) %MON land_TotEnerg_T              =   7.2713140978904E+21
(PID.TID 0000.0001) %MON land_TotEnerg_N              =  -8.6339242179295E+21
(PID.TID 0000.0001) %MON land_Tsrf_ave_G              =  -8.7044103214032E+00
(PID.TID 0000.0001) %MON land_Tsrf_ave_S              =  -7.3635740734510E+00
(PID.TID 0000.0001) %MON land_Tsrf_ave_T              =   9.6120720089112E+00
(PID.TID 0000.0001) %MON land_Tsrf_ave_N              =  -2.1370577652050E+01
(PID.TID 0000.0001) %MON land_Tsrf_min_S              =  -3.3401651630991E+01
(PID.TID 0000.0001) %MON land_Tsrf_min_T              =  -3.1368791702762E+00
(PID.TID 0000.0001) %MON land_Tsrf_min_N              =  -5.1977406788332E+01
(PID.TID 0000.0001) %MON land_Tsrf_max_S              =   1.9935198675026E+01
(PID.TID 0000.0001) %MON land_Tsrf_max_T              =   1.9664854051725E+01
(PID.TID 0000.0001) %MON land_Tsrf_max_N              =   7.4383457036897E+00
(PID.TID 0000.0001) %MON land_Tgr1_ave_G              =  -7.5361677826147E+00
(PID.TID 0000.0001) %MON land_Tgr1_ave_S              =  -7.3156810618719E+00
(PID.TID 0000.0001) %MON land_Tgr1_ave_T              =   9.6120720089112E+00
(PID.TID 0000.0001) %MON land_Tgr1_ave_N              =  -1.9058782543054E+01
(PID.TID 0000.0001) %MON land_Tgr1_min_S              =  -3.9413483340209E+01
(PID.TID 0000.0001) %MON land_Tgr1_min_T              =  -3.1368791702762E+00
(PID.TID 0000.0001) %MON land_Tgr1_min_N              =  -5.4533961474904E+01
(PID.TID 0000.0001) %MON land_Tgr1_max_S              =   1.9935198675026E+01
(PID.TID 0000.0001) %MON land_Tgr1_max_T              =   1.9664854051725E+01
(PID.TID 0000.0001) %MON land_Tgr1_max_N              =   7.4383457036897E+00
(PID.TID 0000.0001) %MON land_Tgr2_ave_G              =   4.2014295244078E+00
(PID.TID 0000.0001) %MON land_Tgr2_ave_S              =  -1.8724153750634E+01
(PID.TID 0000.0001) %MON land_Tgr2_ave_T              =   2.2006885900035E+01
(PID.TID 0000.0001) %MON land_Tgr2_ave_N              =  -2.5161106707948E-01
(PID.TID 0000.0001) %MON land_Tgr2_min_S              =  -6.4745931623244E+01
(PID.TID 0000.0001) %MON land_Tgr2_min_T              =  -9.7026321062155E+00
(PID.TID 0000.0001) %MON land_Tgr2_min_N              =  -4.0202620845559E+01
(PID.TID 0000.0001) %MON land_Tgr2_max_S              =   2.3359090873011E+01
(PID.TID 0000.0001) %MON land_Tgr2_max_T              =   3.1345996206347E+01
(PID.TID 0000.0001) %MON land_Tgr2_max_N              =   2.9814417001524E+01
(PID.TID 0000.0001) %MON land_grdW_ave_G              =   4.8666364489789E-01
(PID.TID 0000.0001) %MON land_grdW_ave_S              =   3.0842829550386E-01
(PID.TID 0000.0001) %MON land_grdW_ave_T              =   5.6395314234265E-01
(PID.TID 0000.0001) %MON land_grdW_ave_N              =   4.9287045288783E-01
(PID.TID 0000.0001) %MON land_grdW_min_S              =   2.8615929638047E-02
(PID.TID 0000.0001) %MON land_grdW_min_T              =   0.0000000000000E+00
(PID.TID 0000.0001) %MON land_grdW_min_N              =   0.0000000000000E+00
(PID.TID 0000.0001) // =======================================================
(PID.TID 0000.0001) // End MONITOR Land statistics
(PID.TID 0000.0001) // =======================================================
(PID.TID 0000.0001) // =======================================================
(PID.TID 0000.0001) // Begin MONITOR Therm.SeaIce statistics
(PID.TID 0000.0001) // =======================================================
(PID.TID 0000.0001) %MON thSI_time_sec                =   1.7100000000000E+04
(PID.TID 0000.0001) %MON thSI_Ice_Area_G              =   1.8624688633264E+11
(PID.TID 0000.0001) %MON thSI_Ice_Area_S              =   0.0000000000000E+00
(PID.TID 0000.0001) %MON thSI_Ice_Area_N              =   1.8624688633264E+11
(PID.TID 0000.0001) %MON thSI_IceH_ave_G              =   1.3840631710904E-01
(PID.TID 0000.0001) %MON thSI_IceH_ave_S              =   0.0000000000000E+00
(PID.TID 0000.0001) %MON thSI_IceH_ave_N              =   1.3840631710904E-01
(PID.TID 0000.0001) %MON thSI_IceH_max_S              =   0.0000000000000E+00
(PID.TID 0000.0001) %MON thSI_IceH_max_N              =   1.5012113325414E-01
(PID.TID 0000.0001) %MON thSI_SnwH_ave_G              =   0.0000000000000E+00
(PID.TID 0000.0001) %MON thSI_SnwH_ave_S              =   0.0000000000000E+00
(PID.TID 0000.0001) %MON thSI_SnwH_ave_N              =   0.0000000000000E+00
(PID.TID 0000.0001) %MON thSI_SnwH_max_S              =   0.0000000000000E+00
(PID.TID 0000.0001) %MON thSI_SnwH_max_N              =   0.0000000000000E+00
(PID.TID 0000.0001) %MON thSI_TotEnerg_G              =  -7.9746510114481E+18
(PID.TID 0000.0001) %MON thSI_Tsrf_ave_G              =  -9.1173785990964E+00
(PID.TID 0000.0001) %MON thSI_Tsrf_ave_S              =   0.0000000000000E+00
(PID.TID 0000.0001) %MON thSI_Tsrf_ave_N              =  -9.1173785990964E+00
(PID.TID 0000.0001) %MON thSI_Tsrf_min_S              =   0.0000000000000E+00
(PID.TID 0000.0001) %MON thSI_Tsrf_min_N              =  -9.6554336130149E+00
(PID.TID 0000.0001) %MON thSI_Tsrf_max_S              =   0.0000000000000E+00
(PID.TID 0000.0001) %MON thSI_Tsrf_max_N              =  -4.7942326322497E+00
(PID.TID 0000.0001) %MON thSI_Tic1_ave_G              =  -7.0758319045098E+00
(PID.TID 0000.0001) %MON thSI_Tic1_ave_S              =   0.0000000000000E+00
(PID.TID 0000.0001) %MON thSI_Tic1_ave_N              =  -7.0758319045098E+00
(PID.TID 0000.0001) %MON thSI_Tic1_min_S              =   0.0000000000000E+00
(PID.TID 0000.0001) %MON thSI_Tic1_min_N              =  -7.4027133978732E+00
(PID.TID 0000.0001) %MON thSI_Tic1_max_S              =   0.0000000000000E+00
(PID.TID 0000.0001) %MON thSI_Tic1_max_N              =  -2.8590255658786E+00
(PID.TID 0000.0001) %MON thSI_Tic2_ave_G              =  -3.3956907922625E+00
(PID.TID 0000.0001) %MON thSI_Tic2_ave_S              =   0.0000000000000E+00
(PID.TID 0000.0001) %MON thSI_Tic2_ave_N              =  -3.3956907922625E+00
(PID.TID 0000.0001) %MON thSI_Tic2_min_S              =   0.0000000000000E+00
(PID.TID 0000.0001) %MON thSI_Tic2_min_N              =  -3.5193480349378E+00
(PID.TID 0000.0001) %MON thSI_Tic2_max_S              =   0.0000000000000E+00
(PID.TID 0000.0001) %MON thSI_Tic2_max_N              =  -1.9352253392395E+00
(PID.TID 0000.0001) // =======================================================
(PID.TID 0000.0001) // End MONITOR Therm.SeaIce statistics
(PID.TID 0000.0001) // =======================================================
 cg2d: Sum(rhs),rhsMax =  -1.39698386192322E-09  1.72288968430896E+04
(PID.TID 0000.0001)                    cg2d_init_res =    9.50955026475162E+03
(PID.TID 0000.0001)                       cg2d_iters =    16
(PID.TID 0000.0001)                         cg2d_res =    5.34383539425387E-11
(PID.TID 0000.0001) // =======================================================
(PID.TID 0000.0001) // Begin MONITOR dynamic field statistics
(PID.TID 0000.0001) // =======================================================
(PID.TID 0000.0001) %MON time_tsnumber                =                    39
(PID.TID 0000.0001) %MON time_secondsf                =   1.7550000000000E+04
(PID.TID 0000.0001) %MON dynstat_eta_max              =   3.0659628807826E+03
(PID.TID 0000.0001) %MON dynstat_eta_min              =  -9.4425771070290E+02
(PID.TID 0000.0001) %MON dynstat_eta_mean             =  -1.0282084979850E-13
(PID.TID 0000.0001) %MON dynstat_eta_sd               =   4.2491801528556E+02
(PID.TID 0000.0001) %MON dynstat_eta_del2             =   3.6354997195169E+01
(PID.TID 0000.0001) %MON dynstat_uvel_max             =   4.4515930642089E+00
(PID.TID 0000.0001) %MON dynstat_uvel_min             =  -3.3608260808812E+00
(PID.TID 0000.0001) %MON dynstat_uvel_mean            =   9.6818356999391E-02
(PID.TID 0000.0001) %MON dynstat_uvel_sd              =   7.2198310926069E-01
(PID.TID 0000.0001) %MON dynstat_uvel_del2            =   3.3802048310321E-02
(PID.TID 0000.0001) %MON dynstat_vvel_max             =   3.7149516724388E+00
(PID.TID 0000.0001) %MON dynstat_vvel_min             =  -4.1080821395697E+00
(PID.TID 0000.0001) %MON dynstat_vvel_mean            =   2.9404161985564E-02
(PID.TID 0000.0001) %MON dynstat_vvel_sd              =   7.4944909281259E-01
(PID.TID 0000.0001) %MON dynstat_vvel_del2            =   3.3385274427498E-02
(PID.TID 0000.0001) %MON dynstat_wvel_max             =   1.1365738856246E-01
(PID.TID 0000.0001) %MON dynstat_wvel_min             =  -1.0154027429252E-01
(PID.TID 0000.0001) %MON dynstat_wvel_mean            =   1.9835225794955E-04
(PID.TID 0000.0001) %MON dynstat_wvel_sd              =   9.0615876070632E-03
(PID.TID 0000.0001) %MON dynstat_wvel_del2            =   2.2670182399093E-03
(PID.TID 0000.0001) %MON dynstat_theta_max            =   4.3844763401526E+02
(PID.TID 0000.0001) %MON dynstat_theta_min            =   2.8066094884845E+02
(PID.TID 0000.0001) %MON dynstat_theta_mean           =   3.3165391923956E+02
(PID.TID 0000.0001) %MON dynstat_theta_sd             =   4.7482432948928E+01
(PID.TID 0000.0001) %MON dynstat_theta_del2           =   3.8438975082931E-02
(PID.TID 0000.0001) %MON dynstat_salt_max             =   5.0204463938243E+00
(PID.TID 0000.0001) %MON dynstat_salt_min             =  -4.4248344811020E-02
(PID.TID 0000.0001) %MON dynstat_salt_mean            =   1.3682392553360E-01
(PID.TID 0000.0001) %MON dynstat_salt_sd              =   5.1643437858329E-01
(PID.TID 0000.0001) %MON dynstat_salt_del2            =   1.5300464707302E-02
(PID.TID 0000.0001) %MON advcfl_uvel_max              =   6.6903488908325E-03
(PID.TID 0000.0001) %MON advcfl_vvel_max              =   6.8289295294564E-03
(PID.TID 0000.0001) %MON advcfl_wvel_max              =   2.9226185630347E-03
(PID.TID 0000.0001) %MON advcfl_W_hf_max              =   2.3023369849553E-02
(PID.TID 0000.0001) %MON pe_b_mean                    =  -1.1678174786758E+00
(PID.TID 0000.0001) %MON ke_max                       =   9.0740950353538E+00
(PID.TID 0000.0001) %MON ke_mean                      =   5.4330493476022E-01
(PID.TID 0000.0001) %MON ke_vol                       =   4.9523908919847E+19
(PID.TID 0000.0001) %MON vort_r_min                   =  -1.5254887604076E-05
(PID.TID 0000.0001) %MON vort_r_max                   =   1.7477850370976E-05
(PID.TID 0000.0001) %MON vort_a_mean                  =   6.7059142262001E-08
(PID.TID 0000.0001) %MON vort_a_sd                    =   8.3791530338998E-05
(PID.TID 0000.0001) %MON vort_p_mean                  =   6.8751174030126E-08
(PID.TID 0000.0001) %MON vort_p_sd                    =   9.1364492599685E-05
(PID.TID 0000.0001) %MON surfExpan_theta_mean         =  -1.9027021701990E-02
(PID.TID 0000.0001) %MON surfExpan_salt_mean          =  -1.8306761347983E-03
(PID.TID 0000.0001) %MON surfExpan_Heat_mean          =   1.4178772691886E+00
(PID.TID 0000.0001) %MON En_Budget_T2PE_mean          =  -2.8618059002306E+00
(PID.TID 0000.0001) // =======================================================
(PID.TID 0000.0001) // End MONITOR dynamic field statistics
(PID.TID 0000.0001) // =======================================================
(PID.TID 0000.0001) // =======================================================
(PID.TID 0000.0001) // Begin MONITOR Land statistics
(PID.TID 0000.0001) // =======================================================
(PID.TID 0000.0001) %MON land_time_sec                =   1.7550000000000E+04
(PID.TID 0000.0001) %MON land_SnwH_ave_G              =   1.5321052866666E-01
(PID.TID 0000.0001) %MON land_SnwH_ave_S              =   5.5902924130343E-01
(PID.TID 0000.0001) %MON land_SnwH_ave_T              =   0.0000000000000E+00
(PID.TID 0000.0001) %MON land_SnwH_ave_N              =   1.2387489617871E-01
(PID.TID 0000.0001) %MON land_SnwH_max_S              =   9.9997849705643E-01
(PID.TID 0000.0001) %MON land_SnwH_max_T              =   0.0000000000000E+00
(PID.TID 0000.0001) %MON land_SnwH_max_N              =   9.9999744497650E-01
(PID.TID 0000.0001) %MON land_TotEnerg_G              =  -6.3658379241422E+21
(PID.TID 0000.0001) %MON land_TotEnerg_S              =  -5.0024554401952E+21
(PID.TID 0000.0001) %MON land_TotEnerg_T              =   7.2710210222398E+21
(PID.TID 0000.0001) %MON land_TotEnerg_N              =  -8.6344035061867E+21
(PID.TID 0000.0001) %MON land_Tsrf_ave_G              =  -8.7148725205860E+00
(PID.TID 0000.0001) %MON land_Tsrf_ave_S              =  -7.3474107753346E+00
(PID.TID 0000.0001) %MON land_Tsrf_ave_T              =   9.5843584559185E+00
(PID.TID 0000.0001) %MON land_Tsrf_ave_N              =  -2.1378157053604E+01
(PID.TID 0000.0001) %MON land_Tsrf_min_S              =  -3.3368139425591E+01
(PID.TID 0000.0001) %MON land_Tsrf_min_T              =  -3.2359534050335E+00
(PID.TID 0000.0001) %MON land_Tsrf_min_N              =  -5.1976928365708E+01
(PID.TID 0000.0001) %MON land_Tsrf_max_S              =   1.9932422734901E+01
(PID.TID 0000.0001) %MON land_Tsrf_max_T              =   1.9640948494298E+01
(PID.TID 0000.0001) %MON land_Tsrf_max_N              =   7.4034960211491E+00
(PID.TID 0000.0001) %MON land_Tgr1_ave_G              =  -7.5521374267488E+00
(PID.TID 0000.0001) %MON land_Tgr1_ave_S              =  -7.3188010785924E+00
(PID.TID 0000.0001) %MON land_Tgr1_ave_T              =   9.5843584559185E+00
(PID.TID 0000.0001) %MON land_Tgr1_ave_N              =  -1.9071078291074E+01
(PID.TID 0000.0001) %MON land_Tgr1_min_S              =  -3.9423860681652E+01
(PID.TID 0000.0001) %MON land_Tgr1_min_T              =  -3.2359534050335E+00
(PID.TID 0000.0001) %MON land_Tgr1_min_N              =  -5.4521693682199E+01
(PID.TID 0000.0001) %MON land_Tgr1_max_S              =   1.9932422734901E+01
(PID.TID 0000.0001) %MON land_Tgr1_max_T              =   1.9640948494298E+01
(PID.TID 0000.0001) %MON land_Tgr1_max_N              =   7.4034960211491E+00
(PID.TID 0000.0001) %MON land_Tgr2_ave_G              =   4.2012501848189E+00
(PID.TID 0000.0001) %MON land_Tgr2_ave_S              =  -1.8723962431567E+01
(PID.TID 0000.0001) %MON land_Tgr2_ave_T              =   2.2006687116833E+01
(PID.TID 0000.0001) %MON land_Tgr2_ave_N              =  -2.5189766220531E-01
(PID.TID 0000.0001) %MON land_Tgr2_min_S              =  -6.4745505005507E+01
(PID.TID 0000.0001) %MON land_Tgr2_min_T              =  -9.7025385791722E+00
(PID.TID 0000.0001) %MON land_Tgr2_min_N              =  -4.0202853144605E+01
(PID.TID 0000.0001) %MON land_Tgr2_max_S              =   2.3359014445095E+01
(PID.TID 0000.0001) %MON land_Tgr2_max_T              =   3.1345541422641E+01
(PID.TID 0000.0001) %MON land_Tgr2_max_N              =   2.9813837344597E+01
(PID.TID 0000.0001) %MON land_grdW_ave_G              =   4.8665667069121E-01
(PID.TID 0000.0001) %MON land_grdW_ave_S              =   3.0842106718576E-01
(PID.TID 0000.0001) %MON land_grdW_ave_T              =   5.6393629091483E-01
(PID.TID 0000.0001) %MON land_grdW_ave_N              =   4.9287015683115E-01
(PID.TID 0000.0001) %MON land_grdW_min_S              =   2.8697510766181E-02
(PID.TID 0000.0001) %MON land_grdW_min_T              =   0.0000000000000E+00
(PID.TID 0000.0001) %MON land_grdW_min_N              =   0.0000000000000E+00
(PID.TID 0000.0001) // =======================================================
(PID.TID 0000.0001) // End MONITOR Land statistics
(PID.TID 0000.0001) // =======================================================
(PID.TID 0000.0001) // =======================================================
(PID.TID 0000.0001) // Begin MONITOR Therm.SeaIce statistics
(PID.TID 0000.0001) // =======================================================
(PID.TID 0000.0001) %MON thSI_time_sec                =   1.7550000000000E+04
(PID.TID 0000.0001) %MON thSI_Ice_Area_G              =   1.8826377948476E+11
(PID.TID 0000.0001) %MON thSI_Ice_Area_S              =   0.0000000000000E+00
(PID.TID 0000.0001) %MON thSI_Ice_Area_N              =   1.8826377948476E+11
(PID.TID 0000.0001) %MON thSI_IceH_ave_G              =   1.3828485326667E-01
(PID.TID 0000.0001) %MON thSI_IceH_ave_S              =   0.0000000000000E+00
(PID.TID 0000.0001) %MON thSI_IceH_ave_N              =   1.3828485326667E-01
(PID.TID 0000.0001) %MON thSI_IceH_max_S              =   0.0000000000000E+00
(PID.TID 0000.0001) %MON thSI_IceH_max_N              =   1.5026241049142E-01
(PID.TID 0000.0001) %MON thSI_SnwH_ave_G              =   0.0000000000000E+00
(PID.TID 0000.0001) %MON thSI_SnwH_ave_S              =   0.0000000000000E+00
(PID.TID 0000.0001) %MON thSI_SnwH_ave_N              =   0.0000000000000E+00
(PID.TID 0000.0001) %MON thSI_SnwH_max_S              =   0.0000000000000E+00
(PID.TID 0000.0001) %MON thSI_SnwH_max_N              =   0.0000000000000E+00
(PID.TID 0000.0001) %MON thSI_TotEnerg_G              =  -8.0543609280469E+18
(PID.TID 0000.0001) %MON thSI_Tsrf_ave_G              =  -9.1072500330998E+00
(PID.TID 0000.0001) %MON thSI_Tsrf_ave_S              =   0.0000000000000E+00
(PID.TID 0000.0001) %MON thSI_Tsrf_ave_N              =  -9.1072500330998E+00
(PID.TID 0000.0001) %MON thSI_Tsrf_min_S              =   0.0000000000000E+00
(PID.TID 0000.0001) %MON thSI_Tsrf_min_N              =  -9.6801389305842E+00
(PID.TID 0000.0001) %MON thSI_Tsrf_max_S              =   0.0000000000000E+00
(PID.TID 0000.0001) %MON thSI_Tsrf_max_N              =  -5.0357400124878E+00
(PID.TID 0000.0001) %MON thSI_Tic1_ave_G              =  -7.0831466538130E+00
(PID.TID 0000.0001) %MON thSI_Tic1_ave_S              =   0.0000000000000E+00
(PID.TID 0000.0001) %MON thSI_Tic1_ave_N              =  -7.0831466538130E+00
(PID.TID 0000.0001) %MON thSI_Tic1_min_S              =   0.0000000000000E+00
(PID.TID 0000.0001) %MON thSI_Tic1_min_N              =  -7.4370875457623E+00
(PID.TID 0000.0001) %MON thSI_Tic1_max_S              =   0.0000000000000E+00
(PID.TID 0000.0001) %MON thSI_Tic1_max_N              =  -3.1127317656646E+00
(PID.TID 0000.0001) %MON thSI_Tic2_ave_G              =  -3.4013511643241E+00
(PID.TID 0000.0001) %MON thSI_Tic2_ave_S              =   0.0000000000000E+00
(PID.TID 0000.0001) %MON thSI_Tic2_ave_N              =  -3.4013511643241E+00
(PID.TID 0000.0001) %MON thSI_Tic2_min_S              =   0.0000000000000E+00
(PID.TID 0000.0001) %MON thSI_Tic2_min_N              =  -3.5349681089176E+00
(PID.TID 0000.0001) %MON thSI_Tic2_max_S              =   0.0000000000000E+00
(PID.TID 0000.0001) %MON thSI_Tic2_max_N              =  -2.0074173857804E+00
(PID.TID 0000.0001) // =======================================================
(PID.TID 0000.0001) // End MONITOR Therm.SeaIce statistics
(PID.TID 0000.0001) // =======================================================
 cg2d: Sum(rhs),rhsMax =   4.65661287307739E-10  1.72843361990233E+04
(PID.TID 0000.0001)                    cg2d_init_res =    9.37788377018714E+03
(PID.TID 0000.0001)                       cg2d_iters =    16
(PID.TID 0000.0001)                         cg2d_res =    5.38453449571992E-11
(PID.TID 0000.0001) // =======================================================
(PID.TID 0000.0001) // Begin MONITOR dynamic field statistics
(PID.TID 0000.0001) // =======================================================
(PID.TID 0000.0001) %MON time_tsnumber                =                    40
(PID.TID 0000.0001) %MON time_secondsf                =   1.8000000000000E+04
(PID.TID 0000.0001) %MON dynstat_eta_max              =   3.0804524550258E+03
(PID.TID 0000.0001) %MON dynstat_eta_min              =  -9.8031102458530E+02
(PID.TID 0000.0001) %MON dynstat_eta_mean             =   3.2131515562031E-14
(PID.TID 0000.0001) %MON dynstat_eta_sd               =   4.2468007569842E+02
(PID.TID 0000.0001) %MON dynstat_eta_del2             =   3.6336114101220E+01
(PID.TID 0000.0001) %MON dynstat_uvel_max             =   4.5860665597985E+00
(PID.TID 0000.0001) %MON dynstat_uvel_min             =  -3.2757734458169E+00
(PID.TID 0000.0001) %MON dynstat_uvel_mean            =   1.0121496413674E-01
(PID.TID 0000.0001) %MON dynstat_uvel_sd              =   7.1325840972106E-01
(PID.TID 0000.0001) %MON dynstat_uvel_del2            =   3.4613965405351E-02
(PID.TID 0000.0001) %MON dynstat_vvel_max             =   3.6428306828820E+00
(PID.TID 0000.0001) %MON dynstat_vvel_min             =  -4.1179393480329E+00
(PID.TID 0000.0001) %MON dynstat_vvel_mean            =   3.2216934465702E-02
(PID.TID 0000.0001) %MON dynstat_vvel_sd              =   7.4068037966013E-01
(PID.TID 0000.0001) %MON dynstat_vvel_del2            =   3.4228640484335E-02
(PID.TID 0000.0001) %MON dynstat_wvel_max             =   1.1757161350128E-01
(PID.TID 0000.0001) %MON dynstat_wvel_min             =  -1.0423565093738E-01
(PID.TID 0000.0001) %MON dynstat_wvel_mean            =   1.6093675038533E-04
(PID.TID 0000.0001) %MON dynstat_wvel_sd              =   9.1060057204376E-03
(PID.TID 0000.0001) %MON dynstat_wvel_del2            =   2.3200195047346E-03
(PID.TID 0000.0001) %MON dynstat_theta_max            =   4.3848473525464E+02
(PID.TID 0000.0001) %MON dynstat_theta_min            =   2.8044852132895E+02
(PID.TID 0000.0001) %MON dynstat_theta_mean           =   3.3165152545789E+02
(PID.TID 0000.0001) %MON dynstat_theta_sd             =   4.7484595392990E+01
(PID.TID 0000.0001) %MON dynstat_theta_del2           =   3.9298513198745E-02
(PID.TID 0000.0001) %MON dynstat_salt_max             =   5.0472794390600E+00
(PID.TID 0000.0001) %MON dynstat_salt_min             =  -4.6939634329437E-02
(PID.TID 0000.0001) %MON dynstat_salt_mean            =   1.4005284652479E-01
(PID.TID 0000.0001) %MON dynstat_salt_sd              =   5.2703591347350E-01
(PID.TID 0000.0001) %MON dynstat_salt_del2            =   1.5604078108010E-02
(PID.TID 0000.0001) %MON advcfl_uvel_max              =   6.9749072123091E-03
(PID.TID 0000.0001) %MON advcfl_vvel_max              =   6.2217831098446E-03
(PID.TID 0000.0001) %MON advcfl_wvel_max              =   3.0232700614615E-03
(PID.TID 0000.0001) %MON advcfl_W_hf_max              =   2.4044172783187E-02
(PID.TID 0000.0001) %MON pe_b_mean                    =  -1.1599676538264E+00
(PID.TID 0000.0001) %MON ke_max                       =   8.9646127189835E+00
(PID.TID 0000.0001) %MON ke_mean                      =   5.3110615070927E-01
(PID.TID 0000.0001) %MON ke_vol                       =   4.9523908919847E+19
(PID.TID 0000.0001) %MON vort_r_min                   =  -1.6183383306081E-05
(PID.TID 0000.0001) %MON vort_r_max                   =   1.8091460576906E-05
(PID.TID 0000.0001) %MON vort_a_mean                  =   6.7059142262011E-08
(PID.TID 0000.0001) %MON vort_a_sd                    =   8.3792947853028E-05
(PID.TID 0000.0001) %MON vort_p_mean                  =   6.8751172851051E-08
(PID.TID 0000.0001) %MON vort_p_sd                    =   9.1358629706688E-05
(PID.TID 0000.0001) %MON surfExpan_theta_mean         =  -1.5456304636569E-02
(PID.TID 0000.0001) %MON surfExpan_salt_mean          =  -1.8021082225548E-03
(PID.TID 0000.0001) %MON surfExpan_Heat_mean          =   1.1250474951335E+00
(PID.TID 0000.0001) %MON En_Budget_T2PE_mean          =  -2.3032644525731E+00
(PID.TID 0000.0001) // =======================================================
(PID.TID 0000.0001) // End MONITOR dynamic field statistics
(PID.TID 0000.0001) // =======================================================
(PID.TID 0000.0001) // =======================================================
(PID.TID 0000.0001) // Begin MONITOR Land statistics
(PID.TID 0000.0001) // =======================================================
(PID.TID 0000.0001) %MON land_time_sec                =   1.8000000000000E+04
(PID.TID 0000.0001) %MON land_SnwH_ave_G              =   1.5320961364162E-01
(PID.TID 0000.0001) %MON land_SnwH_ave_S              =   5.5902840910908E-01
(PID.TID 0000.0001) %MON land_SnwH_ave_T              =   0.0000000000000E+00
(PID.TID 0000.0001) %MON land_SnwH_ave_N              =   1.2387334325709E-01
(PID.TID 0000.0001) %MON land_SnwH_max_S              =   9.9997791923505E-01
(PID.TID 0000.0001) %MON land_SnwH_max_T              =   0.0000000000000E+00
(PID.TID 0000.0001) %MON land_SnwH_max_N              =   9.9999738065073E-01
(PID.TID 0000.0001) %MON land_TotEnerg_G              =  -6.3665737056247E+21
(PID.TID 0000.0001) %MON land_TotEnerg_S              =  -5.0024422889816E+21
(PID.TID 0000.0001) %MON land_TotEnerg_T              =   7.2707444282748E+21
(PID.TID 0000.0001) %MON land_TotEnerg_N              =  -8.6348758449178E+21
(PID.TID 0000.0001) %MON land_Tsrf_ave_G              =  -8.7240493291977E+00
(PID.TID 0000.0001) %MON land_Tsrf_ave_S              =  -7.3281919271916E+00
(PID.TID 0000.0001) %MON land_Tsrf_ave_T              =   9.5584231897787E+00
(PID.TID 0000.0001) %MON land_Tsrf_ave_N              =  -2.1385354435170E+01
(PID.TID 0000.0001) %MON land_Tsrf_min_S              =  -3.3333777636724E+01
(PID.TID 0000.0001) %MON land_Tsrf_min_T              =  -3.3723743736692E+00
(PID.TID 0000.0001) %MON land_Tsrf_min_N              =  -5.1969627418970E+01
(PID.TID 0000.0001) %MON land_Tsrf_max_S              =   1.9931771874471E+01
(PID.TID 0000.0001) %MON land_Tsrf_max_T              =   1.9620834084953E+01
(PID.TID 0000.0001) %MON land_Tsrf_max_N              =   7.3699056607864E+00
(PID.TID 0000.0001) %MON land_Tgr1_ave_G              =  -7.5672316726695E+00
(PID.TID 0000.0001) %MON land_Tgr1_ave_S              =  -7.3212645496493E+00
(PID.TID 0000.0001) %MON land_Tgr1_ave_T              =   9.5584231897787E+00
(PID.TID 0000.0001) %MON land_Tgr1_ave_N              =  -1.9083030568926E+01
(PID.TID 0000.0001) %MON land_Tgr1_min_S              =  -3.9434187477010E+01
(PID.TID 0000.0001) %MON land_Tgr1_min_T              =  -3.3723743736692E+00
(PID.TID 0000.0001) %MON land_Tgr1_min_N              =  -5.4509439045576E+01
(PID.TID 0000.0001) %MON land_Tgr1_max_S              =   1.9931771874471E+01
(PID.TID 0000.0001) %MON land_Tgr1_max_T              =   1.9620834084953E+01
(PID.TID 0000.0001) %MON land_Tgr1_max_N              =   7.3699056607864E+00
(PID.TID 0000.0001) %MON land_Tgr2_ave_G              =   4.2010707136638E+00
(PID.TID 0000.0001) %MON land_Tgr2_ave_S              =  -1.8723771154926E+01
(PID.TID 0000.0001) %MON land_Tgr2_ave_T              =   2.2006488045053E+01
(PID.TID 0000.0001) %MON land_Tgr2_ave_N              =  -2.5218431296531E-01
(PID.TID 0000.0001) %MON land_Tgr2_min_S              =  -6.4745078584595E+01
(PID.TID 0000.0001) %MON land_Tgr2_min_T              =  -9.7024441916794E+00
(PID.TID 0000.0001) %MON land_Tgr2_min_N              =  -4.0203085217927E+01
(PID.TID 0000.0001) %MON land_Tgr2_max_S              =   2.3358937764191E+01
(PID.TID 0000.0001) %MON land_Tgr2_max_T              =   3.1345085692362E+01
(PID.TID 0000.0001) %MON land_Tgr2_max_N              =   2.9813254923477E+01
(PID.TID 0000.0001) %MON land_grdW_ave_G              =   4.8664972292511E-01
(PID.TID 0000.0001) %MON land_grdW_ave_S              =   3.0841385636847E-01
(PID.TID 0000.0001) %MON land_grdW_ave_T              =   5.6391951025479E-01
(PID.TID 0000.0001) %MON land_grdW_ave_N              =   4.9286986051465E-01
(PID.TID 0000.0001) %MON land_grdW_min_S              =   2.8778219095206E-02
(PID.TID 0000.0001) %MON land_grdW_min_T              =   0.0000000000000E+00
(PID.TID 0000.0001) %MON land_grdW_min_N              =   0.0000000000000E+00
(PID.TID 0000.0001) // =======================================================
(PID.TID 0000.0001) // End MONITOR Land statistics
(PID.TID 0000.0001) // =======================================================
(PID.TID 0000.0001) // =======================================================
(PID.TID 0000.0001) // Begin MONITOR Therm.SeaIce statistics
(PID.TID 0000.0001) // =======================================================
(PID.TID 0000.0001) %MON thSI_time_sec                =   1.8000000000000E+04
(PID.TID 0000.0001) %MON thSI_Ice_Area_G              =   1.9023545338663E+11
(PID.TID 0000.0001) %MON thSI_Ice_Area_S              =   0.0000000000000E+00
(PID.TID 0000.0001) %MON thSI_Ice_Area_N              =   1.9023545338663E+11
(PID.TID 0000.0001) %MON thSI_IceH_ave_G              =   1.3819884516398E-01
(PID.TID 0000.0001) %MON thSI_IceH_ave_S              =   0.0000000000000E+00
(PID.TID 0000.0001) %MON thSI_IceH_ave_N              =   1.3819884516398E-01
(PID.TID 0000.0001) %MON thSI_IceH_max_S              =   0.0000000000000E+00
(PID.TID 0000.0001) %MON thSI_IceH_max_N              =   1.5040491037261E-01
(PID.TID 0000.0001) %MON thSI_SnwH_ave_G              =   0.0000000000000E+00
(PID.TID 0000.0001) %MON thSI_SnwH_ave_S              =   0.0000000000000E+00
(PID.TID 0000.0001) %MON thSI_SnwH_ave_N              =   0.0000000000000E+00
(PID.TID 0000.0001) %MON thSI_SnwH_max_S              =   0.0000000000000E+00
(PID.TID 0000.0001) %MON thSI_SnwH_max_N              =   0.0000000000000E+00
(PID.TID 0000.0001) %MON thSI_TotEnerg_G              =  -8.1341259498785E+18
(PID.TID 0000.0001) %MON thSI_Tsrf_ave_G              =  -9.1004017990685E+00
(PID.TID 0000.0001) %MON thSI_Tsrf_ave_S              =   0.0000000000000E+00
(PID.TID 0000.0001) %MON thSI_Tsrf_ave_N              =  -9.1004017990685E+00
(PID.TID 0000.0001) %MON thSI_Tsrf_min_S              =   0.0000000000000E+00
(PID.TID 0000.0001) %MON thSI_Tsrf_min_N              =  -9.7019599097389E+00
(PID.TID 0000.0001) %MON thSI_Tsrf_max_S              =   0.0000000000000E+00
(PID.TID 0000.0001) %MON thSI_Tsrf_max_N              =  -5.2714701790141E+00
(PID.TID 0000.0001) %MON thSI_Tic1_ave_G              =  -7.0914913966899E+00
(PID.TID 0000.0001) %MON thSI_Tic1_ave_S              =   0.0000000000000E+00
(PID.TID 0000.0001) %MON thSI_Tic1_ave_N              =  -7.0914913966899E+00
(PID.TID 0000.0001) %MON thSI_Tic1_min_S              =   0.0000000000000E+00
(PID.TID 0000.0001) %MON thSI_Tic1_min_N              =  -7.4682030767499E+00
(PID.TID 0000.0001) %MON thSI_Tic1_max_S              =   0.0000000000000E+00
(PID.TID 0000.0001) %MON thSI_Tic1_max_N              =  -3.3600180418877E+00
(PID.TID 0000.0001) %MON thSI_Tic2_ave_G              =  -3.4070355300235E+00
(PID.TID 0000.0001) %MON thSI_Tic2_ave_S              =   0.0000000000000E+00
(PID.TID 0000.0001) %MON thSI_Tic2_ave_N              =  -3.4070355300235E+00
(PID.TID 0000.0001) %MON thSI_Tic2_min_S              =   0.0000000000000E+00
(PID.TID 0000.0001) %MON thSI_Tic2_min_N              =  -3.5491973823501E+00
(PID.TID 0000.0001) %MON thSI_Tic2_max_S              =   0.0000000000000E+00
(PID.TID 0000.0001) %MON thSI_Tic2_max_N              =  -2.0808020370981E+00
(PID.TID 0000.0001) // =======================================================
(PID.TID 0000.0001) // End MONITOR Therm.SeaIce statistics
(PID.TID 0000.0001) // =======================================================
(PID.TID 0000.0001) %CHECKPOINT        40 ckptA
(PID.TID 0000.0001)   Seconds in section "ALL                    [THE_MODEL_MAIN]":
(PID.TID 0000.0001)           User time:   56.2000012211502
(PID.TID 0000.0001)         System time:  0.500000011175871
(PID.TID 0000.0001)     Wall clock time:   64.9532408714294
(PID.TID 0000.0001)          No. starts:           1
(PID.TID 0000.0001)           No. stops:           1
(PID.TID 0000.0001)   Seconds in section "INITIALISE_FIXED       [THE_MODEL_MAIN]":
(PID.TID 0000.0001)           User time:   4.32000015303493
(PID.TID 0000.0001)         System time:  0.339999984949827
(PID.TID 0000.0001)     Wall clock time:   9.72585391998291
(PID.TID 0000.0001)          No. starts:           1
(PID.TID 0000.0001)           No. stops:           1
(PID.TID 0000.0001)   Seconds in section "THE_MAIN_LOOP          [THE_MODEL_MAIN]":
(PID.TID 0000.0001)           User time:   51.7599983215332
(PID.TID 0000.0001)         System time:  0.139999985694885
(PID.TID 0000.0001)     Wall clock time:   54.4091870784760
(PID.TID 0000.0001)          No. starts:           1
(PID.TID 0000.0001)           No. stops:           1
(PID.TID 0000.0001)   Seconds in section "INITIALISE_VARIA    [THE_MAIN_LOOP]":
(PID.TID 0000.0001)           User time:  0.210000038146973
(PID.TID 0000.0001)         System time:   3.00000011920929D-002
(PID.TID 0000.0001)     Wall clock time:  0.273100852966309
(PID.TID 0000.0001)          No. starts:           1
(PID.TID 0000.0001)           No. stops:           1
(PID.TID 0000.0001)   Seconds in section "MONITOR             [THE_MAIN_LOOP]":
(PID.TID 0000.0001)           User time:  0.179999828338623
(PID.TID 0000.0001)         System time:   0.00000000000000D+000
(PID.TID 0000.0001)     Wall clock time:  0.182172060012817
(PID.TID 0000.0001)          No. starts:           1
(PID.TID 0000.0001)           No. stops:           1
(PID.TID 0000.0001)   Seconds in section "DO_THE_MODEL_IO     [THE_MAIN_LOOP]":
(PID.TID 0000.0001)           User time:  0.369999885559082
(PID.TID 0000.0001)         System time:   5.00000119209290D-002
(PID.TID 0000.0001)     Wall clock time:   1.99680089950562
(PID.TID 0000.0001)          No. starts:           1
(PID.TID 0000.0001)           No. stops:           1
(PID.TID 0000.0001)   Seconds in section "MAIN LOOP           [THE_MAIN_LOOP]":
(PID.TID 0000.0001)           User time:   50.9999985694885
(PID.TID 0000.0001)         System time:   5.99999725818634D-002
(PID.TID 0000.0001)     Wall clock time:   51.9569890499115
(PID.TID 0000.0001)          No. starts:           1
(PID.TID 0000.0001)           No. stops:           1
(PID.TID 0000.0001)   Seconds in section "FORWARD_STEP        [THE_MAIN_LOOP]":
(PID.TID 0000.0001)           User time:   50.9999985694885
(PID.TID 0000.0001)         System time:   5.99999725818634D-002
(PID.TID 0000.0001)     Wall clock time:   51.9561712741852
(PID.TID 0000.0001)          No. starts:          40
(PID.TID 0000.0001)           No. stops:          40
(PID.TID 0000.0001)   Seconds in section "EXTERNAL_FIELDS_LOAD[FORWARD_STEP]":
(PID.TID 0000.0001)           User time:   3.99999618530273D-002
(PID.TID 0000.0001)         System time:   9.99999046325684D-003
(PID.TID 0000.0001)     Wall clock time:  0.176948308944702
(PID.TID 0000.0001)          No. starts:          40
(PID.TID 0000.0001)           No. stops:          40
(PID.TID 0000.0001)   Seconds in section "CPL_EXPORT-IMPORT  [FORWARD_STEP]":
(PID.TID 0000.0001)           User time:   3.36000108718872
(PID.TID 0000.0001)         System time:   0.00000000000000D+000
(PID.TID 0000.0001)     Wall clock time:   3.36495947837830
(PID.TID 0000.0001)          No. starts:          40
(PID.TID 0000.0001)           No. stops:          40
(PID.TID 0000.0001)   Seconds in section "DO_ATMOSPHERIC_PHYS [FORWARD_STEP]":
(PID.TID 0000.0001)           User time:   7.82001399993897
(PID.TID 0000.0001)         System time:   3.00000011920929D-002
(PID.TID 0000.0001)     Wall clock time:   8.10389089584351
(PID.TID 0000.0001)          No. starts:          40
(PID.TID 0000.0001)           No. stops:          40
(PID.TID 0000.0001)   Seconds in section "AIM_DO_PHYSICS [DO_ATMOSPHERIC_PHYS]":
(PID.TID 0000.0001)           User time:   7.67002010345459
(PID.TID 0000.0001)         System time:   2.00000107288361D-002
(PID.TID 0000.0001)     Wall clock time:   7.97501850128174
(PID.TID 0000.0001)          No. starts:         240
(PID.TID 0000.0001)           No. stops:         240
(PID.TID 0000.0001)   Seconds in section "DO_OCEANIC_PHYS     [FORWARD_STEP]":
(PID.TID 0000.0001)           User time:   7.99922943115234D-002
(PID.TID 0000.0001)         System time:   0.00000000000000D+000
(PID.TID 0000.0001)     Wall clock time:   7.20868110656738D-002
(PID.TID 0000.0001)          No. starts:          40
(PID.TID 0000.0001)           No. stops:          40
(PID.TID 0000.0001)   Seconds in section "DYNAMICS            [FORWARD_STEP]":
(PID.TID 0000.0001)           User time:   7.74999427795410
(PID.TID 0000.0001)         System time:   0.00000000000000D+000
(PID.TID 0000.0001)     Wall clock time:   7.78246235847473
(PID.TID 0000.0001)          No. starts:          40
(PID.TID 0000.0001)           No. stops:          40
(PID.TID 0000.0001)   Seconds in section "UPDATE_R_STAR      [FORWARD_STEP]":
(PID.TID 0000.0001)           User time:  0.620008468627930
(PID.TID 0000.0001)         System time:   0.00000000000000D+000
(PID.TID 0000.0001)     Wall clock time:  0.615903139114380
(PID.TID 0000.0001)          No. starts:          40
(PID.TID 0000.0001)           No. stops:          40
(PID.TID 0000.0001)   Seconds in section "UPDATE_CG2D        [FORWARD_STEP]":
(PID.TID 0000.0001)           User time:  0.449991226196289
(PID.TID 0000.0001)         System time:   0.00000000000000D+000
(PID.TID 0000.0001)     Wall clock time:  0.423843383789063
(PID.TID 0000.0001)          No. starts:          40
(PID.TID 0000.0001)           No. stops:          40
(PID.TID 0000.0001)   Seconds in section "SOLVE_FOR_PRESSURE  [FORWARD_STEP]":
(PID.TID 0000.0001)           User time:   4.34000110626221
(PID.TID 0000.0001)         System time:   0.00000000000000D+000
(PID.TID 0000.0001)     Wall clock time:   4.36342501640320
(PID.TID 0000.0001)          No. starts:          40
(PID.TID 0000.0001)           No. stops:          40
(PID.TID 0000.0001)   Seconds in section "UV_CORRECTION_STEP  [FORWARD_STEP]":
(PID.TID 0000.0001)           User time:   5.79000473022461
(PID.TID 0000.0001)         System time:   0.00000000000000D+000
(PID.TID 0000.0001)     Wall clock time:   5.79728245735168
(PID.TID 0000.0001)          No. starts:          40
(PID.TID 0000.0001)           No. stops:          40
(PID.TID 0000.0001)   Seconds in section "UPDATE_ETAH        [FORWARD_STEP]":
(PID.TID 0000.0001)           User time:   2.00004577636719D-002
(PID.TID 0000.0001)         System time:   0.00000000000000D+000
(PID.TID 0000.0001)     Wall clock time:   2.10130214691162D-002
(PID.TID 0000.0001)          No. starts:          40
(PID.TID 0000.0001)           No. stops:          40
(PID.TID 0000.0001)   Seconds in section "CALC_R_STAR       [FORWARD_STEP]":
(PID.TID 0000.0001)           User time:  0.419982910156250
(PID.TID 0000.0001)         System time:   0.00000000000000D+000
(PID.TID 0000.0001)     Wall clock time:  0.422117471694946
(PID.TID 0000.0001)          No. starts:          40
(PID.TID 0000.0001)           No. stops:          40
(PID.TID 0000.0001)   Seconds in section "BLOCKING_EXCHANGES  [FORWARD_STEP]":
(PID.TID 0000.0001)           User time:  0.729996681213379
(PID.TID 0000.0001)         System time:   0.00000000000000D+000
(PID.TID 0000.0001)     Wall clock time:  0.714100122451782
(PID.TID 0000.0001)          No. starts:          80
(PID.TID 0000.0001)           No. stops:          80
(PID.TID 0000.0001)   Seconds in section "THERMODYNAMICS      [FORWARD_STEP]":
(PID.TID 0000.0001)           User time:   4.32999420166016
(PID.TID 0000.0001)         System time:   0.00000000000000D+000
(PID.TID 0000.0001)     Wall clock time:   4.35191440582275
(PID.TID 0000.0001)          No. starts:          40
(PID.TID 0000.0001)           No. stops:          40
(PID.TID 0000.0001)   Seconds in section "TS_CORRECTION_STEP  [FORWARD_STEP]":
(PID.TID 0000.0001)           User time:   4.77001762390137
(PID.TID 0000.0001)         System time:   0.00000000000000D+000
(PID.TID 0000.0001)     Wall clock time:   4.78696560859680
(PID.TID 0000.0001)          No. starts:          40
(PID.TID 0000.0001)           No. stops:          40
(PID.TID 0000.0001)   Seconds in section "DO_STATEVARS_TAVE   [FORWARD_STEP]":
(PID.TID 0000.0001)           User time:   1.99000358581543
(PID.TID 0000.0001)         System time:   0.00000000000000D+000
(PID.TID 0000.0001)     Wall clock time:   1.97403430938721
(PID.TID 0000.0001)          No. starts:          40
(PID.TID 0000.0001)           No. stops:          40
(PID.TID 0000.0001)   Seconds in section "MONITOR             [FORWARD_STEP]":
(PID.TID 0000.0001)           User time:   6.50999450683594
(PID.TID 0000.0001)         System time:   9.99999046325684D-003
(PID.TID 0000.0001)     Wall clock time:   6.54504179954529
(PID.TID 0000.0001)          No. starts:          40
(PID.TID 0000.0001)           No. stops:          40
(PID.TID 0000.0001)   Seconds in section "DO_THE_MODEL_IO     [FORWARD_STEP]":
(PID.TID 0000.0001)           User time:   1.92999935150146
(PID.TID 0000.0001)         System time:   9.99999046325684D-003
(PID.TID 0000.0001)     Wall clock time:   2.41605710983276
(PID.TID 0000.0001)          No. starts:          40
(PID.TID 0000.0001)           No. stops:          40
(PID.TID 0000.0001)   Seconds in section "WRITE_CHECKPOINT    [FORWARD_STEP]":
(PID.TID 0000.0001)           User time:   0.00000000000000D+000
(PID.TID 0000.0001)         System time:   0.00000000000000D+000
(PID.TID 0000.0001)     Wall clock time:   1.02686882019043D-003
(PID.TID 0000.0001)          No. starts:          40
(PID.TID 0000.0001)           No. stops:          40
(PID.TID 0000.0001)   Seconds in section "WRITE_CHECKPOINT       [THE_MODEL_MAIN]":
(PID.TID 0000.0001)           User time:  0.120002746582031
(PID.TID 0000.0001)         System time:   2.00000405311584D-002
(PID.TID 0000.0001)     Wall clock time:  0.818099975585938
(PID.TID 0000.0001)          No. starts:           1
(PID.TID 0000.0001)           No. stops:           1
(PID.TID 0000.0001) // ======================================================
(PID.TID 0000.0001) // Tile <-> Tile communication statistics
(PID.TID 0000.0001) // ======================================================
(PID.TID 0000.0001) // o Tile number: 000001
(PID.TID 0000.0001) //         No. X exchanges =              0
(PID.TID 0000.0001) //            Max. X spins =              0
(PID.TID 0000.0001) //            Min. X spins =     1000000000
(PID.TID 0000.0001) //          Total. X spins =              0
(PID.TID 0000.0001) //            Avg. X spins =       0.00E+00
(PID.TID 0000.0001) //         No. Y exchanges =              0
(PID.TID 0000.0001) //            Max. Y spins =              0
(PID.TID 0000.0001) //            Min. Y spins =     1000000000
(PID.TID 0000.0001) //          Total. Y spins =              0
(PID.TID 0000.0001) //            Avg. Y spins =       0.00E+00
(PID.TID 0000.0001) // o Tile number: 000002
(PID.TID 0000.0001) //         No. X exchanges =              0
(PID.TID 0000.0001) //            Max. X spins =              0
(PID.TID 0000.0001) //            Min. X spins =     1000000000
(PID.TID 0000.0001) //          Total. X spins =              0
(PID.TID 0000.0001) //            Avg. X spins =       0.00E+00
(PID.TID 0000.0001) //         No. Y exchanges =              0
(PID.TID 0000.0001) //            Max. Y spins =              0
(PID.TID 0000.0001) //            Min. Y spins =     1000000000
(PID.TID 0000.0001) //          Total. Y spins =              0
(PID.TID 0000.0001) //            Avg. Y spins =       0.00E+00
(PID.TID 0000.0001) // o Tile number: 000003
(PID.TID 0000.0001) //         No. X exchanges =              0
(PID.TID 0000.0001) //            Max. X spins =              0
(PID.TID 0000.0001) //            Min. X spins =     1000000000
(PID.TID 0000.0001) //          Total. X spins =              0
(PID.TID 0000.0001) //            Avg. X spins =       0.00E+00
(PID.TID 0000.0001) //         No. Y exchanges =              0
(PID.TID 0000.0001) //            Max. Y spins =              0
(PID.TID 0000.0001) //            Min. Y spins =     1000000000
(PID.TID 0000.0001) //          Total. Y spins =              0
(PID.TID 0000.0001) //            Avg. Y spins =       0.00E+00
(PID.TID 0000.0001) // o Tile number: 000004
(PID.TID 0000.0001) //         No. X exchanges =              0
(PID.TID 0000.0001) //            Max. X spins =              0
(PID.TID 0000.0001) //            Min. X spins =     1000000000
(PID.TID 0000.0001) //          Total. X spins =              0
(PID.TID 0000.0001) //            Avg. X spins =       0.00E+00
(PID.TID 0000.0001) //         No. Y exchanges =              0
(PID.TID 0000.0001) //            Max. Y spins =              0
(PID.TID 0000.0001) //            Min. Y spins =     1000000000
(PID.TID 0000.0001) //          Total. Y spins =              0
(PID.TID 0000.0001) //            Avg. Y spins =       0.00E+00
(PID.TID 0000.0001) // o Tile number: 000005
(PID.TID 0000.0001) //         No. X exchanges =              0
(PID.TID 0000.0001) //            Max. X spins =              0
(PID.TID 0000.0001) //            Min. X spins =     1000000000
(PID.TID 0000.0001) //          Total. X spins =              0
(PID.TID 0000.0001) //            Avg. X spins =       0.00E+00
(PID.TID 0000.0001) //         No. Y exchanges =              0
(PID.TID 0000.0001) //            Max. Y spins =              0
(PID.TID 0000.0001) //            Min. Y spins =     1000000000
(PID.TID 0000.0001) //          Total. Y spins =              0
(PID.TID 0000.0001) //            Avg. Y spins =       0.00E+00
(PID.TID 0000.0001) // o Tile number: 000006
(PID.TID 0000.0001) //         No. X exchanges =              0
(PID.TID 0000.0001) //            Max. X spins =              0
(PID.TID 0000.0001) //            Min. X spins =     1000000000
(PID.TID 0000.0001) //          Total. X spins =              0
(PID.TID 0000.0001) //            Avg. X spins =       0.00E+00
(PID.TID 0000.0001) //         No. Y exchanges =              0
(PID.TID 0000.0001) //            Max. Y spins =              0
(PID.TID 0000.0001) //            Min. Y spins =     1000000000
(PID.TID 0000.0001) //          Total. Y spins =              0
(PID.TID 0000.0001) //            Avg. Y spins =       0.00E+00
(PID.TID 0000.0001) // o Thread number: 000001
(PID.TID 0000.0001) //            No. barriers =          55308
(PID.TID 0000.0001) //      Max. barrier spins =              1
(PID.TID 0000.0001) //      Min. barrier spins =              1
(PID.TID 0000.0001) //     Total barrier spins =          55308
(PID.TID 0000.0001) //      Avg. barrier spins =       1.00E+00
