(PID.TID 0000.0001) 
(PID.TID 0000.0001) // ======================================================
(PID.TID 0000.0001) //                      MITgcm UV
(PID.TID 0000.0001) //                      =========
(PID.TID 0000.0001) // ======================================================
(PID.TID 0000.0001) // execution environment starting up...
(PID.TID 0000.0001) 
(PID.TID 0000.0001) // MITgcmUV version:  checkpoint57n_post
(PID.TID 0000.0001) // Build user:        jmc
(PID.TID 0000.0001) // Build host:        faulks
(PID.TID 0000.0001) // Build date:        Fri Jul 29 17:35:47 EDT 2005
(PID.TID 0000.0001) 
(PID.TID 0000.0001) // =======================================================
(PID.TID 0000.0001) // Execution Environment parameter file "eedata"
(PID.TID 0000.0001) // =======================================================
(PID.TID 0000.0001) ># Example "eedata" file
(PID.TID 0000.0001) ># Lines beginning "#" are comments
(PID.TID 0000.0001) ># nTx - No. threads per process in X
(PID.TID 0000.0001) ># nTy - No. threads per process in Y
(PID.TID 0000.0001) > &EEPARMS
(PID.TID 0000.0001) > nTx=1
(PID.TID 0000.0001) > nTy=1
(PID.TID 0000.0001) > &
(PID.TID 0000.0001) ># Note: Some systems use & as the
(PID.TID 0000.0001) ># namelist terminator. Other systems
(PID.TID 0000.0001) ># use a / character (as shown here).
(PID.TID 0000.0001) 
(PID.TID 0000.0001) // =======================================================
(PID.TID 0000.0001) // Computational Grid Specification ( see files "SIZE.h" )
(PID.TID 0000.0001) //                                  ( and "eedata"       )
(PID.TID 0000.0001) // =======================================================
(PID.TID 0000.0001)      nPx =    1 ; /* No. processes in X */
(PID.TID 0000.0001)      nPy =    1 ; /* No. processes in Y */
(PID.TID 0000.0001)      nSx =    2 ; /* No. tiles in X per process */
(PID.TID 0000.0001)      nSy =    1 ; /* No. tiles in Y per process */
(PID.TID 0000.0001)      sNx =   10 ; /* Tile size in X */
(PID.TID 0000.0001)      sNy =   16 ; /* Tile size in Y */
(PID.TID 0000.0001)      OLx =    3 ; /* Tile overlap distance in X */
(PID.TID 0000.0001)      OLy =    3 ; /* Tile overlap distance in Y */
(PID.TID 0000.0001)      nTx =    1 ; /* No. threads in X per process */
(PID.TID 0000.0001)      nTy =    1 ; /* No. threads in Y per process */
(PID.TID 0000.0001)       Nr =   23 ; /* No. levels in the vertical   */
(PID.TID 0000.0001)       nX =   20 ; /* Total domain size in X ( = nPx*nSx*sNx ) */
(PID.TID 0000.0001)       nY =   16 ; /* Total domain size in Y ( = nPy*nSy*sNy ) */
(PID.TID 0000.0001)   nTiles =    2 ; /* Total no. tiles per process ( = nSx*nSy ) */
(PID.TID 0000.0001)   nProcs =    1 ; /* Total no. processes ( = nPx*nPy ) */
(PID.TID 0000.0001) nThreads =    1 ; /* Total no. threads per process ( = nTx*nTy ) */
(PID.TID 0000.0001) usingMPI =    F ; /* Flag used to control whether MPI is in use */
(PID.TID 0000.0001)                   /*  note: To execute a program with MPI calls */
(PID.TID 0000.0001)                   /*  it must be launched appropriately e.g     */
(PID.TID 0000.0001)                   /*  "mpirun -np 64 ......"                    */
(PID.TID 0000.0001) useCoupler=   F ; /* Flag used to control communications with */
(PID.TID 0000.0001)                   /*  other model components, through a coupler */
(PID.TID 0000.0001) 
(PID.TID 0000.0001) // ======================================================
(PID.TID 0000.0001) // Mapping of tiles to threads
(PID.TID 0000.0001) // ======================================================
(PID.TID 0000.0001) // -o- Thread   1, tiles (   1:   2,   1:   1)
(PID.TID 0000.0001) 
(PID.TID 0000.0001) // ======================================================
(PID.TID 0000.0001) // Tile <-> Tile connectvity table
(PID.TID 0000.0001) // ======================================================
(PID.TID 0000.0001) // Tile number: 000001 (process no. = 000001)
(PID.TID 0000.0001) //        WEST: Tile = 000002, Process = 000001, Comm = put
(PID.TID 0000.0001) //                bi = 000002, bj = 000001
(PID.TID 0000.0001) //        EAST: Tile = 000002, Process = 000001, Comm = put
(PID.TID 0000.0001) //                bi = 000002, bj = 000001
(PID.TID 0000.0001) //       SOUTH: Tile = 000001, Process = 000001, Comm = put
(PID.TID 0000.0001) //                bi = 000001, bj = 000001
(PID.TID 0000.0001) //       NORTH: Tile = 000001, Process = 000001, Comm = put
(PID.TID 0000.0001) //                bi = 000001, bj = 000001
(PID.TID 0000.0001) // Tile number: 000002 (process no. = 000001)
(PID.TID 0000.0001) //        WEST: Tile = 000001, Process = 000001, Comm = put
(PID.TID 0000.0001) //                bi = 000001, bj = 000001
(PID.TID 0000.0001) //        EAST: Tile = 000001, Process = 000001, Comm = put
(PID.TID 0000.0001) //                bi = 000001, bj = 000001
(PID.TID 0000.0001) //       SOUTH: Tile = 000002, Process = 000001, Comm = put
(PID.TID 0000.0001) //                bi = 000002, bj = 000001
(PID.TID 0000.0001) //       NORTH: Tile = 000002, Process = 000001, Comm = put
(PID.TID 0000.0001) //                bi = 000002, bj = 000001
(PID.TID 0000.0001) 
(PID.TID 0000.0001) // =======================================================
(PID.TID 0000.0001) // Model parameter file "data"
(PID.TID 0000.0001) // =======================================================
(PID.TID 0000.0001) ># ====================
(PID.TID 0000.0001) ># | Model parameters |
(PID.TID 0000.0001) ># ====================
(PID.TID 0000.0001) >#
(PID.TID 0000.0001) ># Continuous equation parameters
(PID.TID 0000.0001) >#
(PID.TID 0000.0001) >#   tRef            - Reference vertical potential temperature          (deg C)
(PID.TID 0000.0001) >#   sRef            - Reference vertical salinity                         (PSU)
(PID.TID 0000.0001) >#   viscAh          - Horizontal eddy viscosity coefficient             (m^2/s)
(PID.TID 0000.0001) >#   viscAz          - Vertical eddy viscosity coefficient               (m^2/s)
(PID.TID 0000.0001) >#   diffKhT         - Horizontal temperature diffusivity                (m^2/s)
(PID.TID 0000.0001) >#   diffKzT         - Vertical temperature diffusivity                  (m^2/s)
(PID.TID 0000.0001) >#   diffKhS         - Horizontal salt diffusivity                       (m^2/s)
(PID.TID 0000.0001) >#   diffKzS         - Vertical salt diffusivity                         (m^2/s)
(PID.TID 0000.0001) >#   f0              - Reference coriolis parameter,
(PID.TID 0000.0001) >#                     south edge of f on beta plane                       (1/s)
(PID.TID 0000.0001) >#   beta            - df/dy                                         (s^-1.m^-1)
(PID.TID 0000.0001) >#   tAlpha          - Linear EOS thermal expansion coefficient           (1/oC)
(PID.TID 0000.0001) >#   sBeta           - Linear EOS haline contraction coefficient         (1/ppt)
(PID.TID 0000.0001) >#   gravity         - Acceleration due to gravity                       (m/s^2)
(PID.TID 0000.0001) >#   gBaro           - Accel. due to gravity used in barotropic equation (m/s^2)
(PID.TID 0000.0001) >#   rigidLid        - Set to true to use rigid lid
(PID.TID 0000.0001) >#   implicitFreeSurface - Set to true to use implicit free surface
(PID.TID 0000.0001) >#   eosType         - Flag for linear or polynomial equation of state
(PID.TID 0000.0001) >#   momAdvection    - On/Off flag for momentum self transport
(PID.TID 0000.0001) >#   momViscosity    - On/Off flag for momentum mixing
(PID.TID 0000.0001) >#
(PID.TID 0000.0001) > &PARM01
(PID.TID 0000.0001) > tRef= 24.0 , 23.0 , 22.0 , 21.0 , 20.0 ,
(PID.TID 0000.0001) >       19.0 , 18.0 , 17.0 , 16.0 , 15.0 ,
(PID.TID 0000.0001) >       14.0 , 13.0 , 12.0 , 11.0 , 10.0 ,
(PID.TID 0000.0001) >        9.0 ,  8.0 ,  7.0 ,  6.0,   5.0 ,
(PID.TID 0000.0001) >        4.0 ,  3.0 ,  2.0 ,
(PID.TID 0000.0001) > sRef= 34.65, 34.75, 34.82, 34.87, 34.90,
(PID.TID 0000.0001) >       34.90, 34.86, 34.78, 34.69, 34.60,
(PID.TID 0000.0001) >       34.58, 34.62, 34.68, 34.72, 34.73,
(PID.TID 0000.0001) >       34.74, 34.73, 34.73, 34.72, 34.72,
(PID.TID 0000.0001) >       34.71, 34.70, 34.69,
(PID.TID 0000.0001) > no_slip_sides=.FALSE.,
(PID.TID 0000.0001) > no_slip_bottom=.TRUE.,
(PID.TID 0000.0001) > viscAz=1.93e-5,
(PID.TID 0000.0001) > viscAh=5.E4,
(PID.TID 0000.0001) > diffKhT=0.0,
(PID.TID 0000.0001) > diffKzT=1.46e-5,
(PID.TID 0000.0001) > diffKhS=0.0,
(PID.TID 0000.0001) > diffKzS=1.46e-5,
(PID.TID 0000.0001) > beta=1.E-11,
(PID.TID 0000.0001) > tAlpha=2.E-4,
(PID.TID 0000.0001) > sBeta =7.4E-4,
(PID.TID 0000.0001) > rigidLid=.FALSE.,
(PID.TID 0000.0001) > implicitFreeSurface=.TRUE.,
(PID.TID 0000.0001) > eosType='POLY3',
(PID.TID 0000.0001) > readBinaryPrec=32,
(PID.TID 0000.0001) > writeBinaryPrec=32,
(PID.TID 0000.0001) > saltStepping=.TRUE.,
(PID.TID 0000.0001) > tempStepping=.TRUE.,
(PID.TID 0000.0001) > momStepping=.TRUE.,
(PID.TID 0000.0001) > implicitDiffusion=.TRUE.,
(PID.TID 0000.0001) > implicitViscosity=.TRUE.,
(PID.TID 0000.0001) > globalFiles=.TRUE.,
(PID.TID 0000.0001) > allowFreezing=.FALSE.,
(PID.TID 0000.0001) > HeatCapacity_Cp = 3986.D0
(PID.TID 0000.0001) > gravity         = 9.8156,
(PID.TID 0000.0001) > gBaro           = 9.8156,
(PID.TID 0000.0001) > rhoNil          = 1027.D0
(PID.TID 0000.0001) > useCDscheme=.TRUE.,
(PID.TID 0000.0001) > useNHMTerms=.TRUE.,
(PID.TID 0000.0001) > &
(PID.TID 0000.0001) >
(PID.TID 0000.0001) ># Elliptic solver parameters
(PID.TID 0000.0001) >#
(PID.TID 0000.0001) >#   cg2dMaxIters       - Maximum number of 2d solver iterations
(PID.TID 0000.0001) >#   cg2dTargetResidual - Solver target residual
(PID.TID 0000.0001) >#
(PID.TID 0000.0001) > &PARM02
(PID.TID 0000.0001) > cg2dMaxIters=500,
(PID.TID 0000.0001) > cg2dTargetResidual=1.D-8
(PID.TID 0000.0001) > &
(PID.TID 0000.0001) >
(PID.TID 0000.0001) ># Time stepping parameters
(PID.TID 0000.0001) >#
(PID.TID 0000.0001) >#   startTime         - Integration starting time                (s)
(PID.TID 0000.0001) >#   endTime           - Integration ending time                  (s)
(PID.TID 0000.0001) >#   tauCD             - CD scheme coupling timescale             (s)
(PID.TID 0000.0001) >#   deltaTMom         - Timestep for momemtum equations          (s)
(PID.TID 0000.0001) >#   deltaTtracer      - Tracer timestep                          (s)
(PID.TID 0000.0001) >#   deltaTClock       - Timestep used as model "clock"           (s)
(PID.TID 0000.0001) >#   abEps             - Adams-Bashforth stabilising factor
(PID.TID 0000.0001) >#   pChkPtFreq        - Frequency of permanent check pointing    (s)
(PID.TID 0000.0001) >#   chkPtFreq         - Frequency of rolling check pointing      (s)
(PID.TID 0000.0001) >#   dumpFreq          - Frequency at which model state is stored (s)
(PID.TID 0000.0001) >#   tauThetaClimRelax - Relaxation to climatology time scale     (s)
(PID.TID 0000.0001) >#   tauSaltClimRelax  - Relaxation to climatology time scale     (s)
(PID.TID 0000.0001) >#
(PID.TID 0000.0001) > &PARM03
(PID.TID 0000.0001) > tauCD=172800.,
(PID.TID 0000.0001) > startTime=0.0,
(PID.TID 0000.0001) > endTime=36000.,
(PID.TID 0000.0001) > deltaTmom=3600.0,
(PID.TID 0000.0001) > deltaTtracer=3600.0,
(PID.TID 0000.0001) > deltaTClock =3600.0,
(PID.TID 0000.0001) > cAdjFreq=0.,
(PID.TID 0000.0001) > abEps=0.1,
(PID.TID 0000.0001) > pChkptFreq=36000.,
(PID.TID 0000.0001) > chkptFreq= 0.,
(PID.TID 0000.0001) > dumpFreq = 0.,
(PID.TID 0000.0001) > tavefreq = 36000.,
(PID.TID 0000.0001) > tauSaltClimRelax = 4142330.,
(PID.TID 0000.0001) > tauThetaClimRelax = 0.,
(PID.TID 0000.0001) > monitorFreq=1.,
(PID.TID 0000.0001) > forcing_In_AB = .FALSE.
(PID.TID 0000.0001) > &
(PID.TID 0000.0001) >
(PID.TID 0000.0001) ># Gridding parameters
(PID.TID 0000.0001) >#
(PID.TID 0000.0001) >#   usingSphericalPolarGrid - On/Off flag for spherical polar coordinates
(PID.TID 0000.0001) >#   usingCartesianGrid      - On/Off flag for selecting cartesian coordinates
(PID.TID 0000.0001) >#   delX                    - Zonal grid spacing         (degrees)
(PID.TID 0000.0001) >#   delY                    - Meridional grid spacing    (degrees)
(PID.TID 0000.0001) >#   delZ                    - Vertical grid spacing      (m)
(PID.TID 0000.0001) >#   phiMin                  - Southern boundary latitude (degrees)
(PID.TID 0000.0001) >#
(PID.TID 0000.0001) > &PARM04
(PID.TID 0000.0001) > usingCartesianGrid=.FALSE.,
(PID.TID 0000.0001) > usingSphericalPolarGrid=.TRUE.,
(PID.TID 0000.0001) > delX=20*2.E0,
(PID.TID 0000.0001) > delY=16*2.E0,
(PID.TID 0000.0001) > delZ= 10., 10., 15., 20., 20., 25., 35., 50., 75.,
(PID.TID 0000.0001) >       100., 150., 200., 275., 350., 415., 450.,
(PID.TID 0000.0001) >       500., 500., 500., 500., 500., 500., 500.
(PID.TID 0000.0001) > phimin=46.,
(PID.TID 0000.0001) > thetamin=280.,
(PID.TID 0000.0001) > rSphere         = 6371.D3
(PID.TID 0000.0001) > &
(PID.TID 0000.0001) >
(PID.TID 0000.0001) ># Input datasets
(PID.TID 0000.0001) >#
(PID.TID 0000.0001) >#   bathyFile       - File containing bathymetry
(PID.TID 0000.0001) >#   hydrogThetaFile - File containing initial potential temperature data
(PID.TID 0000.0001) >#   hydrogSaltFile  - File containing initial salinity data
(PID.TID 0000.0001) >#   zonalWindFile   - File containing zonal wind data
(PID.TID 0000.0001) >#   meridWindFile   - File containing meridional wind data
(PID.TID 0000.0001) >#   thetaClimFile   - File containing theta climatology used for relaxation
(PID.TID 0000.0001) >#   saltClimFile    - File containing salt climatology used for relaxation
(PID.TID 0000.0001) >#
(PID.TID 0000.0001) > &PARM05
(PID.TID 0000.0001) > bathyFile       = 'bathy.labsea',
(PID.TID 0000.0001) > hydrogThetaFile = 'LevCli_temp.labsea',
(PID.TID 0000.0001) > hydrogSaltFile  = 'LevCli_salt.labsea',
(PID.TID 0000.0001) > &
(PID.TID 0000.0001) >
(PID.TID 0000.0001) 
(PID.TID 0000.0001) S/R INI_PARMS ; starts to read PARM01
(PID.TID 0000.0001) S/R INI_PARMS ; read PARM01 : OK
(PID.TID 0000.0001) S/R INI_PARMS ; starts to read PARM02
(PID.TID 0000.0001) S/R INI_PARMS ; read PARM02 : OK
(PID.TID 0000.0001) S/R INI_PARMS ; starts to read PARM03
(PID.TID 0000.0001) S/R INI_PARMS ; read PARM03 : OK
(PID.TID 0000.0001) S/R INI_PARMS ; starts to read PARM04
(PID.TID 0000.0001) S/R INI_PARMS ; read PARM04 : OK
(PID.TID 0000.0001) S/R INI_PARMS ; starts to read PARM05
(PID.TID 0000.0001) S/R INI_PARMS ; read PARM05 : OK
(PID.TID 0000.0001)  PACKAGES_BOOT: opening data.pkg
(PID.TID 0000.0001)  OPEN_COPY_DATA_FILE: opening file data.pkg
(PID.TID 0000.0001) // =======================================================
(PID.TID 0000.0001) // Parameter file "data.pkg"
(PID.TID 0000.0001) // =======================================================
(PID.TID 0000.0001) ># Packages
(PID.TID 0000.0001) > &PACKAGES
(PID.TID 0000.0001) >  useGMRedi = .TRUE.,
(PID.TID 0000.0001) >  useKPP    = .TRUE.,
(PID.TID 0000.0001) >  useSEAICE = .TRUE.,
(PID.TID 0000.0001) >  useDiagnostics = .TRUE.,
(PID.TID 0000.0001) ># useMNC    = .TRUE.,
(PID.TID 0000.0001) > &
(PID.TID 0000.0001) 
(PID.TID 0000.0001)  PACKAGES_BOOT: finished reading data.pkg
(PID.TID 0000.0001)  GM_READPARMS: opening data.gmredi
(PID.TID 0000.0001)  OPEN_COPY_DATA_FILE: opening file data.gmredi
(PID.TID 0000.0001) // =======================================================
(PID.TID 0000.0001) // Parameter file "data.gmredi"
(PID.TID 0000.0001) // =======================================================
(PID.TID 0000.0001) ># GMREDI parameters
(PID.TID 0000.0001) > &GM_PARM01
(PID.TID 0000.0001) >  GM_background_K = 571.0
(PID.TID 0000.0001) >  GM_taper_scheme = 'ldd97'
(PID.TID 0000.0001) > &
(PID.TID 0000.0001) 
(PID.TID 0000.0001)  GM_READPARMS: finished reading data.gmredi
(PID.TID 0000.0001)  KPP_INIT: opening data.kpp
(PID.TID 0000.0001)  OPEN_COPY_DATA_FILE: opening file data.kpp
(PID.TID 0000.0001) // =======================================================
(PID.TID 0000.0001) // Parameter file "data.kpp"
(PID.TID 0000.0001) // =======================================================
(PID.TID 0000.0001) ># KPP parameters
(PID.TID 0000.0001) > &KPP_PARM01
(PID.TID 0000.0001) > KPPmixingMaps   = .FALSE.,
(PID.TID 0000.0001) > KPPwriteState   = .TRUE.,
(PID.TID 0000.0001) > KPP_ghatUseTotalDiffus=.TRUE.,
(PID.TID 0000.0001) > &
(PID.TID 0000.0001) 
(PID.TID 0000.0001)  KPP_INIT: finished reading data.kpp
(PID.TID 0000.0001) 
(PID.TID 0000.0001)  SEAICE_READPARMS: opening data.seaice
(PID.TID 0000.0001)  OPEN_COPY_DATA_FILE: opening file data.seaice
(PID.TID 0000.0001) // =======================================================
(PID.TID 0000.0001) // Parameter file "data.seaice"
(PID.TID 0000.0001) // =======================================================
(PID.TID 0000.0001) ># SEAICE parameters
(PID.TID 0000.0001) > &SEAICE_PARM01
(PID.TID 0000.0001) >      SEAICEwriteState   = .TRUE.,
(PID.TID 0000.0001) >      SEAICE_initialHEFF = 1.0,
(PID.TID 0000.0001) >      SEAICE_deltaTtherm = 3600.,
(PID.TID 0000.0001) >      SEAICE_deltaTdyn   = 3600.,
(PID.TID 0000.0001) >#     SEAICEuseDYNAMICS  =.FALSE.,
(PID.TID 0000.0001) >      LSR_ERROR          = 1.E-12,
(PID.TID 0000.0001) >#     SEAICE_tave_mnc    = .FALSE.,
(PID.TID 0000.0001) > &
(PID.TID 0000.0001) 
(PID.TID 0000.0001)  SEAICE_READPARMS: finished reading data.seaice
(PID.TID 0000.0001) 
(PID.TID 0000.0001) // =======================================================
(PID.TID 0000.0001) // Seaice configuration (SEAICE_PARM01) >>> START <<<
(PID.TID 0000.0001) // =======================================================
(PID.TID 0000.0001) 
(PID.TID 0000.0001) SEAICEwriteState  = /* write sea ice state to file */
(PID.TID 0000.0001)                   T
(PID.TID 0000.0001)     ;
(PID.TID 0000.0001) SEAICEuseDYNAMICS = /* use dynamics */
(PID.TID 0000.0001)                   T
(PID.TID 0000.0001)     ;
(PID.TID 0000.0001) LAD               = /* time stepping scheme */
(PID.TID 0000.0001)                       2
(PID.TID 0000.0001)     ;
(PID.TID 0000.0001) IMAX_TICE         = /* iterations for ice heat budget */
(PID.TID 0000.0001)                      10
(PID.TID 0000.0001)     ;
(PID.TID 0000.0001) SEAICE_deltaTtherm= /* thermodynamic timestep */
(PID.TID 0000.0001)                 3.600000000000000E+03
(PID.TID 0000.0001)     ;
(PID.TID 0000.0001) SEAICE_deltaTdyn  = /* dynamic timestep */
(PID.TID 0000.0001)                 3.600000000000000E+03
(PID.TID 0000.0001)     ;
(PID.TID 0000.0001) SEAICE_dumpFreq   = /* dump frequency */
(PID.TID 0000.0001)                 0.000000000000000E+00
(PID.TID 0000.0001)     ;
(PID.TID 0000.0001) SEAICE_taveFreq   = /* time-averaging frequency */
(PID.TID 0000.0001)                 3.600000000000000E+04
(PID.TID 0000.0001)     ;
(PID.TID 0000.0001) SEAICE_dump_mdsio = /* write snap-shot   using MDSIO */
(PID.TID 0000.0001)                   T
(PID.TID 0000.0001)     ;
(PID.TID 0000.0001) SEAICE_tave_mdsio = /* write TimeAverage using MDSIO */
(PID.TID 0000.0001)                   T
(PID.TID 0000.0001)     ;
(PID.TID 0000.0001) SEAICE_dump_mnc   = /* write snap-shot   using MNC */
(PID.TID 0000.0001)                   F
(PID.TID 0000.0001)     ;
(PID.TID 0000.0001) SEAICE_tave_mnc   = /* write TimeAverage using MNC */
(PID.TID 0000.0001)                   F
(PID.TID 0000.0001)     ;
(PID.TID 0000.0001) SEAICE_initialHEFF= /* initial sea-ice thickness */
(PID.TID 0000.0001)                 1.000000000000000E+00
(PID.TID 0000.0001)     ;
(PID.TID 0000.0001) SEAICE_drag       = /* air-ice drag coefficient */
(PID.TID 0000.0001)                 2.000000000000000E-03
(PID.TID 0000.0001)     ;
(PID.TID 0000.0001) OCEAN_drag        = /* air-ocean drag coefficient */
(PID.TID 0000.0001)                 1.000000000000000E-03
(PID.TID 0000.0001)     ;
(PID.TID 0000.0001) SEAICE_waterDrag  = /* water-ice drag * density */
(PID.TID 0000.0001)                 5.500000000000000E+00
(PID.TID 0000.0001)     ;
(PID.TID 0000.0001) SEAICE_dryIceAlb  = /* winter albedo */
(PID.TID 0000.0001)                 7.500000000000000E-01
(PID.TID 0000.0001)     ;
(PID.TID 0000.0001) SEAICE_wetIceAlb  = /* summer albedo */
(PID.TID 0000.0001)                 6.600000000000000E-01
(PID.TID 0000.0001)     ;
(PID.TID 0000.0001) SEAICE_drySnowAlb = /* dry snow albedo */
(PID.TID 0000.0001)                 8.400000000000000E-01
(PID.TID 0000.0001)     ;
(PID.TID 0000.0001) SEAICE_wetSnowAlb = /* wet snow albedo */
(PID.TID 0000.0001)                 7.000000000000000E-01
(PID.TID 0000.0001)     ;
(PID.TID 0000.0001) SEAICE_waterAlbedo= /* water albedo */
(PID.TID 0000.0001)                 1.000000000000000E-01
(PID.TID 0000.0001)     ;
(PID.TID 0000.0001) SEAICE_strength   = /* sea-ice strength Pstar */
(PID.TID 0000.0001)                 2.750000000000000E+04
(PID.TID 0000.0001)     ;
(PID.TID 0000.0001) SEAICE_sensHeat   = /* sensible heat transfer */
(PID.TID 0000.0001)                 2.284000000000000E+00
(PID.TID 0000.0001)     ;
(PID.TID 0000.0001) SEAICE_latentWater= /* latent heat transfer for water */
(PID.TID 0000.0001)                 5.687500000000000E+03
(PID.TID 0000.0001)     ;
(PID.TID 0000.0001) SEAICE_latentIce  = /* latent heat transfer for ice */
(PID.TID 0000.0001)                 6.447400000000000E+03
(PID.TID 0000.0001)     ;
(PID.TID 0000.0001) SEAICE_iceConduct = /* sea-ice conductivity */
(PID.TID 0000.0001)                 2.165600000000000E+00
(PID.TID 0000.0001)     ;
(PID.TID 0000.0001) SEAICE_snowConduct= /* snow conductivity */
(PID.TID 0000.0001)                 3.100000000000000E-01
(PID.TID 0000.0001)     ;
(PID.TID 0000.0001) SEAICE_emissivity = /* Stefan-Boltzman * emissivity */
(PID.TID 0000.0001)                 5.500000000000000E-08
(PID.TID 0000.0001)     ;
(PID.TID 0000.0001) SEAICE_snowThick  = /* cutoff snow thickness */
(PID.TID 0000.0001)                 1.500000000000000E-01
(PID.TID 0000.0001)     ;
(PID.TID 0000.0001) SEAICE_shortwave  = /* penetration shortwave radiation */
(PID.TID 0000.0001)                 3.000000000000000E-01
(PID.TID 0000.0001)     ;
(PID.TID 0000.0001) SEAICE_freeze     = /* freezing temp. of sea water */
(PID.TID 0000.0001)                -1.960000000000000E+00
(PID.TID 0000.0001)     ;
(PID.TID 0000.0001) Initial sea-ice thickness is read from file:
(PID.TID 0000.0001)    >>    <<
(PID.TID 0000.0001)     ;
(PID.TID 0000.0001) LSR_ERROR         = /* sets accuracy of LSR solver */
(PID.TID 0000.0001)                 1.000000000000000E-12
(PID.TID 0000.0001)     ;
(PID.TID 0000.0001) DIFF1             = /* parameter used in advect.F */
(PID.TID 0000.0001)                 4.000000000000000E-03
(PID.TID 0000.0001)     ;
(PID.TID 0000.0001) A22               = /* parameter used in growth.F */
(PID.TID 0000.0001)                 1.500000000000000E-01
(PID.TID 0000.0001)     ;
(PID.TID 0000.0001) HO                = /* demarcation ice thickness */
(PID.TID 0000.0001)                 1.000000000000000E+00
(PID.TID 0000.0001)     ;
(PID.TID 0000.0001) MAX_HEFF          = /* maximum ice thickness */
(PID.TID 0000.0001)                 1.000000000000000E+01
(PID.TID 0000.0001)     ;
(PID.TID 0000.0001) MIN_ATEMP         = /* minimum air temperature */
(PID.TID 0000.0001)                -5.000000000000000E+01
(PID.TID 0000.0001)     ;
(PID.TID 0000.0001) MIN_LWDOWN        = /* minimum downward longwave */
(PID.TID 0000.0001)                 6.000000000000000E+01
(PID.TID 0000.0001)     ;
(PID.TID 0000.0001) MAX_TICE          = /* maximum ice temperature */
(PID.TID 0000.0001)                 3.000000000000000E+01
(PID.TID 0000.0001)     ;
(PID.TID 0000.0001) MIN_TICE          = /* minimum ice temperature */
(PID.TID 0000.0001)                -5.000000000000000E+01
(PID.TID 0000.0001)     ;
(PID.TID 0000.0001) SEAICE_EPS        = /* reduce derivative singularities */
(PID.TID 0000.0001)                 1.000000000000000E-10
(PID.TID 0000.0001)     ;
(PID.TID 0000.0001) // =======================================================
(PID.TID 0000.0001) // Seaice configuration (SEAICE_PARM01) >>> END <<<
(PID.TID 0000.0001) // =======================================================
(PID.TID 0000.0001) CAL_READPARMS: opening data.cal
(PID.TID 0000.0001)  OPEN_COPY_DATA_FILE: opening file data.cal
(PID.TID 0000.0001) // =======================================================
(PID.TID 0000.0001) // Parameter file "data.cal"
(PID.TID 0000.0001) // =======================================================
(PID.TID 0000.0001) >#
(PID.TID 0000.0001) ># *******************
(PID.TID 0000.0001) ># Calendar Parameters
(PID.TID 0000.0001) ># *******************
(PID.TID 0000.0001) > &CAL_NML
(PID.TID 0000.0001) > TheCalendar='gregorian',
(PID.TID 0000.0001) ># TheCalendar='model',
(PID.TID 0000.0001) > startDate_1=19790101,
(PID.TID 0000.0001) > startDate_2=000000,
(PID.TID 0000.0001) > &
(PID.TID 0000.0001) 
(PID.TID 0000.0001) CAL_READPARMS: finished reading data.cal
(PID.TID 0000.0001) 
(PID.TID 0000.0001) // =======================================================
(PID.TID 0000.0001) // Calendar configuration >>> START <<<
(PID.TID 0000.0001) // =======================================================
(PID.TID 0000.0001) 
(PID.TID 0000.0001) Calendar version: 0.2.0
(PID.TID 0000.0001) 
(PID.TID 0000.0001) startTime =   /* Start time of the model integration [s] */
(PID.TID 0000.0001)                 0.000000000000000E+00
(PID.TID 0000.0001)     ;
(PID.TID 0000.0001) endTime =   /* End time of the model integration [s] */
(PID.TID 0000.0001)                 3.600000000000000E+04
(PID.TID 0000.0001)     ;
(PID.TID 0000.0001) deltatclock =   /* Time interval for a model forward step [s] */
(PID.TID 0000.0001)                 3.600000000000000E+03
(PID.TID 0000.0001)     ;
(PID.TID 0000.0001) usingGregorianCalendar =  /* Calendar Type: Gregorian Calendar */
(PID.TID 0000.0001)                   T
(PID.TID 0000.0001)     ;
(PID.TID 0000.0001) usingJulianCalendar =  /* Calendar Type: Julian Calendar */
(PID.TID 0000.0001)                   F
(PID.TID 0000.0001)     ;
(PID.TID 0000.0001) usingModelCalendar =  /* Calendar Type: Model Calendar */
(PID.TID 0000.0001)                   F
(PID.TID 0000.0001)     ;
(PID.TID 0000.0001) usingNoCalendar =  /* Calendar Type: No Calendar */
(PID.TID 0000.0001)                   F
(PID.TID 0000.0001)     ;
(PID.TID 0000.0001) modelstartdate (YYYYMMDD) =   /* Model start date YYYY-MM-DD  */
(PID.TID 0000.0001)                19790101
(PID.TID 0000.0001)     ;
(PID.TID 0000.0001) modelstartdate (HHMMSS) =   /* Model start date HH-MM-SS  */
(PID.TID 0000.0001)                       0
(PID.TID 0000.0001)     ;
(PID.TID 0000.0001) modelenddate (YYYYMMDD) =   /* Model end date YYYY-MM-DD  */
(PID.TID 0000.0001)                19790101
(PID.TID 0000.0001)     ;
(PID.TID 0000.0001) modelenddate (HHMMSS) =   /* Model end date HH-MM-SS  */
(PID.TID 0000.0001)                  100000
(PID.TID 0000.0001)     ;
(PID.TID 0000.0001) intyears =   /* Number of calendar years affected by the integration  */
(PID.TID 0000.0001)                       1
(PID.TID 0000.0001)     ;
(PID.TID 0000.0001) intmonths =   /* Number of calendar months affected by the integration  */
(PID.TID 0000.0001)                       1
(PID.TID 0000.0001)     ;
(PID.TID 0000.0001) intdays =   /* Number of calendar days affected by the integration  */
(PID.TID 0000.0001)                       1
(PID.TID 0000.0001)     ;
(PID.TID 0000.0001) nIter0 =   /* Base timestep number  */
(PID.TID 0000.0001)                       0
(PID.TID 0000.0001)     ;
(PID.TID 0000.0001) nEndIter =   /* Final timestep number  */
(PID.TID 0000.0001)                      10
(PID.TID 0000.0001)     ;
(PID.TID 0000.0001) nTimeSteps =   /* Number of model timesteps  */
(PID.TID 0000.0001)                      10
(PID.TID 0000.0001)     ;
(PID.TID 0000.0001) 
(PID.TID 0000.0001) // =======================================================
(PID.TID 0000.0001) // Calendar configuration  >>> END <<<
(PID.TID 0000.0001) // =======================================================
(PID.TID 0000.0001) 
(PID.TID 0000.0001) EXF_READPARMS: opening data.exf
(PID.TID 0000.0001)  OPEN_COPY_DATA_FILE: opening file data.exf
(PID.TID 0000.0001) // =======================================================
(PID.TID 0000.0001) // Parameter file "data.exf"
(PID.TID 0000.0001) // =======================================================
(PID.TID 0000.0001) ># $Header: /home/jahn/src/cvs2git/MITgcm/20170915-2/gcmpack-all-patch/MITgcm/verification/lab_sea/results/output.txt,v 1.32 2005/07/30 23:12:19 jmc Exp $
(PID.TID 0000.0001) >#
(PID.TID 0000.0001) ># *********************
(PID.TID 0000.0001) ># External Forcing Data
(PID.TID 0000.0001) ># *********************
(PID.TID 0000.0001) > &EXF_NML
(PID.TID 0000.0001) >#
(PID.TID 0000.0001) > repeatPeriod      = 31622400
(PID.TID 0000.0001) >#
(PID.TID 0000.0001) > hfluxstartdate1   = 19781216,
(PID.TID 0000.0001) > hfluxstartdate2   = 180000,
(PID.TID 0000.0001) > hfluxperiod       = 2635200.0,
(PID.TID 0000.0001) >#
(PID.TID 0000.0001) > sfluxstartdate1   = 19781216,
(PID.TID 0000.0001) > sfluxstartdate2   = 180000,
(PID.TID 0000.0001) > sfluxperiod       = 2635200.0,
(PID.TID 0000.0001) >#
(PID.TID 0000.0001) > ustressstartdate1 = 19781216,
(PID.TID 0000.0001) > ustressstartdate2 = 180000,
(PID.TID 0000.0001) > ustressperiod     = 2635200.0,
(PID.TID 0000.0001) >#
(PID.TID 0000.0001) > vstressstartdate1 = 19781216,
(PID.TID 0000.0001) > vstressstartdate2 = 180000,
(PID.TID 0000.0001) > vstressperiod     = 2635200.0,
(PID.TID 0000.0001) >#
(PID.TID 0000.0001) > atempstartdate1   = 19781216,
(PID.TID 0000.0001) > atempstartdate2   = 180000,
(PID.TID 0000.0001) > atempperiod       = 2635200.0,
(PID.TID 0000.0001) >#
(PID.TID 0000.0001) > aqhstartdate1     = 19781216,
(PID.TID 0000.0001) > aqhstartdate2     = 180000,
(PID.TID 0000.0001) > aqhperiod         = 2635200.0,
(PID.TID 0000.0001) >#
(PID.TID 0000.0001) > evapstartdate1    = 19781216,
(PID.TID 0000.0001) > evapstartdate2    = 180000,
(PID.TID 0000.0001) > evapperiod        = 2635200.0,
(PID.TID 0000.0001) >#
(PID.TID 0000.0001) > precipstartdate1  = 19781216,
(PID.TID 0000.0001) > precipstartdate2  = 180000,
(PID.TID 0000.0001) > precipperiod      = 2635200.0,
(PID.TID 0000.0001) >#
(PID.TID 0000.0001) > uwindstartdate1   = 19781216,
(PID.TID 0000.0001) > uwindstartdate2   = 180000,
(PID.TID 0000.0001) > uwindperiod       = 2635200.0,
(PID.TID 0000.0001) >#
(PID.TID 0000.0001) > vwindstartdate1   = 19781216,
(PID.TID 0000.0001) > vwindstartdate2   = 180000,
(PID.TID 0000.0001) > vwindperiod       = 2635200.0,
(PID.TID 0000.0001) >#
(PID.TID 0000.0001) > swfluxstartdate1  = 19781216,
(PID.TID 0000.0001) > swfluxstartdate2  = 180000,
(PID.TID 0000.0001) > swfluxperiod      = 2635200.0,
(PID.TID 0000.0001) >#
(PID.TID 0000.0001) > lwfluxstartdate1  = 19781216,
(PID.TID 0000.0001) > lwfluxstartdate2  = 180000,
(PID.TID 0000.0001) > lwfluxperiod      = 2635200.0,
(PID.TID 0000.0001) >#
(PID.TID 0000.0001) > swdownstartdate1  = 19781216,
(PID.TID 0000.0001) > swdownstartdate2  = 180000,
(PID.TID 0000.0001) > swdownperiod      = 2635200.0,
(PID.TID 0000.0001) >#
(PID.TID 0000.0001) > lwdownstartdate1  = 19781216,
(PID.TID 0000.0001) > lwdownstartdate2  = 180000,
(PID.TID 0000.0001) > lwdownperiod      = 2635200.0,
(PID.TID 0000.0001) >#
(PID.TID 0000.0001) > hfluxfile         = ' ',
(PID.TID 0000.0001) > sfluxfile         = ' ',
(PID.TID 0000.0001) > ustressfile       = ' ',
(PID.TID 0000.0001) > vstressfile       = ' ',
(PID.TID 0000.0001) > atempfile         = 'tair.labsea1979',
(PID.TID 0000.0001) > aqhfile           = 'qa.labsea1979',
(PID.TID 0000.0001) > uwindfile         = 'u10m.labsea79',
(PID.TID 0000.0001) > vwindfile         = 'v10m.labsea79',
(PID.TID 0000.0001) > evapfile          = 'evap.labsea1979',
(PID.TID 0000.0001) > precipfile        = 'prate.labsea1979',
(PID.TID 0000.0001) > lwfluxfile        = ' ',
(PID.TID 0000.0001) > swfluxfile        = ' ',
(PID.TID 0000.0001) > lwdownfile        = 'flo.labsea1979',
(PID.TID 0000.0001) > swdownfile        = 'fsh.labsea1979',
(PID.TID 0000.0001) > runoffFile        = ' '
(PID.TID 0000.0001) >#
(PID.TID 0000.0001) > exf_iprec         = 32,
(PID.TID 0000.0001) > exf_yftype        = 'RL',
(PID.TID 0000.0001) > &
(PID.TID 0000.0001) 
(PID.TID 0000.0001) EXF_READPARMS: finished reading data.exf
(PID.TID 0000.0001) 
(PID.TID 0000.0001) // =======================================================
(PID.TID 0000.0001) // External forcing configuration >>> START <<<
(PID.TID 0000.0001) // =======================================================
(PID.TID 0000.0001) 
(PID.TID 0000.0001) External forcing version: 0.2.2
(PID.TID 0000.0001) Uses Calendar version:    0.2.0
(PID.TID 0000.0001) 
(PID.TID 0000.0001) // ALLOW_ATM_TEMP:                     defined
(PID.TID 0000.0001) // ALLOW_ATM_WIND:                     defined
(PID.TID 0000.0001) // ALLOW_DOWNWARD_RADIATION:           defined
(PID.TID 0000.0001) // ALLOW_BULKFORMULAE:                 defined
(PID.TID 0000.0001) 
(PID.TID 0000.0001)    Net shortwave flux forcing starts at                0.
(PID.TID 0000.0001)    Net shortwave flux forcing period is          2635200.
(PID.TID 0000.0001)    Net shortwave flux forcing is read from file:
(PID.TID 0000.0001)    >>    <<
(PID.TID 0000.0001) 
(PID.TID 0000.0001)    Zonal wind forcing starts at                   -1317600.
(PID.TID 0000.0001)    Zonal wind forcing period is                    2635200.
(PID.TID 0000.0001)    Zonal wind forcing is read from file:
(PID.TID 0000.0001)    >>  u10m.labsea79  <<
(PID.TID 0000.0001) 
(PID.TID 0000.0001)    Meridional wind forcing starts at              -1317600.
(PID.TID 0000.0001)    Meridional wind forcing period is               2635200.
(PID.TID 0000.0001)    Meridional wind forcing is read from file:
(PID.TID 0000.0001)    >>  v10m.labsea79  <<
(PID.TID 0000.0001) 
(PID.TID 0000.0001)    Atmospheric temperature starts at              -1317600.
(PID.TID 0000.0001)    Atmospheric temperature period is               2635200.
(PID.TID 0000.0001)    Atmospheric temperature is read from file:
(PID.TID 0000.0001)    >>  tair.labsea1979  <<
(PID.TID 0000.0001) 
(PID.TID 0000.0001)    Atmospheric specific humidity starts at        -1317600.
(PID.TID 0000.0001)    Atmospheric specific humidity period is         2635200.
(PID.TID 0000.0001)    Atmospheric specific humidity is read from file:
(PID.TID 0000.0001)    >>  qa.labsea1979  <<
(PID.TID 0000.0001) 
(PID.TID 0000.0001)    Net longwave flux forcing starts at                 0.
(PID.TID 0000.0001)    Net longwave flux forcing period is           2635200.
(PID.TID 0000.0001)    Net longwave flux forcing is read from file:
(PID.TID 0000.0001)    >>    <<
(PID.TID 0000.0001) 
(PID.TID 0000.0001)    Precipitation data set starts at               -1317600.
(PID.TID 0000.0001)    Precipitation data period is                    2635200.
(PID.TID 0000.0001)    Precipitation data is read from file:
(PID.TID 0000.0001)    >>  prate.labsea1979  <<
(PID.TID 0000.0001) // EXF_READ_EVAP:                  NOT defined
(PID.TID 0000.0001) // ALLOW_RUNOFF:                       defined
(PID.TID 0000.0001) 
(PID.TID 0000.0001)    Runnoff starts at               0.
(PID.TID 0000.0001)    Runoff period is               0.
(PID.TID 0000.0001)    Runoff is read from file:
(PID.TID 0000.0001)    >>    <<
(PID.TID 0000.0001) 
(PID.TID 0000.0001)    Atmospheric pressure forcing starts at                0.
(PID.TID 0000.0001)    Atmospheric pressure forcing period is                0.
(PID.TID 0000.0001)    Atmospheric pressureforcing is read from file:
(PID.TID 0000.0001)    >>    <<
(PID.TID 0000.0001) 
(PID.TID 0000.0001) // =======================================================
(PID.TID 0000.0001) // External forcing configuration  >>> END <<<
(PID.TID 0000.0001) // =======================================================
(PID.TID 0000.0001) 
(PID.TID 0000.0001) EXF_CLIM_READPARMS: opening data.exf_clim
(PID.TID 0000.0001)  OPEN_COPY_DATA_FILE: opening file data.exf_clim
(PID.TID 0000.0001) // =======================================================
(PID.TID 0000.0001) // Parameter file "data.exf_clim"
(PID.TID 0000.0001) // =======================================================
(PID.TID 0000.0001) ># $Header: /home/jahn/src/cvs2git/MITgcm/20170915-2/gcmpack-all-patch/MITgcm/verification/lab_sea/results/output.txt,v 1.32 2005/07/30 23:12:19 jmc Exp $
(PID.TID 0000.0001) >#
(PID.TID 0000.0001) ># *********************************
(PID.TID 0000.0001) ># External Forcing Climatology Data
(PID.TID 0000.0001) ># *********************************
(PID.TID 0000.0001) > &EXF_CLIM_NML
(PID.TID 0000.0001) > climtempstartdate1 = 19781216,
(PID.TID 0000.0001) > climtempstartdate2 = 180000,
(PID.TID 0000.0001) > climtempperiod     = 2635200.0,
(PID.TID 0000.0001) >#
(PID.TID 0000.0001) > climsaltstartdate1 = 19781216,
(PID.TID 0000.0001) > climsaltstartdate2 = 180000,
(PID.TID 0000.0001) > climsaltperiod     = 2635200.0,
(PID.TID 0000.0001) >#
(PID.TID 0000.0001) > climsststartdate1  = 19781216,
(PID.TID 0000.0001) > climsststartdate2  = 180000,
(PID.TID 0000.0001) > climsstperiod      = 2635200.0,
(PID.TID 0000.0001) >#
(PID.TID 0000.0001) > climsssstartdate1  = 19781216,
(PID.TID 0000.0001) > climsssstartdate2  = 180000,
(PID.TID 0000.0001) > climsssperiod      = 2635200.0,
(PID.TID 0000.0001) >#
(PID.TID 0000.0001) > climtempfile       = ' ',
(PID.TID 0000.0001) > climsaltfile       = ' ',
(PID.TID 0000.0001) > climsstfile        = ' ',
(PID.TID 0000.0001) > climsssfile        = 'SSS.labsea',
(PID.TID 0000.0001) >#
(PID.TID 0000.0001) > exf_clim_iprec     = 32,
(PID.TID 0000.0001) > exf_clim_yftype    = 'RL',
(PID.TID 0000.0001) > &
(PID.TID 0000.0001) 
(PID.TID 0000.0001) EXF_CLIM_READPARMS: finished reading data.exf_clim
(PID.TID 0000.0001) 
(PID.TID 0000.0001) // =======================================================
(PID.TID 0000.0001) // External forcing climatology configuration >>> START <<<
(PID.TID 0000.0001) // =======================================================
(PID.TID 0000.0001) 
(PID.TID 0000.0001) External forcing version: 0.2.2
(PID.TID 0000.0001) Uses Calendar version:    0.2.0
(PID.TID 0000.0001) 
(PID.TID 0000.0001) // ALLOW_CLIMTEMP_RELAXATION:      NOT defined
(PID.TID 0000.0001) // ALLOW_CLIMSALT_RELAXATION:      NOT defined
(PID.TID 0000.0001) // ALLOW_CLIMSST_RELAXATION:       NOT defined
(PID.TID 0000.0001) // ALLOW_CLIMSSS_RELAXATION:           defined
(PID.TID 0000.0001) 
(PID.TID 0000.0001)    Climatological SSS starts at            -1317600.
(PID.TID 0000.0001)    Climatological SSS period is             2635200.
(PID.TID 0000.0001)    Climatological SSS is read from file:
(PID.TID 0000.0001)    >>  SSS.labsea  <<
(PID.TID 0000.0001) 
(PID.TID 0000.0001) // =======================================================
(PID.TID 0000.0001) // External forcing climatology configuration  >>> END <<<
(PID.TID 0000.0001) // =======================================================
(PID.TID 0000.0001) 
(PID.TID 0000.0001)  DIAGNOSTICS_READPARMS: opening data.diagnostics
(PID.TID 0000.0001)  OPEN_COPY_DATA_FILE: opening file data.diagnostics
(PID.TID 0000.0001) // =======================================================
(PID.TID 0000.0001) // Parameter file "data.diagnostics"
(PID.TID 0000.0001) // =======================================================
(PID.TID 0000.0001) ># Diagnostic Package Choices
(PID.TID 0000.0001) >#-----------------
(PID.TID 0000.0001) ># for each output-stream:
(PID.TID 0000.0001) >#  filename(n) : prefix of the output file name (only 8.c long) for outp.stream n
(PID.TID 0000.0001) >#  frequency(n):< 0 : write snap-shot output every |frequency| seconds
(PID.TID 0000.0001) >#               > 0 : write time-average output every frequency seconds
(PID.TID 0000.0001) >#  timePhase(n)     : write at time = timePhase + multiple of |frequency|
(PID.TID 0000.0001) >#  levels(:,n) : list of levels to write to file (Notes: declared as REAL)
(PID.TID 0000.0001) >#                 when this entry is missing, select all common levels of this list
(PID.TID 0000.0001) >#  fields(:,n) : list of diagnostics fields (8.c) (see "available_diagnostics" file
(PID.TID 0000.0001) >#                 for the list of all available diag. in this particular config)
(PID.TID 0000.0001) >#-----------------
(PID.TID 0000.0001) ># This example dumps all KPP diagnostics as
(PID.TID 0000.0001) ># a snapshot after ten time steps
(PID.TID 0000.0001) > &diagnostics_list
(PID.TID 0000.0001) >  frequency(1) = -36000.,
(PID.TID 0000.0001) >   fields(1,1) = 'EXFtaux ',
(PID.TID 0000.0001) >   filename(1) = 'EXFtaux ',
(PID.TID 0000.0001) >#
(PID.TID 0000.0001) >  frequency(2) = -36000.,
(PID.TID 0000.0001) >   fields(1,2) = 'EXFtauy ',
(PID.TID 0000.0001) >   filename(2) = 'EXFtauy ',
(PID.TID 0000.0001) >#
(PID.TID 0000.0001) >  frequency(3) = -36000.,
(PID.TID 0000.0001) >   fields(1,3) = 'EXFqnet ',
(PID.TID 0000.0001) >   filename(3) = 'EXFqnet ',
(PID.TID 0000.0001) >#
(PID.TID 0000.0001) >  frequency(4) = -36000.,
(PID.TID 0000.0001) >   fields(1,4) = 'EXFempmr',
(PID.TID 0000.0001) >   filename(4) = 'EXFempmr',
(PID.TID 0000.0001) >#
(PID.TID 0000.0001) >  frequency(5) = -36000.,
(PID.TID 0000.0001) >   fields(1,5) = 'EXFhl   ',
(PID.TID 0000.0001) >   filename(5) = 'EXFhl   ',
(PID.TID 0000.0001) >#
(PID.TID 0000.0001) >  frequency(6) = -36000.,
(PID.TID 0000.0001) >   fields(1,6) = 'EXFhs   ',
(PID.TID 0000.0001) >   filename(6) = 'EXFhs   ',
(PID.TID 0000.0001) >#
(PID.TID 0000.0001) >  frequency(7) = -36000.,
(PID.TID 0000.0001) >   fields(1,7) = 'EXFswnet',
(PID.TID 0000.0001) >   filename(7) = 'EXFswnet',
(PID.TID 0000.0001) >#
(PID.TID 0000.0001) >  frequency(8) = -36000.,
(PID.TID 0000.0001) >   fields(1,8) = 'EXFlwnet',
(PID.TID 0000.0001) >   filename(8) = 'EXFlwnet',
(PID.TID 0000.0001) >#
(PID.TID 0000.0001) >  frequency(9) = -36000.,
(PID.TID 0000.0001) >   fields(1,9) = 'EXFuwind',
(PID.TID 0000.0001) >   filename(9) = 'EXFuwind',
(PID.TID 0000.0001) >#
(PID.TID 0000.0001) >  frequency(10) = -36000.,
(PID.TID 0000.0001) >   fields(1,10) = 'EXFvwind',
(PID.TID 0000.0001) >   filename(10) = 'EXFvwind',
(PID.TID 0000.0001) >#
(PID.TID 0000.0001) >  frequency(11) = -36000.,
(PID.TID 0000.0001) >   fields(1,11) = 'EXFatemp',
(PID.TID 0000.0001) >   filename(11) = 'EXFatemp',
(PID.TID 0000.0001) >#
(PID.TID 0000.0001) > &
(PID.TID 0000.0001) >
(PID.TID 0000.0001) ># Parameter for Diagnostics of per level statistics:
(PID.TID 0000.0001) >#-----------------
(PID.TID 0000.0001) ># for each output-stream:
(PID.TID 0000.0001) >#  stat_fname(n) : prefix of the output file name (only 8.c long) for outp.stream n
(PID.TID 0000.0001) >#  stat_freq(n):< 0 : write snap-shot output every |stat_freq| seconds
(PID.TID 0000.0001) >#               > 0 : write time-average output every stat_freq seconds
(PID.TID 0000.0001) >#  stat_phase(n)    : write at time = stat_phase + multiple of |stat_freq|
(PID.TID 0000.0001) >#  stat_region(:,n) : list of "regions" (default: 1 region only=global)
(PID.TID 0000.0001) >#  stat_fields(:,n) : list of diagnostics fields (8.c) (see "available_diagnostics.log"
(PID.TID 0000.0001) >#                 file for the list of all available diag. in this particular config)
(PID.TID 0000.0001) >#-----------------
(PID.TID 0000.0001) > &DIAG_STATIS_PARMS
(PID.TID 0000.0001) >#- an example just to check the agreement with MONITOR output:
(PID.TID 0000.0001) >#stat_fields(1,1)= 'ETAN    ','UVEL    ','VVEL    ','WVEL    ', 'THETA   ',
(PID.TID 0000.0001) >#   stat_fname(1)= 'dynStDiag',
(PID.TID 0000.0001) >#    stat_freq(1)= -36000.,
(PID.TID 0000.0001) >#   stat_phase(1)= 0.,
(PID.TID 0000.0001) > &
(PID.TID 0000.0001) >
(PID.TID 0000.0001) 
(PID.TID 0000.0001) S/R DIAGNOSTICS_READPARMS, read namelist "diagnostics_list": start
(PID.TID 0000.0001) S/R DIAGNOSTICS_READPARMS, read namelist "diagnostics_list": OK
(PID.TID 0000.0001) S/R DIAGNOSTICS_READPARMS, read namelist "DIAG_STATIS_PARMS": start
(PID.TID 0000.0001) S/R DIAGNOSTICS_READPARMS, read namelist "DIAG_STATIS_PARMS": OK
(PID.TID 0000.0001) -----------------------------------------------------
(PID.TID 0000.0001)  DIAGNOSTICS_READPARMS: active diagnostics summary:
(PID.TID 0000.0001) -----------------------------------------------------
(PID.TID 0000.0001) Creating Output Stream: EXFtaux
(PID.TID 0000.0001) Frequency :     -36000.000000 ; Phase:      18000.000000
(PID.TID 0000.0001)  Levels:    will be set later
(PID.TID 0000.0001)  Fields:    EXFtaux
(PID.TID 0000.0001) Creating Output Stream: EXFtauy
(PID.TID 0000.0001) Frequency :     -36000.000000 ; Phase:      18000.000000
(PID.TID 0000.0001)  Levels:    will be set later
(PID.TID 0000.0001)  Fields:    EXFtauy
(PID.TID 0000.0001) Creating Output Stream: EXFqnet
(PID.TID 0000.0001) Frequency :     -36000.000000 ; Phase:      18000.000000
(PID.TID 0000.0001)  Levels:    will be set later
(PID.TID 0000.0001)  Fields:    EXFqnet
(PID.TID 0000.0001) Creating Output Stream: EXFempmr
(PID.TID 0000.0001) Frequency :     -36000.000000 ; Phase:      18000.000000
(PID.TID 0000.0001)  Levels:    will be set later
(PID.TID 0000.0001)  Fields:    EXFempmr
(PID.TID 0000.0001) Creating Output Stream: EXFhl
(PID.TID 0000.0001) Frequency :     -36000.000000 ; Phase:      18000.000000
(PID.TID 0000.0001)  Levels:    will be set later
(PID.TID 0000.0001)  Fields:    EXFhl
(PID.TID 0000.0001) Creating Output Stream: EXFhs
(PID.TID 0000.0001) Frequency :     -36000.000000 ; Phase:      18000.000000
(PID.TID 0000.0001)  Levels:    will be set later
(PID.TID 0000.0001)  Fields:    EXFhs
(PID.TID 0000.0001) Creating Output Stream: EXFswnet
(PID.TID 0000.0001) Frequency :     -36000.000000 ; Phase:      18000.000000
(PID.TID 0000.0001)  Levels:    will be set later
(PID.TID 0000.0001)  Fields:    EXFswnet
(PID.TID 0000.0001) Creating Output Stream: EXFlwnet
(PID.TID 0000.0001) Frequency :     -36000.000000 ; Phase:      18000.000000
(PID.TID 0000.0001)  Levels:    will be set later
(PID.TID 0000.0001)  Fields:    EXFlwnet
(PID.TID 0000.0001) Creating Output Stream: EXFuwind
(PID.TID 0000.0001) Frequency :     -36000.000000 ; Phase:      18000.000000
(PID.TID 0000.0001)  Levels:    will be set later
(PID.TID 0000.0001)  Fields:    EXFuwind
(PID.TID 0000.0001) Creating Output Stream: EXFvwind
(PID.TID 0000.0001) Frequency :     -36000.000000 ; Phase:      18000.000000
(PID.TID 0000.0001)  Levels:    will be set later
(PID.TID 0000.0001)  Fields:    EXFvwind
(PID.TID 0000.0001) Creating Output Stream: EXFatemp
(PID.TID 0000.0001) Frequency :     -36000.000000 ; Phase:      18000.000000
(PID.TID 0000.0001)  Levels:    will be set later
(PID.TID 0000.0001)  Fields:    EXFatemp
(PID.TID 0000.0001) -----------------------------------------------------
(PID.TID 0000.0001)  DIAGNOSTICS_READPARMS: statistics diags. summary:
(PID.TID 0000.0001) -----------------------------------------------------
(PID.TID 0000.0001) 
(PID.TID 0000.0001) %MON XC_max                       =   3.1900000000000E+02
(PID.TID 0000.0001) %MON XC_min                       =   2.8100000000000E+02
(PID.TID 0000.0001) %MON XC_mean                      =   3.0000000000000E+02
(PID.TID 0000.0001) %MON XC_sd                        =   1.1532562594671E+01
(PID.TID 0000.0001) %MON XG_max                       =   3.1800000000000E+02
(PID.TID 0000.0001) %MON XG_min                       =   2.8000000000000E+02
(PID.TID 0000.0001) %MON XG_mean                      =   2.9900000000000E+02
(PID.TID 0000.0001) %MON XG_sd                        =   1.1532562594671E+01
(PID.TID 0000.0001) %MON DXC_max                      =   1.5166951523772E+05
(PID.TID 0000.0001) %MON DXC_min                      =   5.0026831972764E+04
(PID.TID 0000.0001) %MON DXC_mean                     =   1.0305926321463E+05
(PID.TID 0000.0001) %MON DXC_sd                       =   3.1375805318756E+04
(PID.TID 0000.0001) %MON DXF_max                      =   1.5166951523772E+05
(PID.TID 0000.0001) %MON DXF_min                      =   5.0026831972764E+04
(PID.TID 0000.0001) %MON DXF_mean                     =   1.0305926321463E+05
(PID.TID 0000.0001) %MON DXF_sd                       =   3.1375805318756E+04
(PID.TID 0000.0001) %MON DXG_max                      =   1.5448497309243E+05
(PID.TID 0000.0001) %MON DXG_min                      =   5.3800974869835E+04
(PID.TID 0000.0001) %MON DXG_mean                     =   1.0642630187324E+05
(PID.TID 0000.0001) %MON DXG_sd                       =   3.1081829200899E+04
(PID.TID 0000.0001) %MON DXV_max                      =   1.5448497309243E+05
(PID.TID 0000.0001) %MON DXV_min                      =   5.3800974869835E+04
(PID.TID 0000.0001) %MON DXV_mean                     =   1.0642630187324E+05
(PID.TID 0000.0001) %MON DXV_sd                       =   3.1081829200899E+04
(PID.TID 0000.0001) %MON YC_max                       =   7.7000000000000E+01
(PID.TID 0000.0001) %MON YC_min                       =   4.7000000000000E+01
(PID.TID 0000.0001) %MON YC_mean                      =   6.2000000000000E+01
(PID.TID 0000.0001) %MON YC_sd                        =   9.2195444572929E+00
(PID.TID 0000.0001) %MON YG_max                       =   7.6000000000000E+01
(PID.TID 0000.0001) %MON YG_min                       =   4.6000000000000E+01
(PID.TID 0000.0001) %MON YG_mean                      =   6.1000000000000E+01
(PID.TID 0000.0001) %MON YG_sd                        =   9.2195444572929E+00
(PID.TID 0000.0001) %MON DYC_max                      =   2.2238985328912E+05
(PID.TID 0000.0001) %MON DYC_min                      =   2.2238985328912E+05
(PID.TID 0000.0001) %MON DYC_mean                     =   2.2238985328912E+05
(PID.TID 0000.0001) %MON DYC_sd                       =   3.7834979593754E-10
(PID.TID 0000.0001) %MON DYF_max                      =   2.2238985328912E+05
(PID.TID 0000.0001) %MON DYF_min                      =   2.2238985328912E+05
(PID.TID 0000.0001) %MON DYF_mean                     =   2.2238985328912E+05
(PID.TID 0000.0001) %MON DYF_sd                       =   3.7834979593754E-10
(PID.TID 0000.0001) %MON DYG_max                      =   2.2238985328912E+05
(PID.TID 0000.0001) %MON DYG_min                      =   2.2238985328912E+05
(PID.TID 0000.0001) %MON DYG_mean                     =   2.2238985328912E+05
(PID.TID 0000.0001) %MON DYG_sd                       =   3.7834979593754E-10
(PID.TID 0000.0001) %MON DYU_max                      =   2.2238985328912E+05
(PID.TID 0000.0001) %MON DYU_min                      =   2.2238985328912E+05
(PID.TID 0000.0001) %MON DYU_mean                     =   2.2238985328912E+05
(PID.TID 0000.0001) %MON DYU_sd                       =   3.7834979593754E-10
(PID.TID 0000.0001) %MON RA_max                       =   3.3728048822756E+10
(PID.TID 0000.0001) %MON RA_min                       =   1.1124894996734E+10
(PID.TID 0000.0001) %MON RA_mean                      =   2.2918170839356E+10
(PID.TID 0000.0001) %MON RA_sd                        =   6.9773064942263E+09
(PID.TID 0000.0001) %MON RAW_max                      =   3.3728048822756E+10
(PID.TID 0000.0001) %MON RAW_min                      =   1.1124894996734E+10
(PID.TID 0000.0001) %MON RAW_mean                     =   2.2918170839356E+10
(PID.TID 0000.0001) %MON RAW_sd                       =   6.9773064942263E+09
(PID.TID 0000.0001) %MON RAS_max                      =   3.4354146294179E+10
(PID.TID 0000.0001) %MON RAS_min                      =   1.1964183470077E+10
(PID.TID 0000.0001) %MON RAS_mean                     =   2.3666928057229E+10
(PID.TID 0000.0001) %MON RAS_sd                       =   6.9119325076329E+09
(PID.TID 0000.0001) %MON RAZ_max                      =   3.4354146294179E+10
(PID.TID 0000.0001) %MON RAZ_min                      =   1.1964183470077E+10
(PID.TID 0000.0001) %MON RAZ_mean                     =   2.3666928057229E+10
(PID.TID 0000.0001) %MON RAZ_sd                       =   6.9119325076329E+09
(PID.TID 0000.0001) %MON AngleCS_max                  =   1.0000000000000E+00
(PID.TID 0000.0001) %MON AngleCS_min                  =   1.0000000000000E+00
(PID.TID 0000.0001) %MON AngleCS_mean                 =   1.0000000000000E+00
(PID.TID 0000.0001) %MON AngleCS_sd                   =   0.0000000000000E+00
(PID.TID 0000.0001) %MON AngleSN_max                  =   0.0000000000000E+00
(PID.TID 0000.0001) %MON AngleSN_min                  =   0.0000000000000E+00
(PID.TID 0000.0001) %MON AngleSN_mean                 =   0.0000000000000E+00
(PID.TID 0000.0001) %MON AngleSN_sd                   =   0.0000000000000E+00
(PID.TID 0000.0001)  MDSREADFIELD: opening global file: bathy.labsea
(PID.TID 0000.0001) // =======================================================
(PID.TID 0000.0001) // Field Model R_low (ini_masks_etc) at iteration          1
(PID.TID 0000.0001) // CMIN =         -4.200000000000000E+03
(PID.TID 0000.0001) // CMAX =         -5.500000000000000E+01
(PID.TID 0000.0001) // CINT =          1.535185185185185E+02
(PID.TID 0000.0001) // SYMBOLS (CMIN->CMAX): -abcdefghijklmnopqrstuvwxyz+
(PID.TID 0000.0001) //                  0.0: .
(PID.TID 0000.0001) // RANGE I (Lo:Hi:Step):(  -2:  23:   1)
(PID.TID 0000.0001) // RANGE J (Lo:Hi:Step):(  19:  -2:  -1)
(PID.TID 0000.0001) // RANGE K (Lo:Hi:Step):(   1:   1:   1)
(PID.TID 0000.0001) // =======================================================
(PID.TID 0000.0001) K =   1
(PID.TID 0000.0001) //                I=7       I=11      I=21
(PID.TID 0000.0001) // |--J--|**0123456|890123890|234567890|23
(PID.TID 0000.0001) //     19 cc-..........+.z...+.zzxmgcc-...
(PID.TID 0000.0001) //     18 jc-.......+zzz..+zzz..zzsmjc-...
(PID.TID 0000.0001) //     17 wc-........++z++.++z+++z+wwc-...
(PID.TID 0000.0001) //     16 ....zyyz......................zy
(PID.TID 0000.0001) //     15 ...yxwwuspxyxz..xyxz.........yxw
(PID.TID 0000.0001) //     14 ....+wwspppsxzz.psxzz.........+w
(PID.TID 0000.0001) //     13 .......zwsppsyz.ppsyz...........
(PID.TID 0000.0001) //     12 .........+ypswzzypswzz+.........
(PID.TID 0000.0001) //     11 ...........+wwy+.+wwy+..........
(PID.TID 0000.0001) //     10 ..........zzzywyzzzywy+.........
(PID.TID 0000.0001) //      9 ..z.......+zxsmm+zxsmmm+....z...
(PID.TID 0000.0001) //      8 ..s.....zzzxumjjzxumjjjjuz..s...
(PID.TID 0000.0001) //      7 pmj......z.+zmjg.+zmjggggjpmj...
(PID.TID 0000.0001) //      6 ggg.........zxmj..zxmjggggggg...
(PID.TID 0000.0001) //      5 ggg..........zzs...zzsjgggggg...
(PID.TID 0000.0001) //      4 ccg............z.....zzmgcccg...
(PID.TID 0000.0001) //      3 cc-..........+.z...+.zzxmgcc-...
(PID.TID 0000.0001) //      2 jc-.......+zzz..+zzz..zzsmjc-...
(PID.TID 0000.0001) //      1 wc-........++z++.++z+++z+wwc-...
(PID.TID 0000.0001) //      0 ....zyyz......................zy
(PID.TID 0000.0001) //     -1 ...yxwwuspxyxz..xyxz.........yxw
(PID.TID 0000.0001) //     -2 ....+wwspppsxzz.psxzz.........+w
(PID.TID 0000.0001) // =======================================================
(PID.TID 0000.0001) // END OF FIELD                                          =
(PID.TID 0000.0001) // =======================================================
(PID.TID 0000.0001) 
(PID.TID 0000.0001) // =======================================================
(PID.TID 0000.0001) // Field Model Ro_surf (ini_masks_etc) at iteration          1
(PID.TID 0000.0001) // CMIN =          1.000000000000000E+32
(PID.TID 0000.0001) // CMAX =         -1.000000000000000E+32
(PID.TID 0000.0001) // CINT =          0.000000000000000E+00
(PID.TID 0000.0001) // SYMBOLS (CMIN->CMAX): -abcdefghijklmnopqrstuvwxyz+
(PID.TID 0000.0001) //                  0.0: .
(PID.TID 0000.0001) // RANGE I (Lo:Hi:Step):(  -2:  23:   1)
(PID.TID 0000.0001) // RANGE J (Lo:Hi:Step):(  19:  -2:  -1)
(PID.TID 0000.0001) // RANGE K (Lo:Hi:Step):(   1:   1:   1)
(PID.TID 0000.0001) // =======================================================
(PID.TID 0000.0001) // =======================================================
(PID.TID 0000.0001) // END OF FIELD                                          =
(PID.TID 0000.0001) // =======================================================
(PID.TID 0000.0001) 
(PID.TID 0000.0001) // =======================================================
(PID.TID 0000.0001) // Field hFacC at iteration          1
(PID.TID 0000.0001) // CMIN =          1.000000000000000E+00
(PID.TID 0000.0001) // CMAX =          1.000000000000000E+00
(PID.TID 0000.0001) // CINT =          0.000000000000000E+00
(PID.TID 0000.0001) // SYMBOLS (CMIN->CMAX): -abcdefghijklmnopqrstuvwxyz+
(PID.TID 0000.0001) //                  0.0: .
(PID.TID 0000.0001) // RANGE I (Lo:Hi:Step):(  -2:  23:   1)
(PID.TID 0000.0001) // RANGE J (Lo:Hi:Step):(  19:  -2:  -1)
(PID.TID 0000.0001) // RANGE K (Lo:Hi:Step):(   1:   1:   1)
(PID.TID 0000.0001) // =======================================================
(PID.TID 0000.0001) // =======================================================
(PID.TID 0000.0001) // END OF FIELD                                          =
(PID.TID 0000.0001) // =======================================================
(PID.TID 0000.0001) 
(PID.TID 0000.0001) // =======================================================
(PID.TID 0000.0001) // Field hFacW at iteration          1
(PID.TID 0000.0001) // CMIN =          1.000000000000000E+00
(PID.TID 0000.0001) // CMAX =          1.000000000000000E+00
(PID.TID 0000.0001) // CINT =          0.000000000000000E+00
(PID.TID 0000.0001) // SYMBOLS (CMIN->CMAX): -abcdefghijklmnopqrstuvwxyz+
(PID.TID 0000.0001) //                  0.0: .
(PID.TID 0000.0001) // RANGE I (Lo:Hi:Step):(  -2:  23:   1)
(PID.TID 0000.0001) // RANGE J (Lo:Hi:Step):(  19:  -2:  -1)
(PID.TID 0000.0001) // RANGE K (Lo:Hi:Step):(   1:   1:   1)
(PID.TID 0000.0001) // =======================================================
(PID.TID 0000.0001) // =======================================================
(PID.TID 0000.0001) // END OF FIELD                                          =
(PID.TID 0000.0001) // =======================================================
(PID.TID 0000.0001) 
(PID.TID 0000.0001) // =======================================================
(PID.TID 0000.0001) // Field hFacS at iteration          1
(PID.TID 0000.0001) // CMIN =          1.000000000000000E+00
(PID.TID 0000.0001) // CMAX =          1.000000000000000E+00
(PID.TID 0000.0001) // CINT =          0.000000000000000E+00
(PID.TID 0000.0001) // SYMBOLS (CMIN->CMAX): -abcdefghijklmnopqrstuvwxyz+
(PID.TID 0000.0001) //                  0.0: .
(PID.TID 0000.0001) // RANGE I (Lo:Hi:Step):(  -2:  23:   1)
(PID.TID 0000.0001) // RANGE J (Lo:Hi:Step):(  19:  -2:  -1)
(PID.TID 0000.0001) // RANGE K (Lo:Hi:Step):(   1:   1:   1)
(PID.TID 0000.0001) // =======================================================
(PID.TID 0000.0001) // =======================================================
(PID.TID 0000.0001) // END OF FIELD                                          =
(PID.TID 0000.0001) // =======================================================
(PID.TID 0000.0001) 
(PID.TID 0000.0001) 
(PID.TID 0000.0001) // ===================================
(PID.TID 0000.0001) // GAD parameters :
(PID.TID 0000.0001) // ===================================
(PID.TID 0000.0001) tempAdvScheme =   /* Temp. Horiz.Advection scheme selector */
(PID.TID 0000.0001)                       2
(PID.TID 0000.0001)     ;
(PID.TID 0000.0001) tempVertAdvScheme =   /* Temp. Vert. Advection scheme selector */
(PID.TID 0000.0001)                       2
(PID.TID 0000.0001)     ;
(PID.TID 0000.0001) tempMultiDimAdvec =   /* use Muti-Dim Advec method for Temp */
(PID.TID 0000.0001)                   F
(PID.TID 0000.0001)     ;
(PID.TID 0000.0001) tempAdamsBashforth =   /* use Adams-Bashforth time-stepping for Temp */
(PID.TID 0000.0001)                   T
(PID.TID 0000.0001)     ;
(PID.TID 0000.0001) saltAdvScheme =   /* Salt. Horiz.advection scheme selector */
(PID.TID 0000.0001)                       2
(PID.TID 0000.0001)     ;
(PID.TID 0000.0001) saltVertAdvScheme =   /* Salt. Vert. Advection scheme selector */
(PID.TID 0000.0001)                       2
(PID.TID 0000.0001)     ;
(PID.TID 0000.0001) saltMultiDimAdvec =   /* use Muti-Dim Advec method for Salt */
(PID.TID 0000.0001)                   F
(PID.TID 0000.0001)     ;
(PID.TID 0000.0001) saltAdamsBashforth =   /* use Adams-Bashforth time-stepping for Salt */
(PID.TID 0000.0001)                   T
(PID.TID 0000.0001)     ;
(PID.TID 0000.0001) // ===================================
(PID.TID 0000.0001) ------------------------------------------------------------
(PID.TID 0000.0001) DIAGNOSTICS_SET_LEVELS: done
(PID.TID 0000.0001)  Total Nb of available Diagnostics: ndiagt= 130
(PID.TID 0000.0001)  write list of available Diagnostics to file: available_diagnostics.log
(PID.TID 0000.0001) SETDIAG: Allocate  1 Levels for Diagnostic # 104 EXFtaux
(PID.TID 0000.0001) SETDIAG: Allocate  1 Levels for Diagnostic # 105 EXFtauy
(PID.TID 0000.0001) SETDIAG: Allocate  1 Levels for Diagnostic # 103 EXFqnet
(PID.TID 0000.0001) SETDIAG: Allocate  1 Levels for Diagnostic # 112 EXFempmr
(PID.TID 0000.0001) SETDIAG: Allocate  1 Levels for Diagnostic #  98 EXFhl
(PID.TID 0000.0001) SETDIAG: Allocate  1 Levels for Diagnostic #  97 EXFhs
(PID.TID 0000.0001) SETDIAG: Allocate  1 Levels for Diagnostic # 100 EXFswnet
(PID.TID 0000.0001) SETDIAG: Allocate  1 Levels for Diagnostic #  99 EXFlwnet
(PID.TID 0000.0001) SETDIAG: Allocate  1 Levels for Diagnostic # 106 EXFuwind
(PID.TID 0000.0001) SETDIAG: Allocate  1 Levels for Diagnostic # 107 EXFvwind
(PID.TID 0000.0001) SETDIAG: Allocate  1 Levels for Diagnostic # 108 EXFatemp
(PID.TID 0000.0001)   space allocated for all diagnostics:    11 levels
(PID.TID 0000.0001) DIAGNOSTICS_SET_POINTERS: Set levels for Outp.Stream: EXFtaux
(PID.TID 0000.0001)  Levels:       1.
(PID.TID 0000.0001) DIAGNOSTICS_SET_POINTERS: Set levels for Outp.Stream: EXFtauy
(PID.TID 0000.0001)  Levels:       1.
(PID.TID 0000.0001) DIAGNOSTICS_SET_POINTERS: Set levels for Outp.Stream: EXFqnet
(PID.TID 0000.0001)  Levels:       1.
(PID.TID 0000.0001) DIAGNOSTICS_SET_POINTERS: Set levels for Outp.Stream: EXFempmr
(PID.TID 0000.0001)  Levels:       1.
(PID.TID 0000.0001) DIAGNOSTICS_SET_POINTERS: Set levels for Outp.Stream: EXFhl
(PID.TID 0000.0001)  Levels:       1.
(PID.TID 0000.0001) DIAGNOSTICS_SET_POINTERS: Set levels for Outp.Stream: EXFhs
(PID.TID 0000.0001)  Levels:       1.
(PID.TID 0000.0001) DIAGNOSTICS_SET_POINTERS: Set levels for Outp.Stream: EXFswnet
(PID.TID 0000.0001)  Levels:       1.
(PID.TID 0000.0001) DIAGNOSTICS_SET_POINTERS: Set levels for Outp.Stream: EXFlwnet
(PID.TID 0000.0001)  Levels:       1.
(PID.TID 0000.0001) DIAGNOSTICS_SET_POINTERS: Set levels for Outp.Stream: EXFuwind
(PID.TID 0000.0001)  Levels:       1.
(PID.TID 0000.0001) DIAGNOSTICS_SET_POINTERS: Set levels for Outp.Stream: EXFvwind
(PID.TID 0000.0001)  Levels:       1.
(PID.TID 0000.0001) DIAGNOSTICS_SET_POINTERS: Set levels for Outp.Stream: EXFatemp
(PID.TID 0000.0001)  Levels:       1.
(PID.TID 0000.0001) DIAGNOSTICS_SET_POINTERS: done
(PID.TID 0000.0001) ------------------------------------------------------------
(PID.TID 0000.0001)   space allocated for all stats-diags:     0 levels
(PID.TID 0000.0001) DIAGSTATS_SET_POINTERS: done
(PID.TID 0000.0001) ------------------------------------------------------------
(PID.TID 0000.0001) KPP_CHECK: #define ALLOW_KPP
(PID.TID 0000.0001) GMREDI_CHECK: #define GMREDI
(PID.TID 0000.0001) GM_AdvForm =  /* if FALSE => use SkewFlux Form */
(PID.TID 0000.0001)                   F
(PID.TID 0000.0001)     ;
(PID.TID 0000.0001) GM_AdvSeparate = /* Calc Bolus & Euler Adv. separately */
(PID.TID 0000.0001)                   F
(PID.TID 0000.0001)     ;
(PID.TID 0000.0001) GM_ExtraDiag =  /* Tensor Extra Diag (line 1&2) non 0 */
(PID.TID 0000.0001)                   F
(PID.TID 0000.0001)     ;
(PID.TID 0000.0001) GM_isopycK =   /* Background Isopyc. Diffusivity ( m^2/s ) */
(PID.TID 0000.0001)                 5.710000000000000E+02
(PID.TID 0000.0001)     ;
(PID.TID 0000.0001)  GM_skewflx*K =   /* Background GM_SkewFlx Diffusivity ( m^2/s ) */
(PID.TID 0000.0001)                 5.710000000000000E+02
(PID.TID 0000.0001)     ;
(PID.TID 0000.0001)  GM_advec*K =   /* Backg. GM-Advec(=Bolus) Diffusivity ( m^2/s ) */
(PID.TID 0000.0001)                 0.000000000000000E+00
(PID.TID 0000.0001)     ;
(PID.TID 0000.0001)  GM_Visbeck_alpha =   /* Visbeck alpha coeff. ( ) */
(PID.TID 0000.0001)                 0.000000000000000E+00
(PID.TID 0000.0001)     ;
(PID.TID 0000.0001)  Tapering/Cliping : ldd97
(PID.TID 0000.0001)  GM_Small_Number =  /* epsilon used in slope calc */
(PID.TID 0000.0001)                 1.000000000000000E-12
(PID.TID 0000.0001)     ;
(PID.TID 0000.0001)  GM_slopeSqCutoff =  /* Slope^2 cut-off value */
(PID.TID 0000.0001)                 1.000000000000000E+48
(PID.TID 0000.0001)     ;
(PID.TID 0000.0001) SEAICE_CHECK: #define ALLOW_SEAICE
(PID.TID 0000.0001) %MON fCori_max                    =   1.4171638136144E-04
(PID.TID 0000.0001) %MON fCori_min                    =   1.0637108408252E-04
(PID.TID 0000.0001) %MON fCori_mean                   =   1.2676338344768E-04
(PID.TID 0000.0001) %MON fCori_sd                     =   1.1001401444773E-05
(PID.TID 0000.0001) %MON fCoriG_max                   =   1.4112379284621E-04
(PID.TID 0000.0001) %MON fCoriG_min                   =   1.0462373297123E-04
(PID.TID 0000.0001) %MON fCoriG_mean                  =   1.2556776212280E-04
(PID.TID 0000.0001) %MON fCoriG_sd                    =   1.1352720951562E-05
(PID.TID 0000.0001) %MON fCoriCos_max                 =   9.9192640635770E-05
(PID.TID 0000.0001) %MON fCoriCos_min                 =   3.2717804617776E-05
(PID.TID 0000.0001) %MON fCoriCos_mean                =   6.7401286568454E-05
(PID.TID 0000.0001) %MON fCoriCos_sd                  =   2.0519937554777E-05
(PID.TID 0000.0001) INI_CG2D: CG2D normalisation factor =  1.6094939840939192E-04
(PID.TID 0000.0001) 
(PID.TID 0000.0001) CONFIG_CHECK: OK
(PID.TID 0000.0001) // =======================================================
(PID.TID 0000.0001) // Model configuration
(PID.TID 0000.0001) // =======================================================
(PID.TID 0000.0001) //
(PID.TID 0000.0001) // "Physical" paramters ( PARM01 in namelist )
(PID.TID 0000.0001) //
(PID.TID 0000.0001) buoyancyRelation = OCEANIC
(PID.TID 0000.0001) fluidIsAir  =  /* fluid major constituent is Air */
(PID.TID 0000.0001)                   F
(PID.TID 0000.0001)     ;
(PID.TID 0000.0001) fluidIsWater=  /* fuild major constituent is Water */
(PID.TID 0000.0001)                   T
(PID.TID 0000.0001)     ;
(PID.TID 0000.0001) usingPCoords =  /* use p (or p*) vertical coordinate */
(PID.TID 0000.0001)                   F
(PID.TID 0000.0001)     ;
(PID.TID 0000.0001) usingZCoords =  /* use z (or z*) vertical coordinate */
(PID.TID 0000.0001)                   T
(PID.TID 0000.0001)     ;
(PID.TID 0000.0001) tRef =   /* Reference temperature profile ( oC or oK ) */
(PID.TID 0000.0001)                 2.400000000000000E+01,      /* K =  1 */
(PID.TID 0000.0001)                 2.300000000000000E+01,      /* K =  2 */
(PID.TID 0000.0001)                 2.200000000000000E+01,      /* K =  3 */
(PID.TID 0000.0001)                 2.100000000000000E+01,      /* K =  4 */
(PID.TID 0000.0001)                 2.000000000000000E+01,      /* K =  5 */
(PID.TID 0000.0001)                 1.900000000000000E+01,      /* K =  6 */
(PID.TID 0000.0001)                 1.800000000000000E+01,      /* K =  7 */
(PID.TID 0000.0001)                 1.700000000000000E+01,      /* K =  8 */
(PID.TID 0000.0001)                 1.600000000000000E+01,      /* K =  9 */
(PID.TID 0000.0001)                 1.500000000000000E+01,      /* K = 10 */
(PID.TID 0000.0001)                 1.400000000000000E+01,      /* K = 11 */
(PID.TID 0000.0001)                 1.300000000000000E+01,      /* K = 12 */
(PID.TID 0000.0001)                 1.200000000000000E+01,      /* K = 13 */
(PID.TID 0000.0001)                 1.100000000000000E+01,      /* K = 14 */
(PID.TID 0000.0001)                 1.000000000000000E+01,      /* K = 15 */
(PID.TID 0000.0001)                 9.000000000000000E+00,      /* K = 16 */
(PID.TID 0000.0001)                 8.000000000000000E+00,      /* K = 17 */
(PID.TID 0000.0001)                 7.000000000000000E+00,      /* K = 18 */
(PID.TID 0000.0001)                 6.000000000000000E+00,      /* K = 19 */
(PID.TID 0000.0001)                 5.000000000000000E+00,      /* K = 20 */
(PID.TID 0000.0001)                 4.000000000000000E+00,      /* K = 21 */
(PID.TID 0000.0001)                 3.000000000000000E+00,      /* K = 22 */
(PID.TID 0000.0001)                 2.000000000000000E+00       /* K = 23 */
(PID.TID 0000.0001)     ;
(PID.TID 0000.0001) sRef =   /* Reference salinity profile ( ppt ) */
(PID.TID 0000.0001)                 3.465000000000000E+01,      /* K =  1 */
(PID.TID 0000.0001)                 3.475000000000000E+01,      /* K =  2 */
(PID.TID 0000.0001)                 3.482000000000000E+01,      /* K =  3 */
(PID.TID 0000.0001)                 3.487000000000000E+01,      /* K =  4 */
(PID.TID 0000.0001)     2 @  3.490000000000000E+01,             /* K =  5:  6 */
(PID.TID 0000.0001)                 3.486000000000000E+01,      /* K =  7 */
(PID.TID 0000.0001)                 3.478000000000000E+01,      /* K =  8 */
(PID.TID 0000.0001)                 3.469000000000000E+01,      /* K =  9 */
(PID.TID 0000.0001)                 3.460000000000000E+01,      /* K = 10 */
(PID.TID 0000.0001)                 3.458000000000000E+01,      /* K = 11 */
(PID.TID 0000.0001)                 3.462000000000000E+01,      /* K = 12 */
(PID.TID 0000.0001)                 3.468000000000000E+01,      /* K = 13 */
(PID.TID 0000.0001)                 3.472000000000000E+01,      /* K = 14 */
(PID.TID 0000.0001)                 3.473000000000000E+01,      /* K = 15 */
(PID.TID 0000.0001)                 3.474000000000000E+01,      /* K = 16 */
(PID.TID 0000.0001)     2 @  3.473000000000000E+01,             /* K = 17: 18 */
(PID.TID 0000.0001)     2 @  3.472000000000000E+01,             /* K = 19: 20 */
(PID.TID 0000.0001)                 3.471000000000000E+01,      /* K = 21 */
(PID.TID 0000.0001)                 3.470000000000000E+01,      /* K = 22 */
(PID.TID 0000.0001)                 3.469000000000000E+01       /* K = 23 */
(PID.TID 0000.0001)     ;
(PID.TID 0000.0001) viscAh =   /* Lateral eddy viscosity ( m^2/s ) */
(PID.TID 0000.0001)                 5.000000000000000E+04
(PID.TID 0000.0001)     ;
(PID.TID 0000.0001) viscAhMax =   /* Maximum lateral eddy viscosity ( m^2/s ) */
(PID.TID 0000.0001)                 1.000000000000000E+21
(PID.TID 0000.0001)     ;
(PID.TID 0000.0001) viscAhGrid =   /* Grid dependent lateral eddy viscosity ( non-dim. ) */
(PID.TID 0000.0001)                 0.000000000000000E+00
(PID.TID 0000.0001)     ;
(PID.TID 0000.0001) useFullLeith =   /* Use Full Form of Leith Viscosity on/off flag*/
(PID.TID 0000.0001)                   F
(PID.TID 0000.0001)     ;
(PID.TID 0000.0001) viscC2leith = /* Leith harmonic viscosity factor (on grad(vort),non-dim.) */
(PID.TID 0000.0001)                 0.000000000000000E+00
(PID.TID 0000.0001)     ;
(PID.TID 0000.0001) viscC2leithD = /* Leith harmonic viscosity factor (on grad(div),non-dim.) */
(PID.TID 0000.0001)                 0.000000000000000E+00
(PID.TID 0000.0001)     ;
(PID.TID 0000.0001) viscC2smag =   /* Smagorinsky harmonic viscosity factor (non-dim.) */
(PID.TID 0000.0001)                 0.000000000000000E+00
(PID.TID 0000.0001)     ;
(PID.TID 0000.0001) viscA4 =   /* Lateral biharmonic viscosity ( m^4/s ) */
(PID.TID 0000.0001)                 0.000000000000000E+00
(PID.TID 0000.0001)     ;
(PID.TID 0000.0001) viscA4Max =   /* Maximum biharmonic viscosity ( m^2/s ) */
(PID.TID 0000.0001)                 1.000000000000000E+21
(PID.TID 0000.0001)     ;
(PID.TID 0000.0001) viscA4Grid =   /* Grid dependent biharmonic viscosity ( non-dim. ) */
(PID.TID 0000.0001)                 0.000000000000000E+00
(PID.TID 0000.0001)     ;
(PID.TID 0000.0001) viscC4leith = /* Leith biharm viscosity factor (on grad(vort), non-dim.) */
(PID.TID 0000.0001)                 0.000000000000000E+00
(PID.TID 0000.0001)     ;
(PID.TID 0000.0001) viscC4leithD = /* Leith biharm viscosity factor (on grad(div), non-dim.) */
(PID.TID 0000.0001)                 0.000000000000000E+00
(PID.TID 0000.0001)     ;
(PID.TID 0000.0001) no_slip_sides =  /* Viscous BCs: No-slip sides */
(PID.TID 0000.0001)                   F
(PID.TID 0000.0001)     ;
(PID.TID 0000.0001) viscAr =   /* Vertical eddy viscosity ( units of r^2/s ) */
(PID.TID 0000.0001)                 1.930000000000000E-05
(PID.TID 0000.0001)     ;
(PID.TID 0000.0001) no_slip_bottom =  /* Viscous BCs: No-slip bottom */
(PID.TID 0000.0001)                   T
(PID.TID 0000.0001)     ;
(PID.TID 0000.0001) diffKhT =   /* Laplacian diffusion of heat laterally ( m^2/s ) */
(PID.TID 0000.0001)                 0.000000000000000E+00
(PID.TID 0000.0001)     ;
(PID.TID 0000.0001) diffK4T =   /* Bihaarmonic diffusion of heat laterally ( m^4/s ) */
(PID.TID 0000.0001)                 0.000000000000000E+00
(PID.TID 0000.0001)     ;
(PID.TID 0000.0001) diffKhS =   /* Laplacian diffusion of salt laterally ( m^2/s ) */
(PID.TID 0000.0001)                 0.000000000000000E+00
(PID.TID 0000.0001)     ;
(PID.TID 0000.0001) diffK4S =   /* Bihaarmonic diffusion of salt laterally ( m^4/s ) */
(PID.TID 0000.0001)                 0.000000000000000E+00
(PID.TID 0000.0001)     ;
(PID.TID 0000.0001) diffKrNrT = /* vertical profile of vertical diffusion of Temp ( m^2/s )*/
(PID.TID 0000.0001)    23 @  1.460000000000000E-05              /* K =  1: 23 */
(PID.TID 0000.0001)     ;
(PID.TID 0000.0001) diffKrNrS = /* vertical profile of vertical diffusion of Salt ( m^2/s )*/
(PID.TID 0000.0001)    23 @  1.460000000000000E-05              /* K =  1: 23 */
(PID.TID 0000.0001)     ;
(PID.TID 0000.0001) diffKrBL79surf =   /* Surface diffusion for Bryan and Lewis 1979 ( m^2/s ) */
(PID.TID 0000.0001)                 0.000000000000000E+00
(PID.TID 0000.0001)     ;
(PID.TID 0000.0001) diffKrBL79deep =   /* Deep diffusion for Bryan and Lewis 1979 ( m^2/s ) */
(PID.TID 0000.0001)                 0.000000000000000E+00
(PID.TID 0000.0001)     ;
(PID.TID 0000.0001) diffKrBL79scl =   /* Depth scale for Bryan and Lewis 1979 ( m ) */
(PID.TID 0000.0001)                 2.000000000000000E+02
(PID.TID 0000.0001)     ;
(PID.TID 0000.0001) diffKrBL79Ho =   /* Turning depth for Bryan and Lewis 1979 ( m ) */
(PID.TID 0000.0001)                -2.000000000000000E+03
(PID.TID 0000.0001)     ;
(PID.TID 0000.0001)  Equation of State : eosType = POLY3
(PID.TID 0000.0001) tAlpha =   /* Linear EOS thermal expansion coefficient ( 1/degree ) */
(PID.TID 0000.0001)                 2.000000000000000E-04
(PID.TID 0000.0001)     ;
(PID.TID 0000.0001) sBeta =   /* Linear EOS haline contraction coefficient ( 1/ppt ) */
(PID.TID 0000.0001)                 7.400000000000000E-04
(PID.TID 0000.0001)     ;
(PID.TID 0000.0001)   1  13.499  32.600  24.480  -0.201   0.771  -0.005  -0.002   0.000   0.000   0.000   0.000   0.000
(PID.TID 0000.0001)   2  13.498  32.600  24.525  -0.202   0.771  -0.005  -0.002   0.000   0.000   0.000   0.000   0.000
(PID.TID 0000.0001)   3  13.496  32.600  24.581  -0.202   0.771  -0.005  -0.002   0.000   0.000   0.000   0.000   0.000
(PID.TID 0000.0001)   4  13.494  32.600  24.660  -0.202   0.771  -0.005  -0.002   0.000   0.000   0.000   0.000   0.000
(PID.TID 0000.0001)   5  13.491  32.600  24.750  -0.203   0.771  -0.005  -0.002   0.000   0.000   0.000   0.000   0.000
(PID.TID 0000.0001)   6  13.488  32.600  24.851  -0.203   0.770  -0.005  -0.002   0.000   0.000   0.000   0.000   0.000
(PID.TID 0000.0001)   7  13.484  32.600  24.985  -0.204   0.770  -0.005  -0.002   0.000   0.000   0.000   0.000   0.000
(PID.TID 0000.0001)   8  13.478  32.600  25.176  -0.204   0.770  -0.005  -0.002   0.000   0.000   0.000   0.000   0.000
(PID.TID 0000.0001)   9  13.469  32.600  25.456  -0.205   0.769  -0.005  -0.002   0.000   0.000   0.000   0.000   0.000
(PID.TID 0000.0001)  10   8.467  35.150  28.748  -0.163   0.781  -0.005  -0.002   0.001   0.000   0.000   0.000   0.000
(PID.TID 0000.0001)  11   8.454  35.150  29.315  -0.166   0.780  -0.005  -0.002   0.001   0.000   0.000   0.000   0.000
(PID.TID 0000.0001)  12   5.946  34.900  30.300  -0.143   0.785  -0.006  -0.002   0.001   0.000   0.000   0.000   0.000
(PID.TID 0000.0001)  13   4.433  34.900  31.591  -0.132   0.786  -0.006  -0.003   0.000   0.000   0.000   0.000   0.000
(PID.TID 0000.0001)  14   3.909  34.750  32.966  -0.134   0.785  -0.006  -0.003   0.000   0.000   0.000   0.000   0.000
(PID.TID 0000.0001)  15   1.899  34.800  35.002  -0.121   0.787  -0.006  -0.003   0.000   0.000   0.000   0.000   0.000
(PID.TID 0000.0001)  16   1.372  34.750  36.991  -0.127   0.785  -0.006  -0.003  -0.001   0.000   0.000   0.000   0.000
(PID.TID 0000.0001)  17   1.332  34.800  39.171  -0.140   0.782  -0.006  -0.003  -0.001   0.000   0.000   0.000   0.000
(PID.TID 0000.0001)  18   0.797  34.800  41.472  -0.147   0.779  -0.006  -0.003  -0.001   0.000   0.000   0.000   0.000
(PID.TID 0000.0001)  19   0.749  34.800  43.682  -0.160   0.775  -0.005  -0.002  -0.002   0.000   0.000   0.000   0.000
(PID.TID 0000.0001)  20   0.214  34.750  45.912  -0.168   0.772  -0.005  -0.002  -0.002   0.000   0.000   0.000   0.000
(PID.TID 0000.0001)  21   0.160  34.750  48.080  -0.181   0.768  -0.005  -0.002  -0.003   0.000   0.000   0.000   0.000
(PID.TID 0000.0001)  22   0.584  34.750  50.131  -0.197   0.763  -0.005  -0.002  -0.001   0.000   0.000   0.000   0.000
(PID.TID 0000.0001)  23   0.522  34.750  52.248  -0.209   0.760  -0.005  -0.002  -0.002   0.000   0.000   0.000   0.000
(PID.TID 0000.0001) rhonil =   /* Reference density ( kg/m^3 ) */
(PID.TID 0000.0001)                 1.027000000000000E+03
(PID.TID 0000.0001)     ;
(PID.TID 0000.0001) rhoConst =   /* Reference density ( kg/m^3 ) */
(PID.TID 0000.0001)                 1.027000000000000E+03
(PID.TID 0000.0001)     ;
(PID.TID 0000.0001) rhoConstFresh =   /* Reference density ( kg/m^3 ) */
(PID.TID 0000.0001)                 1.027000000000000E+03
(PID.TID 0000.0001)     ;
(PID.TID 0000.0001) gravity =   /* Gravitational acceleration ( m/s^2 ) */
(PID.TID 0000.0001)                 9.815600000000000E+00
(PID.TID 0000.0001)     ;
(PID.TID 0000.0001) gBaro =   /* Barotropic gravity ( m/s^2 ) */
(PID.TID 0000.0001)                 9.815600000000000E+00
(PID.TID 0000.0001)     ;
(PID.TID 0000.0001) rotationPeriod =   /* Rotation Period ( s ) */
(PID.TID 0000.0001)                 8.640000000000000E+04
(PID.TID 0000.0001)     ;
(PID.TID 0000.0001) omega =   /* Angular velocity ( rad/s ) */
(PID.TID 0000.0001)                 7.272205216643040E-05
(PID.TID 0000.0001)     ;
(PID.TID 0000.0001) f0 =   /* Reference coriolis parameter ( 1/s ) */
(PID.TID 0000.0001)                 1.000000000000000E-04
(PID.TID 0000.0001)     ;
(PID.TID 0000.0001) beta =   /* Beta ( 1/(m.s) ) */
(PID.TID 0000.0001)                 9.999999999999999E-12
(PID.TID 0000.0001)     ;
(PID.TID 0000.0001) freeSurfFac =   /* Implicit free surface factor */
(PID.TID 0000.0001)                 1.000000000000000E+00
(PID.TID 0000.0001)     ;
(PID.TID 0000.0001) implicitFreeSurface =   /* Implicit free surface on/off flag */
(PID.TID 0000.0001)                   T
(PID.TID 0000.0001)     ;
(PID.TID 0000.0001) rigidLid =   /* Rigid lid on/off flag */
(PID.TID 0000.0001)                   F
(PID.TID 0000.0001)     ;
(PID.TID 0000.0001) implicSurfPress =   /* Surface Pressure implicit factor (0-1)*/
(PID.TID 0000.0001)                 1.000000000000000E+00
(PID.TID 0000.0001)     ;
(PID.TID 0000.0001) implicDiv2Dflow =   /* Barot. Flow Div. implicit factor (0-1)*/
(PID.TID 0000.0001)                 1.000000000000000E+00
(PID.TID 0000.0001)     ;
(PID.TID 0000.0001) exactConserv =   /* Exact Volume Conservation on/off flag*/
(PID.TID 0000.0001)                   F
(PID.TID 0000.0001)     ;
(PID.TID 0000.0001) uniformLin_PhiSurf =   /* use uniform Bo_surf on/off flag*/
(PID.TID 0000.0001)                   T
(PID.TID 0000.0001)     ;
(PID.TID 0000.0001) nonlinFreeSurf =   /* Non-linear Free Surf. options (-1,0,1,2,3)*/
(PID.TID 0000.0001)                       0
(PID.TID 0000.0001)     ;
(PID.TID 0000.0001)      -1,0= Off ; 1,2,3= On, 2=+rescale gU,gV, 3=+update cg2d solv.
(PID.TID 0000.0001) hFacInf =   /* lower threshold for hFac (nonlinFreeSurf only)*/
(PID.TID 0000.0001)                 2.000000000000000E-01
(PID.TID 0000.0001)     ;
(PID.TID 0000.0001) hFacSup =   /* upper threshold for hFac (nonlinFreeSurf only)*/
(PID.TID 0000.0001)                 2.000000000000000E+00
(PID.TID 0000.0001)     ;
(PID.TID 0000.0001) select_rStar =   /* r* Coordinate options (not yet implemented)*/
(PID.TID 0000.0001)                       0
(PID.TID 0000.0001)     ;
(PID.TID 0000.0001) useRealFreshWaterFlux =   /* Real Fresh Water Flux on/off flag*/
(PID.TID 0000.0001)                   F
(PID.TID 0000.0001)     ;
(PID.TID 0000.0001) convertFW2Salt = /* convert F.W. Flux to Salt Flux (-1=use local S)(ppt)*/
(PID.TID 0000.0001)                 3.500000000000000E+01
(PID.TID 0000.0001)     ;
(PID.TID 0000.0001) nonHydrostatic =  /* Non-Hydrostatic on/off flag */
(PID.TID 0000.0001)                   F
(PID.TID 0000.0001)     ;
(PID.TID 0000.0001) momStepping =  /* Momentum equation on/off flag */
(PID.TID 0000.0001)                   T
(PID.TID 0000.0001)     ;
(PID.TID 0000.0001) momAdvection =  /* Momentum advection on/off flag */
(PID.TID 0000.0001)                   T
(PID.TID 0000.0001)     ;
(PID.TID 0000.0001) momViscosity =  /* Momentum viscosity on/off flag */
(PID.TID 0000.0001)                   T
(PID.TID 0000.0001)     ;
(PID.TID 0000.0001) momImplVertAdv =/* Momentum implicit vert. advection on/off*/
(PID.TID 0000.0001)                   F
(PID.TID 0000.0001)     ;
(PID.TID 0000.0001) implicitViscosity = /* Implicit viscosity on/off flag */
(PID.TID 0000.0001)                   T
(PID.TID 0000.0001)     ;
(PID.TID 0000.0001) useCoriolis =  /* Coriolis on/off flag */
(PID.TID 0000.0001)                   T
(PID.TID 0000.0001)     ;
(PID.TID 0000.0001) useCDscheme =  /* CD scheme on/off flag */
(PID.TID 0000.0001)                   T
(PID.TID 0000.0001)     ;
(PID.TID 0000.0001) useJamartWetPoints= /* Coriolis WetPoints method flag */
(PID.TID 0000.0001)                   F
(PID.TID 0000.0001)     ;
(PID.TID 0000.0001) useJamartMomAdv= /* V.I. Non-linear terms Jamart flag */
(PID.TID 0000.0001)                   F
(PID.TID 0000.0001)     ;
(PID.TID 0000.0001) SadournyCoriolis= /* Sadourny Coriolis discr. flag */
(PID.TID 0000.0001)                   F
(PID.TID 0000.0001)     ;
(PID.TID 0000.0001) upwindVorticity= /* Upwind bias vorticity flag */
(PID.TID 0000.0001)                   F
(PID.TID 0000.0001)     ;
(PID.TID 0000.0001) useAbsVorticity= /* Work with f+zeta in Coriolis */
(PID.TID 0000.0001)                   F
(PID.TID 0000.0001)     ;
(PID.TID 0000.0001) highOrderVorticity= /* High order interp. of vort. flag */
(PID.TID 0000.0001)                   F
(PID.TID 0000.0001)     ;
(PID.TID 0000.0001) upwindShear= /* Upwind vertical Shear advection flag */
(PID.TID 0000.0001)                   F
(PID.TID 0000.0001)     ;
(PID.TID 0000.0001) momForcing =  /* Momentum forcing on/off flag */
(PID.TID 0000.0001)                   T
(PID.TID 0000.0001)     ;
(PID.TID 0000.0001) momPressureForcing =  /* Momentum pressure term on/off flag */
(PID.TID 0000.0001)                   T
(PID.TID 0000.0001)     ;
(PID.TID 0000.0001) staggerTimeStep =   /* Stagger time stepping on/off flag */
(PID.TID 0000.0001)                   F
(PID.TID 0000.0001)     ;
(PID.TID 0000.0001) multiDimAdvection =   /* enable/disable Multi-Dim Advection */
(PID.TID 0000.0001)                   T
(PID.TID 0000.0001)     ;
(PID.TID 0000.0001) useMultiDimAdvec =   /* Multi-Dim Advection is/is-not used */
(PID.TID 0000.0001)                   F
(PID.TID 0000.0001)     ;
(PID.TID 0000.0001) implicitDiffusion =/* Implicit Diffusion on/off flag */
(PID.TID 0000.0001)                   T
(PID.TID 0000.0001)     ;
(PID.TID 0000.0001) tempStepping =  /* Temperature equation on/off flag */
(PID.TID 0000.0001)                   T
(PID.TID 0000.0001)     ;
(PID.TID 0000.0001) tempAdvection=  /* Temperature advection on/off flag */
(PID.TID 0000.0001)                   T
(PID.TID 0000.0001)     ;
(PID.TID 0000.0001) tempImplVertAdv =/* Temp. implicit vert. advection on/off */
(PID.TID 0000.0001)                   F
(PID.TID 0000.0001)     ;
(PID.TID 0000.0001) tempForcing  =  /* Temperature forcing on/off flag */
(PID.TID 0000.0001)                   T
(PID.TID 0000.0001)     ;
(PID.TID 0000.0001) saltStepping =  /* Salinity equation on/off flag */
(PID.TID 0000.0001)                   T
(PID.TID 0000.0001)     ;
(PID.TID 0000.0001) saltAdvection=  /* Salinity advection on/off flag */
(PID.TID 0000.0001)                   T
(PID.TID 0000.0001)     ;
(PID.TID 0000.0001) saltImplVertAdv =/* Sali. implicit vert. advection on/off */
(PID.TID 0000.0001)                   F
(PID.TID 0000.0001)     ;
(PID.TID 0000.0001) saltForcing  =  /* Salinity forcing on/off flag */
(PID.TID 0000.0001)                   T
(PID.TID 0000.0001)     ;
(PID.TID 0000.0001)  debugMode  =  /* Debug Mode on/off flag */
(PID.TID 0000.0001)                   F
(PID.TID 0000.0001)     ;
(PID.TID 0000.0001)    debLevA  =  /* 1rst level of debugging */
(PID.TID 0000.0001)                       1
(PID.TID 0000.0001)     ;
(PID.TID 0000.0001)    debLevB  =  /* 2nd  level of debugging */
(PID.TID 0000.0001)                       2
(PID.TID 0000.0001)     ;
(PID.TID 0000.0001)  debugLevel =  /* select debugging level */
(PID.TID 0000.0001)                       1
(PID.TID 0000.0001)     ;
(PID.TID 0000.0001) //
(PID.TID 0000.0001) // Elliptic solver(s) paramters ( PARM02 in namelist )
(PID.TID 0000.0001) //
(PID.TID 0000.0001) cg2dMaxIters =   /* Upper limit on 2d con. grad iterations  */
(PID.TID 0000.0001)                     500
(PID.TID 0000.0001)     ;
(PID.TID 0000.0001) cg2dChkResFreq =   /* 2d con. grad convergence test frequency */
(PID.TID 0000.0001)                       1
(PID.TID 0000.0001)     ;
(PID.TID 0000.0001) cg2dTargetResidual =   /* 2d con. grad target residual  */
(PID.TID 0000.0001)                 1.000000000000000E-08
(PID.TID 0000.0001)     ;
(PID.TID 0000.0001) cg2dTargetResWunit =   /* CG2d target residual [W units] */
(PID.TID 0000.0001)                -1.000000000000000E+00
(PID.TID 0000.0001)     ;
(PID.TID 0000.0001) cg2dPreCondFreq =   /* Freq. for updating cg2d preconditioner */
(PID.TID 0000.0001)                       1
(PID.TID 0000.0001)     ;
(PID.TID 0000.0001) //
(PID.TID 0000.0001) // Time stepping paramters ( PARM03 in namelist )
(PID.TID 0000.0001) //
(PID.TID 0000.0001) nIter0 =   /* Run starting timestep number  */
(PID.TID 0000.0001)                       0
(PID.TID 0000.0001)     ;
(PID.TID 0000.0001) nTimeSteps =   /* Number of timesteps */
(PID.TID 0000.0001)                      10
(PID.TID 0000.0001)     ;
(PID.TID 0000.0001) deltatTmom =   /* Momentum equation timestep ( s ) */
(PID.TID 0000.0001)                 3.600000000000000E+03
(PID.TID 0000.0001)     ;
(PID.TID 0000.0001) deltaTfreesurf =   /* FreeSurface equation timestep ( s ) */
(PID.TID 0000.0001)                 3.600000000000000E+03
(PID.TID 0000.0001)     ;
(PID.TID 0000.0001) dTtracerLev =   /* Tracer equation timestep ( s ) */
(PID.TID 0000.0001)    23 @  3.600000000000000E+03              /* K =  1: 23 */
(PID.TID 0000.0001)     ;
(PID.TID 0000.0001) deltatTClock  =   /* Model clock timestep ( s ) */
(PID.TID 0000.0001)                 3.600000000000000E+03
(PID.TID 0000.0001)     ;
(PID.TID 0000.0001) cAdjFreq =   /* Convective adjustment interval ( s ) */
(PID.TID 0000.0001)                 0.000000000000000E+00
(PID.TID 0000.0001)     ;
(PID.TID 0000.0001) forcing_In_AB =   /* put T,S Forcing in Adams-Bash. stepping */
(PID.TID 0000.0001)                   F
(PID.TID 0000.0001)     ;
(PID.TID 0000.0001) abEps =   /* Adams-Bashforth-2 stabilizing weight */
(PID.TID 0000.0001)                 1.000000000000000E-01
(PID.TID 0000.0001)     ;
(PID.TID 0000.0001) tauCD =   /* CD coupling time-scale ( s ) */
(PID.TID 0000.0001)                 1.728000000000000E+05
(PID.TID 0000.0001)     ;
(PID.TID 0000.0001) rCD =   /* Normalised CD coupling parameter */
(PID.TID 0000.0001)                 9.791666666666666E-01
(PID.TID 0000.0001)     ;
(PID.TID 0000.0001) baseTime =   /* Model base time ( s ). */
(PID.TID 0000.0001)                 0.000000000000000E+00
(PID.TID 0000.0001)     ;
(PID.TID 0000.0001) startTime =   /* Run start time ( s ). */
(PID.TID 0000.0001)                 0.000000000000000E+00
(PID.TID 0000.0001)     ;
(PID.TID 0000.0001) endTime =   /* Integration ending time ( s ). */
(PID.TID 0000.0001)                 3.600000000000000E+04
(PID.TID 0000.0001)     ;
(PID.TID 0000.0001) pChkPtFreq =   /* Permanent restart/checkpoint file interval ( s ). */
(PID.TID 0000.0001)                 3.600000000000000E+04
(PID.TID 0000.0001)     ;
(PID.TID 0000.0001) chkPtFreq =   /* Rolling restart/checkpoint file interval ( s ). */
(PID.TID 0000.0001)                 0.000000000000000E+00
(PID.TID 0000.0001)     ;
(PID.TID 0000.0001) pickup_write_mdsio =   /* Model IO flag. */
(PID.TID 0000.0001)                   T
(PID.TID 0000.0001)     ;
(PID.TID 0000.0001) pickup_read_mdsio =   /* Model IO flag. */
(PID.TID 0000.0001)                   T
(PID.TID 0000.0001)     ;
(PID.TID 0000.0001) pickup_write_mnc =   /* Model IO flag. */
(PID.TID 0000.0001)                   F
(PID.TID 0000.0001)     ;
(PID.TID 0000.0001) pickup_read_mnc =   /* Model IO flag. */
(PID.TID 0000.0001)                   F
(PID.TID 0000.0001)     ;
(PID.TID 0000.0001) pickup_write_immed =   /* Model IO flag. */
(PID.TID 0000.0001)                   F
(PID.TID 0000.0001)     ;
(PID.TID 0000.0001) dumpFreq =   /* Model state write out interval ( s ). */
(PID.TID 0000.0001)                 0.000000000000000E+00
(PID.TID 0000.0001)     ;
(PID.TID 0000.0001) snapshot_mdsio =   /* Model IO flag. */
(PID.TID 0000.0001)                   T
(PID.TID 0000.0001)     ;
(PID.TID 0000.0001) snapshot_mnc =   /* Model IO flag. */
(PID.TID 0000.0001)                   F
(PID.TID 0000.0001)     ;
(PID.TID 0000.0001) monitorFreq =   /* Monitor output interval ( s ). */
(PID.TID 0000.0001)                 1.000000000000000E+00
(PID.TID 0000.0001)     ;
(PID.TID 0000.0001) monitor_stdio =   /* Model IO flag. */
(PID.TID 0000.0001)                   T
(PID.TID 0000.0001)     ;
(PID.TID 0000.0001) monitor_mnc =   /* Model IO flag. */
(PID.TID 0000.0001)                   F
(PID.TID 0000.0001)     ;
(PID.TID 0000.0001) externForcingPeriod =   /* forcing period (s) */
(PID.TID 0000.0001)                 0.000000000000000E+00
(PID.TID 0000.0001)     ;
(PID.TID 0000.0001) externForcingCycle =   /* period of the cyle (s). */
(PID.TID 0000.0001)                 0.000000000000000E+00
(PID.TID 0000.0001)     ;
(PID.TID 0000.0001) tauThetaClimRelax =   /* relaxation time scale (s) */
(PID.TID 0000.0001)                 0.000000000000000E+00
(PID.TID 0000.0001)     ;
(PID.TID 0000.0001) tauSaltClimRelax =   /* relaxation time scale (s) */
(PID.TID 0000.0001)                 4.142330000000000E+06
(PID.TID 0000.0001)     ;
(PID.TID 0000.0001) latBandClimRelax =   /* max. Lat. where relaxation */
(PID.TID 0000.0001)                 1.800000000000000E+02
(PID.TID 0000.0001)     ;
(PID.TID 0000.0001) //
(PID.TID 0000.0001) // Gridding paramters ( PARM04 in namelist )
(PID.TID 0000.0001) //
(PID.TID 0000.0001) usingCartesianGrid =   /* Cartesian coordinates flag ( True / False ) */
(PID.TID 0000.0001)                   F
(PID.TID 0000.0001)     ;
(PID.TID 0000.0001) usingSphericalPolarGrid =   /* Spherical coordinates flag ( True / False ) */
(PID.TID 0000.0001)                   T
(PID.TID 0000.0001)     ;
(PID.TID 0000.0001) usingCylindricalGrid =   /* Spherical coordinates flag ( True / False ) */
(PID.TID 0000.0001)                   F
(PID.TID 0000.0001)     ;
(PID.TID 0000.0001) Ro_SeaLevel =   /* r(1) ( units of r ) */
(PID.TID 0000.0001)                 0.000000000000000E+00
(PID.TID 0000.0001)     ;
(PID.TID 0000.0001) rkSign =   /* index orientation relative to vertical coordinate */
(PID.TID 0000.0001)                -1.000000000000000E+00
(PID.TID 0000.0001)     ;
(PID.TID 0000.0001) horiVertRatio =   /* Ratio on units : Horiz - Vertical */
(PID.TID 0000.0001)                 1.000000000000000E+00
(PID.TID 0000.0001)     ;
(PID.TID 0000.0001) drC =   /* C spacing ( units of r ) */
(PID.TID 0000.0001)                 5.000000000000000E+00,      /* K =  1 */
(PID.TID 0000.0001)                 1.000000000000000E+01,      /* K =  2 */
(PID.TID 0000.0001)                 1.250000000000000E+01,      /* K =  3 */
(PID.TID 0000.0001)                 1.750000000000000E+01,      /* K =  4 */
(PID.TID 0000.0001)                 2.000000000000000E+01,      /* K =  5 */
(PID.TID 0000.0001)                 2.250000000000000E+01,      /* K =  6 */
(PID.TID 0000.0001)                 3.000000000000000E+01,      /* K =  7 */
(PID.TID 0000.0001)                 4.250000000000000E+01,      /* K =  8 */
(PID.TID 0000.0001)                 6.250000000000000E+01,      /* K =  9 */
(PID.TID 0000.0001)                 8.750000000000000E+01,      /* K = 10 */
(PID.TID 0000.0001)                 1.250000000000000E+02,      /* K = 11 */
(PID.TID 0000.0001)                 1.750000000000000E+02,      /* K = 12 */
(PID.TID 0000.0001)                 2.375000000000000E+02,      /* K = 13 */
(PID.TID 0000.0001)                 3.125000000000000E+02,      /* K = 14 */
(PID.TID 0000.0001)                 3.825000000000000E+02,      /* K = 15 */
(PID.TID 0000.0001)                 4.325000000000000E+02,      /* K = 16 */
(PID.TID 0000.0001)                 4.750000000000000E+02,      /* K = 17 */
(PID.TID 0000.0001)     6 @  5.000000000000000E+02              /* K = 18: 23 */
(PID.TID 0000.0001)     ;
(PID.TID 0000.0001) drF =   /* W spacing ( units of r ) */
(PID.TID 0000.0001)     2 @  1.000000000000000E+01,             /* K =  1:  2 */
(PID.TID 0000.0001)                 1.500000000000000E+01,      /* K =  3 */
(PID.TID 0000.0001)     2 @  2.000000000000000E+01,             /* K =  4:  5 */
(PID.TID 0000.0001)                 2.500000000000000E+01,      /* K =  6 */
(PID.TID 0000.0001)                 3.500000000000000E+01,      /* K =  7 */
(PID.TID 0000.0001)                 5.000000000000000E+01,      /* K =  8 */
(PID.TID 0000.0001)                 7.500000000000000E+01,      /* K =  9 */
(PID.TID 0000.0001)                 1.000000000000000E+02,      /* K = 10 */
(PID.TID 0000.0001)                 1.500000000000000E+02,      /* K = 11 */
(PID.TID 0000.0001)                 2.000000000000000E+02,      /* K = 12 */
(PID.TID 0000.0001)                 2.750000000000000E+02,      /* K = 13 */
(PID.TID 0000.0001)                 3.500000000000000E+02,      /* K = 14 */
(PID.TID 0000.0001)                 4.150000000000000E+02,      /* K = 15 */
(PID.TID 0000.0001)                 4.500000000000000E+02,      /* K = 16 */
(PID.TID 0000.0001)     7 @  5.000000000000000E+02              /* K = 17: 23 */
(PID.TID 0000.0001)     ;
(PID.TID 0000.0001) delX =   /* U spacing ( m - cartesian, degrees - spherical ) */
(PID.TID 0000.0001)    20 @  2.000000000000000E+00              /* I =  1: 20 */
(PID.TID 0000.0001)     ;
(PID.TID 0000.0001) delY =   /* V spacing ( m - cartesian, degrees - spherical ) */
(PID.TID 0000.0001)    16 @  2.000000000000000E+00              /* J =  1: 16 */
(PID.TID 0000.0001)     ;
(PID.TID 0000.0001) phiMin =    /* South edge (ignored - cartesian, degrees - spherical ) */
(PID.TID 0000.0001)                 4.600000000000000E+01
(PID.TID 0000.0001)     ;
(PID.TID 0000.0001) thetaMin =    /* West edge ( ignored - cartesian, degrees - spherical ) */
(PID.TID 0000.0001)                 2.800000000000000E+02
(PID.TID 0000.0001)     ;
(PID.TID 0000.0001) rSphere =    /* Radius ( ignored - cartesian, m - spherical ) */
(PID.TID 0000.0001)                 6.371000000000000E+06
(PID.TID 0000.0001)     ;
(PID.TID 0000.0001) xcoord =   /* P-point X coord ( m - cartesian, degrees - spherical ) */
(PID.TID 0000.0001)                 2.810000000000000E+02,      /* I =  1 */
(PID.TID 0000.0001)                 2.830000000000000E+02,      /* I =  2 */
(PID.TID 0000.0001)                 2.850000000000000E+02,      /* I =  3 */
(PID.TID 0000.0001)                 2.870000000000000E+02,      /* I =  4 */
(PID.TID 0000.0001)                 2.890000000000000E+02,      /* I =  5 */
(PID.TID 0000.0001)                 2.910000000000000E+02,      /* I =  6 */
(PID.TID 0000.0001)                 2.930000000000000E+02,      /* I =  7 */
(PID.TID 0000.0001)                 2.950000000000000E+02,      /* I =  8 */
(PID.TID 0000.0001)                 2.970000000000000E+02,      /* I =  9 */
(PID.TID 0000.0001)                 2.990000000000000E+02,      /* I = 10 */
(PID.TID 0000.0001)                 3.010000000000000E+02,      /* I = 11 */
(PID.TID 0000.0001)                 3.030000000000000E+02,      /* I = 12 */
(PID.TID 0000.0001)                 3.050000000000000E+02,      /* I = 13 */
(PID.TID 0000.0001)                 3.070000000000000E+02,      /* I = 14 */
(PID.TID 0000.0001)                 3.090000000000000E+02,      /* I = 15 */
(PID.TID 0000.0001)                 3.110000000000000E+02,      /* I = 16 */
(PID.TID 0000.0001)                 3.130000000000000E+02,      /* I = 17 */
(PID.TID 0000.0001)                 3.150000000000000E+02,      /* I = 18 */
(PID.TID 0000.0001)                 3.170000000000000E+02,      /* I = 19 */
(PID.TID 0000.0001)                 3.190000000000000E+02       /* I = 20 */
(PID.TID 0000.0001)     ;
(PID.TID 0000.0001) ycoord =   /* P-point Y coord ( m - cartesian, degrees - spherical ) */
(PID.TID 0000.0001)                 4.700000000000000E+01,      /* J =  1 */
(PID.TID 0000.0001)                 4.900000000000000E+01,      /* J =  2 */
(PID.TID 0000.0001)                 5.100000000000000E+01,      /* J =  3 */
(PID.TID 0000.0001)                 5.300000000000000E+01,      /* J =  4 */
(PID.TID 0000.0001)                 5.500000000000000E+01,      /* J =  5 */
(PID.TID 0000.0001)                 5.700000000000000E+01,      /* J =  6 */
(PID.TID 0000.0001)                 5.900000000000000E+01,      /* J =  7 */
(PID.TID 0000.0001)                 6.100000000000000E+01,      /* J =  8 */
(PID.TID 0000.0001)                 6.300000000000000E+01,      /* J =  9 */
(PID.TID 0000.0001)                 6.500000000000000E+01,      /* J = 10 */
(PID.TID 0000.0001)                 6.700000000000000E+01,      /* J = 11 */
(PID.TID 0000.0001)                 6.900000000000000E+01,      /* J = 12 */
(PID.TID 0000.0001)                 7.100000000000000E+01,      /* J = 13 */
(PID.TID 0000.0001)                 7.300000000000000E+01,      /* J = 14 */
(PID.TID 0000.0001)                 7.500000000000000E+01,      /* J = 15 */
(PID.TID 0000.0001)                 7.700000000000000E+01       /* J = 16 */
(PID.TID 0000.0001)     ;
(PID.TID 0000.0001) rcoord =   /* P-point R coordinate (  units of r ) */
(PID.TID 0000.0001)                -5.000000000000000E+00,      /* K =  1 */
(PID.TID 0000.0001)                -1.500000000000000E+01,      /* K =  2 */
(PID.TID 0000.0001)                -2.750000000000000E+01,      /* K =  3 */
(PID.TID 0000.0001)                -4.500000000000000E+01,      /* K =  4 */
(PID.TID 0000.0001)                -6.500000000000000E+01,      /* K =  5 */
(PID.TID 0000.0001)                -8.750000000000000E+01,      /* K =  6 */
(PID.TID 0000.0001)                -1.175000000000000E+02,      /* K =  7 */
(PID.TID 0000.0001)                -1.600000000000000E+02,      /* K =  8 */
(PID.TID 0000.0001)                -2.225000000000000E+02,      /* K =  9 */
(PID.TID 0000.0001)                -3.100000000000000E+02,      /* K = 10 */
(PID.TID 0000.0001)                -4.350000000000000E+02,      /* K = 11 */
(PID.TID 0000.0001)                -6.100000000000000E+02,      /* K = 12 */
(PID.TID 0000.0001)                -8.475000000000000E+02,      /* K = 13 */
(PID.TID 0000.0001)                -1.160000000000000E+03,      /* K = 14 */
(PID.TID 0000.0001)                -1.542500000000000E+03,      /* K = 15 */
(PID.TID 0000.0001)                -1.975000000000000E+03,      /* K = 16 */
(PID.TID 0000.0001)                -2.450000000000000E+03,      /* K = 17 */
(PID.TID 0000.0001)                -2.950000000000000E+03,      /* K = 18 */
(PID.TID 0000.0001)                -3.450000000000000E+03,      /* K = 19 */
(PID.TID 0000.0001)                -3.950000000000000E+03,      /* K = 20 */
(PID.TID 0000.0001)                -4.450000000000000E+03,      /* K = 21 */
(PID.TID 0000.0001)                -4.950000000000000E+03,      /* K = 22 */
(PID.TID 0000.0001)                -5.450000000000000E+03       /* K = 23 */
(PID.TID 0000.0001)     ;
(PID.TID 0000.0001) rF =   /* W-Interf. R coordinate (  units of r ) */
(PID.TID 0000.0001)                 0.000000000000000E+00,      /* K =  1 */
(PID.TID 0000.0001)                -1.000000000000000E+01,      /* K =  2 */
(PID.TID 0000.0001)                -2.000000000000000E+01,      /* K =  3 */
(PID.TID 0000.0001)                -3.500000000000000E+01,      /* K =  4 */
(PID.TID 0000.0001)                -5.500000000000000E+01,      /* K =  5 */
(PID.TID 0000.0001)                -7.500000000000000E+01,      /* K =  6 */
(PID.TID 0000.0001)                -1.000000000000000E+02,      /* K =  7 */
(PID.TID 0000.0001)                -1.350000000000000E+02,      /* K =  8 */
(PID.TID 0000.0001)                -1.850000000000000E+02,      /* K =  9 */
(PID.TID 0000.0001)                -2.600000000000000E+02,      /* K = 10 */
(PID.TID 0000.0001)                -3.600000000000000E+02,      /* K = 11 */
(PID.TID 0000.0001)                -5.100000000000000E+02,      /* K = 12 */
(PID.TID 0000.0001)                -7.100000000000000E+02,      /* K = 13 */
(PID.TID 0000.0001)                -9.850000000000000E+02,      /* K = 14 */
(PID.TID 0000.0001)                -1.335000000000000E+03,      /* K = 15 */
(PID.TID 0000.0001)                -1.750000000000000E+03,      /* K = 16 */
(PID.TID 0000.0001)                -2.200000000000000E+03,      /* K = 17 */
(PID.TID 0000.0001)                -2.700000000000000E+03,      /* K = 18 */
(PID.TID 0000.0001)                -3.200000000000000E+03,      /* K = 19 */
(PID.TID 0000.0001)                -3.700000000000000E+03,      /* K = 20 */
(PID.TID 0000.0001)                -4.200000000000000E+03,      /* K = 21 */
(PID.TID 0000.0001)                -4.700000000000000E+03,      /* K = 22 */
(PID.TID 0000.0001)                -5.200000000000000E+03,      /* K = 23 */
(PID.TID 0000.0001)                -5.700000000000000E+03       /* K = 24 */
(PID.TID 0000.0001)     ;
(PID.TID 0000.0001) dxF =  /* dxF(:,1,:,1) ( m - cartesian, degrees - spherical ) */
(PID.TID 0000.0001)    20 @  1.516695152377178E+05              /* I =  1: 20 */
(PID.TID 0000.0001)     ;
(PID.TID 0000.0001) dxF =  /* dxF(1,:,1,:) ( m - cartesian, degrees - spherical ) */
(PID.TID 0000.0001)                 1.516695152377178E+05,      /* J =  1 */
(PID.TID 0000.0001)                 1.459008712061998E+05,      /* J =  2 */
(PID.TID 0000.0001)                 1.399544694374234E+05,      /* J =  3 */
(PID.TID 0000.0001)                 1.338375547059709E+05,      /* J =  4 */
(PID.TID 0000.0001)                 1.275575795302040E+05,      /* J =  5 */
(PID.TID 0000.0001)                 1.211221950925184E+05,      /* J =  6 */
(PID.TID 0000.0001)                 1.145392419175564E+05,      /* J =  7 */
(PID.TID 0000.0001)                 1.078167403197357E+05,      /* J =  8 */
(PID.TID 0000.0001)                 1.009628806317309E+05,      /* J =  9 */
(PID.TID 0000.0001)                 9.398601322581600E+04,      /* J = 10 */
(PID.TID 0000.0001)                 8.689463834022089E+04,      /* J = 11 */
(PID.TID 0000.0001)                 7.969739572290120E+04,      /* J = 12 */
(PID.TID 0000.0001)                 7.240305410533583E+04,      /* J = 13 */
(PID.TID 0000.0001)                 6.502050051917860E+04,      /* J = 14 */
(PID.TID 0000.0001)                 5.755872946877906E+04,      /* J = 15 */
(PID.TID 0000.0001)                 5.002683197276441E+04       /* J = 16 */
(PID.TID 0000.0001)     ;
(PID.TID 0000.0001) dyF =  /* dyF(:,1,:,1) ( m - cartesian, degrees - spherical ) */
(PID.TID 0000.0001)    20 @  2.223898532891175E+05              /* I =  1: 20 */
(PID.TID 0000.0001)     ;
(PID.TID 0000.0001) dyF =  /* dyF(1,:,1,:) ( m - cartesian, degrees - spherical ) */
(PID.TID 0000.0001)    16 @  2.223898532891175E+05              /* J =  1: 16 */
(PID.TID 0000.0001)     ;
(PID.TID 0000.0001) dxG =  /* dxG(:,1,:,1) ( m - cartesian, degrees - spherical ) */
(PID.TID 0000.0001)    20 @  1.544849730924338E+05              /* I =  1: 20 */
(PID.TID 0000.0001)     ;
(PID.TID 0000.0001) dxG =  /* dxG(1,:,1,:) ( m - cartesian, degrees - spherical ) */
(PID.TID 0000.0001)                 1.544849730924338E+05,      /* J =  1 */
(PID.TID 0000.0001)                 1.488078573794047E+05,      /* J =  2 */
(PID.TID 0000.0001)                 1.429494422142520E+05,      /* J =  3 */
(PID.TID 0000.0001)                 1.369168651734348E+05,      /* J =  4 */
(PID.TID 0000.0001)                 1.307174760228300E+05,      /* J =  5 */
(PID.TID 0000.0001)                 1.243588277631750E+05,      /* J =  6 */
(PID.TID 0000.0001)                 1.178486674278995E+05,      /* J =  7 */
(PID.TID 0000.0001)                 1.111949266445588E+05,      /* J =  8 */
(PID.TID 0000.0001)                 1.044057119713670E+05,      /* J =  9 */
(PID.TID 0000.0001)                 9.748929502060512E+04,      /* J = 10 */
(PID.TID 0000.0001)                 9.045410238093534E+04,      /* J = 11 */
(PID.TID 0000.0001)                 8.330870535090075E+04,      /* J = 12 */
(PID.TID 0000.0001)                 7.606180949611843E+04,      /* J = 13 */
(PID.TID 0000.0001)                 6.872224404288860E+04,      /* J = 14 */
(PID.TID 0000.0001)                 6.129895112114271E+04,      /* J = 15 */
(PID.TID 0000.0001)                 5.380097486983529E+04       /* J = 16 */
(PID.TID 0000.0001)     ;
(PID.TID 0000.0001) dyG =  /* dyG(:,1,:,1) ( m - cartesian, degrees - spherical ) */
(PID.TID 0000.0001)    20 @  2.223898532891175E+05              /* I =  1: 20 */
(PID.TID 0000.0001)     ;
(PID.TID 0000.0001) dyG =  /* dyG(1,:,1,:) ( m - cartesian, degrees - spherical ) */
(PID.TID 0000.0001)    16 @  2.223898532891175E+05              /* J =  1: 16 */
(PID.TID 0000.0001)     ;
(PID.TID 0000.0001) dxC =  /* dxC(:,1,:,1) ( m - cartesian, degrees - spherical ) */
(PID.TID 0000.0001)    20 @  1.516695152377178E+05              /* I =  1: 20 */
(PID.TID 0000.0001)     ;
(PID.TID 0000.0001) dxC =  /* dxC(1,:,1,:) ( m - cartesian, degrees - spherical ) */
(PID.TID 0000.0001)                 1.516695152377178E+05,      /* J =  1 */
(PID.TID 0000.0001)                 1.459008712061998E+05,      /* J =  2 */
(PID.TID 0000.0001)                 1.399544694374234E+05,      /* J =  3 */
(PID.TID 0000.0001)                 1.338375547059709E+05,      /* J =  4 */
(PID.TID 0000.0001)                 1.275575795302040E+05,      /* J =  5 */
(PID.TID 0000.0001)                 1.211221950925184E+05,      /* J =  6 */
(PID.TID 0000.0001)                 1.145392419175564E+05,      /* J =  7 */
(PID.TID 0000.0001)                 1.078167403197357E+05,      /* J =  8 */
(PID.TID 0000.0001)                 1.009628806317309E+05,      /* J =  9 */
(PID.TID 0000.0001)                 9.398601322581600E+04,      /* J = 10 */
(PID.TID 0000.0001)                 8.689463834022089E+04,      /* J = 11 */
(PID.TID 0000.0001)                 7.969739572290120E+04,      /* J = 12 */
(PID.TID 0000.0001)                 7.240305410533583E+04,      /* J = 13 */
(PID.TID 0000.0001)                 6.502050051917860E+04,      /* J = 14 */
(PID.TID 0000.0001)                 5.755872946877906E+04,      /* J = 15 */
(PID.TID 0000.0001)                 5.002683197276441E+04       /* J = 16 */
(PID.TID 0000.0001)     ;
(PID.TID 0000.0001) dyC =  /* dyC(:,1,:,1) ( m - cartesian, degrees - spherical ) */
(PID.TID 0000.0001)    20 @  2.223898532891175E+05              /* I =  1: 20 */
(PID.TID 0000.0001)     ;
(PID.TID 0000.0001) dyC =  /* dyC(1,:,1,:) ( m - cartesian, degrees - spherical ) */
(PID.TID 0000.0001)    16 @  2.223898532891175E+05              /* J =  1: 16 */
(PID.TID 0000.0001)     ;
(PID.TID 0000.0001) dxV =  /* dxV(:,1,:,1) ( m - cartesian, degrees - spherical ) */
(PID.TID 0000.0001)    20 @  1.544849730924338E+05              /* I =  1: 20 */
(PID.TID 0000.0001)     ;
(PID.TID 0000.0001) dxV =  /* dxV(1,:,1,:) ( m - cartesian, degrees - spherical ) */
(PID.TID 0000.0001)                 1.544849730924338E+05,      /* J =  1 */
(PID.TID 0000.0001)                 1.488078573794047E+05,      /* J =  2 */
(PID.TID 0000.0001)                 1.429494422142520E+05,      /* J =  3 */
(PID.TID 0000.0001)                 1.369168651734348E+05,      /* J =  4 */
(PID.TID 0000.0001)                 1.307174760228300E+05,      /* J =  5 */
(PID.TID 0000.0001)                 1.243588277631750E+05,      /* J =  6 */
(PID.TID 0000.0001)                 1.178486674278995E+05,      /* J =  7 */
(PID.TID 0000.0001)                 1.111949266445588E+05,      /* J =  8 */
(PID.TID 0000.0001)                 1.044057119713670E+05,      /* J =  9 */
(PID.TID 0000.0001)                 9.748929502060512E+04,      /* J = 10 */
(PID.TID 0000.0001)                 9.045410238093534E+04,      /* J = 11 */
(PID.TID 0000.0001)                 8.330870535090075E+04,      /* J = 12 */
(PID.TID 0000.0001)                 7.606180949611843E+04,      /* J = 13 */
(PID.TID 0000.0001)                 6.872224404288860E+04,      /* J = 14 */
(PID.TID 0000.0001)                 6.129895112114271E+04,      /* J = 15 */
(PID.TID 0000.0001)                 5.380097486983529E+04       /* J = 16 */
(PID.TID 0000.0001)     ;
(PID.TID 0000.0001) dyU =  /* dyU(:,1,:,1) ( m - cartesian, degrees - spherical ) */
(PID.TID 0000.0001)    20 @  2.223898532891175E+05              /* I =  1: 20 */
(PID.TID 0000.0001)     ;
(PID.TID 0000.0001) dyU =  /* dyU(1,:,1,:) ( m - cartesian, degrees - spherical ) */
(PID.TID 0000.0001)    16 @  2.223898532891175E+05              /* J =  1: 16 */
(PID.TID 0000.0001)     ;
(PID.TID 0000.0001) rA =  /* rA(:,1,:,1) ( m - cartesian, degrees - spherical ) */
(PID.TID 0000.0001)    20 @  3.372804882275630E+10              /* I =  1: 20 */
(PID.TID 0000.0001)     ;
(PID.TID 0000.0001) rA =  /* rA(1,:,1,:) ( m - cartesian, degrees - spherical ) */
(PID.TID 0000.0001)                 3.372804882275630E+10,      /* J =  1 */
(PID.TID 0000.0001)                 3.244522605358471E+10,      /* J =  2 */
(PID.TID 0000.0001)                 3.112287377427108E+10,      /* J =  3 */
(PID.TID 0000.0001)                 2.976260306737437E+10,      /* J =  4 */
(PID.TID 0000.0001)                 2.836607121321784E+10,      /* J =  5 */
(PID.TID 0000.0001)                 2.693497967074614E+10,      /* J =  6 */
(PID.TID 0000.0001)                 2.547107200456132E+10,      /* J =  7 */
(PID.TID 0000.0001)                 2.397613176065682E+10,      /* J =  8 */
(PID.TID 0000.0001)                 2.245198029344207E+10,      /* J =  9 */
(PID.TID 0000.0001)                 2.090047454670177E+10,      /* J = 10 */
(PID.TID 0000.0001)                 1.932350479119805E+10,      /* J = 11 */
(PID.TID 0000.0001)                 1.772299232166360E+10,      /* J = 12 */
(PID.TID 0000.0001)                 1.610088711600326E+10,      /* J = 13 */
(PID.TID 0000.0001)                 1.445916545954351E+10,      /* J = 14 */
(PID.TID 0000.0001)                 1.279982753723478E+10,      /* J = 15 */
(PID.TID 0000.0001)                 1.112489499673432E+10       /* J = 16 */
(PID.TID 0000.0001)     ;
(PID.TID 0000.0001) rAw =  /* rAw(:,1,:,1) ( m - cartesian, degrees - spherical ) */
(PID.TID 0000.0001)    20 @  3.372804882275630E+10              /* I =  1: 20 */
(PID.TID 0000.0001)     ;
(PID.TID 0000.0001) rAw =  /* rAw(1,:,1,:) ( m - cartesian, degrees - spherical ) */
(PID.TID 0000.0001)                 3.372804882275630E+10,      /* J =  1 */
(PID.TID 0000.0001)                 3.244522605358471E+10,      /* J =  2 */
(PID.TID 0000.0001)                 3.112287377427108E+10,      /* J =  3 */
(PID.TID 0000.0001)                 2.976260306737437E+10,      /* J =  4 */
(PID.TID 0000.0001)                 2.836607121321784E+10,      /* J =  5 */
(PID.TID 0000.0001)                 2.693497967074614E+10,      /* J =  6 */
(PID.TID 0000.0001)                 2.547107200456132E+10,      /* J =  7 */
(PID.TID 0000.0001)                 2.397613176065682E+10,      /* J =  8 */
(PID.TID 0000.0001)                 2.245198029344207E+10,      /* J =  9 */
(PID.TID 0000.0001)                 2.090047454670177E+10,      /* J = 10 */
(PID.TID 0000.0001)                 1.932350479119805E+10,      /* J = 11 */
(PID.TID 0000.0001)                 1.772299232166360E+10,      /* J = 12 */
(PID.TID 0000.0001)                 1.610088711600326E+10,      /* J = 13 */
(PID.TID 0000.0001)                 1.445916545954351E+10,      /* J = 14 */
(PID.TID 0000.0001)                 1.279982753723478E+10,      /* J = 15 */
(PID.TID 0000.0001)                 1.112489499673432E+10       /* J = 16 */
(PID.TID 0000.0001)     ;
(PID.TID 0000.0001) rAs =  /* rAs(:,1,:,1) ( m - cartesian, degrees - spherical ) */
(PID.TID 0000.0001)    20 @  3.435414629417918E+10              /* I =  1: 20 */
(PID.TID 0000.0001)     ;
(PID.TID 0000.0001) rAs =  /* rAs(1,:,1,:) ( m - cartesian, degrees - spherical ) */
(PID.TID 0000.0001)                 3.435414629417918E+10,      /* J =  1 */
(PID.TID 0000.0001)                 3.309167746093097E+10,      /* J =  2 */
(PID.TID 0000.0001)                 3.178889151607872E+10,      /* J =  3 */
(PID.TID 0000.0001)                 3.044737570361747E+10,      /* J =  4 */
(PID.TID 0000.0001)                 2.906876445392020E+10,      /* J =  5 */
(PID.TID 0000.0001)                 2.765473739243563E+10,      /* J =  6 */
(PID.TID 0000.0001)                 2.620701729332415E+10,      /* J =  7 */
(PID.TID 0000.0001)                 2.472736798052209E+10,      /* J =  8 */
(PID.TID 0000.0001)                 2.321759217879512E+10,      /* J =  9 */
(PID.TID 0000.0001)                 2.167952931739416E+10,      /* J = 10 */
(PID.TID 0000.0001)                 2.011505328899539E+10,      /* J = 11 */
(PID.TID 0000.0001)                 1.852607016665020E+10,      /* J = 12 */
(PID.TID 0000.0001)                 1.691451588152944E+10,      /* J = 13 */
(PID.TID 0000.0001)                 1.528235386428863E+10,      /* J = 14 */
(PID.TID 0000.0001)                 1.363157265293026E+10,      /* J = 15 */
(PID.TID 0000.0001)                 1.196418347007692E+10       /* J = 16 */
(PID.TID 0000.0001)     ;
(PID.TID 0000.0001) 
(PID.TID 0000.0001)  MDSREADFIELD: opening global file: LevCli_temp.labsea
(PID.TID 0000.0001) // =======================================================
(PID.TID 0000.0001) // Field Initial Temperature at iteration          1
(PID.TID 0000.0001) // CMIN =          9.205863475799561E-01
(PID.TID 0000.0001) // CMAX =          1.333307647705078E+01
(PID.TID 0000.0001) // CINT =          4.597218566470676E-01
(PID.TID 0000.0001) // SYMBOLS (CMIN->CMAX): -abcdefghijklmnopqrstuvwxyz+
(PID.TID 0000.0001) //                  0.0: .
(PID.TID 0000.0001) // RANGE I (Lo:Hi:Step):(   1:  20:   1)
(PID.TID 0000.0001) // RANGE J (Lo:Hi:Step):(  16:   1:  -1)
(PID.TID 0000.0001) // RANGE K (Lo:Hi:Step):(   1:   1:   1)
(PID.TID 0000.0001) // =======================================================
(PID.TID 0000.0001) K =   1
(PID.TID 0000.0001)                I=10      I=20
(PID.TID 0000.0001) |--J--|123456789|123456789|
(PID.TID 0000.0001)     16 .----...............
(PID.TID 0000.0001)     15 aabaaaaaaaa.........
(PID.TID 0000.0001)     14 .ccccccbbbbc........
(PID.TID 0000.0001)     13 ....dddddddd........
(PID.TID 0000.0001)     12 ......dcdddddd......
(PID.TID 0000.0001)     11 ........cccdd.......
(PID.TID 0000.0001)     10 .......bbcdddd......
(PID.TID 0000.0001)      9 .......cdeeffff....j
(PID.TID 0000.0001)      8 .....ccdefgghhggh..k
(PID.TID 0000.0001)      7 ......d.fghiiiiiijkl
(PID.TID 0000.0001)      6 .........ghhijjjkklm
(PID.TID 0000.0001)      5 ..........hhhijklmnn
(PID.TID 0000.0001)      4 ............ghikmopq
(PID.TID 0000.0001)      3 ..........k.hhiknqsu
(PID.TID 0000.0001)      2 .......oonm..ijknqux
(PID.TID 0000.0001)      1 ........qponlkklosw+
(PID.TID 0000.0001) // =======================================================
(PID.TID 0000.0001) // END OF FIELD                                          =
(PID.TID 0000.0001) // =======================================================
(PID.TID 0000.0001) 
(PID.TID 0000.0001)  MDSREADFIELD: opening global file: LevCli_salt.labsea
(PID.TID 0000.0001) // =======================================================
(PID.TID 0000.0001) // Field Initial Salinity at iteration          1
(PID.TID 0000.0001) // CMIN =          3.012869834899902E+01
(PID.TID 0000.0001) // CMAX =          3.487366104125977E+01
(PID.TID 0000.0001) // CINT =          1.757393589726201E-01
(PID.TID 0000.0001) // SYMBOLS (CMIN->CMAX): -abcdefghijklmnopqrstuvwxyz+
(PID.TID 0000.0001) //                  0.0: .
(PID.TID 0000.0001) // RANGE I (Lo:Hi:Step):(   1:  20:   1)
(PID.TID 0000.0001) // RANGE J (Lo:Hi:Step):(  16:   1:  -1)
(PID.TID 0000.0001) // RANGE K (Lo:Hi:Step):(   1:   1:   1)
(PID.TID 0000.0001) // =======================================================
(PID.TID 0000.0001) K =   1
(PID.TID 0000.0001)                I=10      I=20
(PID.TID 0000.0001) |--J--|123456789|123456789|
(PID.TID 0000.0001)     16 .nnos...............
(PID.TID 0000.0001)     15 lnoppppppol.........
(PID.TID 0000.0001)     14 .nponmllllmn........
(PID.TID 0000.0001)     13 ....ljhijkmo........
(PID.TID 0000.0001)     12 ......ghjlmors......
(PID.TID 0000.0001)     11 ........jmnpr.......
(PID.TID 0000.0001)     10 .......jlnpqrq......
(PID.TID 0000.0001)      9 .......noqsttts....w
(PID.TID 0000.0001)      8 .....jlnpsuvwwutu..x
(PID.TID 0000.0001)      7 ......j.rruwxyxxwxxy
(PID.TID 0000.0001)      6 .........ppruxyyzzzz
(PID.TID 0000.0001)      5 ..........ijoswyzzzz
(PID.TID 0000.0001)      4 ............iotwyzzz
(PID.TID 0000.0001)      3 ..........g.imquwyzz
(PID.TID 0000.0001)      2 .......-bef..knqtvxz
(PID.TID 0000.0001)      1 ........-cegijlosvy+
(PID.TID 0000.0001) // =======================================================
(PID.TID 0000.0001) // END OF FIELD                                          =
(PID.TID 0000.0001) // =======================================================
(PID.TID 0000.0001) 
(PID.TID 0000.0001) Start initial hydrostatic pressure computation
(PID.TID 0000.0001) Pressure is predetermined for buoyancyRelation OCEANIC
(PID.TID 0000.0001) 
(PID.TID 0000.0001)  write diagnostics summary to file ioUnit:      6
Iter.Nb:         0 ; Time(s):  0.0000000000000E+00
------------------------------------------------------------------------
2D/3D diagnostics: Number of lists:    11
------------------------------------------------------------------------
listId=   1 ; file name: EXFtaux
 nFlds, nActive,       freq     &   phase        , nLev                 
   1  |   1  |    -36000.000000     18000.000000 |   1
 levels:   1
 diag#| name   | ipt  | iMate| kLev| count | mate.C|                    
  104 |EXFtaux |    1 |    0 |   1 |     0 |
------------------------------------------------------------------------
listId=   2 ; file name: EXFtauy
 nFlds, nActive,       freq     &   phase        , nLev                 
   1  |   1  |    -36000.000000     18000.000000 |   1
 levels:   1
 diag#| name   | ipt  | iMate| kLev| count | mate.C|                    
  105 |EXFtauy |    2 |    0 |   1 |     0 |
------------------------------------------------------------------------
listId=   3 ; file name: EXFqnet
 nFlds, nActive,       freq     &   phase        , nLev                 
   1  |   1  |    -36000.000000     18000.000000 |   1
 levels:   1
 diag#| name   | ipt  | iMate| kLev| count | mate.C|                    
  103 |EXFqnet |    3 |    0 |   1 |     0 |
------------------------------------------------------------------------
listId=   4 ; file name: EXFempmr
 nFlds, nActive,       freq     &   phase        , nLev                 
   1  |   1  |    -36000.000000     18000.000000 |   1
 levels:   1
 diag#| name   | ipt  | iMate| kLev| count | mate.C|                    
  112 |EXFempmr|    4 |    0 |   1 |     0 |
------------------------------------------------------------------------
listId=   5 ; file name: EXFhl
 nFlds, nActive,       freq     &   phase        , nLev                 
   1  |   1  |    -36000.000000     18000.000000 |   1
 levels:   1
 diag#| name   | ipt  | iMate| kLev| count | mate.C|                    
   98 |EXFhl   |    5 |    0 |   1 |     0 |
------------------------------------------------------------------------
listId=   6 ; file name: EXFhs
 nFlds, nActive,       freq     &   phase        , nLev                 
   1  |   1  |    -36000.000000     18000.000000 |   1
 levels:   1
 diag#| name   | ipt  | iMate| kLev| count | mate.C|                    
   97 |EXFhs   |    6 |    0 |   1 |     0 |
------------------------------------------------------------------------
listId=   7 ; file name: EXFswnet
 nFlds, nActive,       freq     &   phase        , nLev                 
   1  |   1  |    -36000.000000     18000.000000 |   1
 levels:   1
 diag#| name   | ipt  | iMate| kLev| count | mate.C|                    
  100 |EXFswnet|    7 |    0 |   1 |     0 |
------------------------------------------------------------------------
listId=   8 ; file name: EXFlwnet
 nFlds, nActive,       freq     &   phase        , nLev                 
   1  |   1  |    -36000.000000     18000.000000 |   1
 levels:   1
 diag#| name   | ipt  | iMate| kLev| count | mate.C|                    
   99 |EXFlwnet|    8 |    0 |   1 |     0 |
------------------------------------------------------------------------
listId=   9 ; file name: EXFuwind
 nFlds, nActive,       freq     &   phase        , nLev                 
   1  |   1  |    -36000.000000     18000.000000 |   1
 levels:   1
 diag#| name   | ipt  | iMate| kLev| count | mate.C|                    
  106 |EXFuwind|    9 |    0 |   1 |     0 |
------------------------------------------------------------------------
listId=  10 ; file name: EXFvwind
 nFlds, nActive,       freq     &   phase        , nLev                 
   1  |   1  |    -36000.000000     18000.000000 |   1
 levels:   1
 diag#| name   | ipt  | iMate| kLev| count | mate.C|                    
  107 |EXFvwind|   10 |    0 |   1 |     0 |
------------------------------------------------------------------------
listId=  11 ; file name: EXFatemp
 nFlds, nActive,       freq     &   phase        , nLev                 
   1  |   1  |    -36000.000000     18000.000000 |   1
 levels:   1
 diag#| name   | ipt  | iMate| kLev| count | mate.C|                    
  108 |EXFatemp|   11 |    0 |   1 |     0 |
------------------------------------------------------------------------
Global & Regional Statistics diagnostics: Number of lists:     0
------------------------------------------------------------------------
(PID.TID 0000.0001) // =======================================================
(PID.TID 0000.0001) // Field Runoff after rescaling and exf_inscal_runoff at iteration          0
(PID.TID 0000.0001) // CMIN =          1.000000000000000E+32
(PID.TID 0000.0001) // CMAX =         -1.000000000000000E+32
(PID.TID 0000.0001) // CINT =          0.000000000000000E+00
(PID.TID 0000.0001) // SYMBOLS (CMIN->CMAX): -abcdefghijklmnopqrstuvwxyz+
(PID.TID 0000.0001) //                  0.0: .
(PID.TID 0000.0001) // RANGE I (Lo:Hi:Step):(  -2:  23:   1)
(PID.TID 0000.0001) // RANGE J (Lo:Hi:Step):(  19:  -2:  -1)
(PID.TID 0000.0001) // RANGE K (Lo:Hi:Step):(   1:   1:   1)
(PID.TID 0000.0001) // =======================================================
(PID.TID 0000.0001) // =======================================================
(PID.TID 0000.0001) // END OF FIELD                                          =
(PID.TID 0000.0001) // =======================================================
(PID.TID 0000.0001) 
(PID.TID 0000.0001) // =======================================================
(PID.TID 0000.0001) // Model current state
(PID.TID 0000.0001) // =======================================================
(PID.TID 0000.0001) 
(PID.TID 0000.0001) // =======================================================
(PID.TID 0000.0001) // Begin MONITOR dynamic field statistics
(PID.TID 0000.0001) // =======================================================
(PID.TID 0000.0001) %MON time_tsnumber                =                     0
(PID.TID 0000.0001) %MON time_secondsf                =   0.0000000000000E+00
(PID.TID 0000.0001) %MON exf_ustress_max              =   0.0000000000000E+00
(PID.TID 0000.0001) %MON exf_ustress_min              =   0.0000000000000E+00
(PID.TID 0000.0001) %MON exf_ustress_mean             =   0.0000000000000E+00
(PID.TID 0000.0001) %MON exf_ustress_sd               =   0.0000000000000E+00
(PID.TID 0000.0001) %MON exf_ustress_del2             =   0.0000000000000E+00
(PID.TID 0000.0001) %MON exf_vstress_max              =   0.0000000000000E+00
(PID.TID 0000.0001) %MON exf_vstress_min              =   0.0000000000000E+00
(PID.TID 0000.0001) %MON exf_vstress_mean             =   0.0000000000000E+00
(PID.TID 0000.0001) %MON exf_vstress_sd               =   0.0000000000000E+00
(PID.TID 0000.0001) %MON exf_vstress_del2             =   0.0000000000000E+00
(PID.TID 0000.0001) %MON exf_hflux_max                =   0.0000000000000E+00
(PID.TID 0000.0001) %MON exf_hflux_min                =   0.0000000000000E+00
(PID.TID 0000.0001) %MON exf_hflux_mean               =   0.0000000000000E+00
(PID.TID 0000.0001) %MON exf_hflux_sd                 =   0.0000000000000E+00
(PID.TID 0000.0001) %MON exf_hflux_del2               =   0.0000000000000E+00
(PID.TID 0000.0001) %MON exf_sflux_max                =   0.0000000000000E+00
(PID.TID 0000.0001) %MON exf_sflux_min                =   0.0000000000000E+00
(PID.TID 0000.0001) %MON exf_sflux_mean               =   0.0000000000000E+00
(PID.TID 0000.0001) %MON exf_sflux_sd                 =   0.0000000000000E+00
(PID.TID 0000.0001) %MON exf_sflux_del2               =   0.0000000000000E+00
(PID.TID 0000.0001) %MON exf_uwind_max                =   0.0000000000000E+00
(PID.TID 0000.0001) %MON exf_uwind_min                =   0.0000000000000E+00
(PID.TID 0000.0001) %MON exf_uwind_mean               =   0.0000000000000E+00
(PID.TID 0000.0001) %MON exf_uwind_sd                 =   0.0000000000000E+00
(PID.TID 0000.0001) %MON exf_uwind_del2               =   0.0000000000000E+00
(PID.TID 0000.0001) %MON exf_vwind_max                =   0.0000000000000E+00
(PID.TID 0000.0001) %MON exf_vwind_min                =   0.0000000000000E+00
(PID.TID 0000.0001) %MON exf_vwind_mean               =   0.0000000000000E+00
(PID.TID 0000.0001) %MON exf_vwind_sd                 =   0.0000000000000E+00
(PID.TID 0000.0001) %MON exf_vwind_del2               =   0.0000000000000E+00
(PID.TID 0000.0001) %MON exf_atemp_max                =   2.7316000000000E+02
(PID.TID 0000.0001) %MON exf_atemp_min                =   2.7316000000000E+02
(PID.TID 0000.0001) %MON exf_atemp_mean               =   2.7316000000000E+02
(PID.TID 0000.0001) %MON exf_atemp_sd                 =   1.7053025658242E-13
(PID.TID 0000.0001) %MON exf_atemp_del2               =   0.0000000000000E+00
(PID.TID 0000.0001) %MON exf_aqh_max                  =   0.0000000000000E+00
(PID.TID 0000.0001) %MON exf_aqh_min                  =   0.0000000000000E+00
(PID.TID 0000.0001) %MON exf_aqh_mean                 =   0.0000000000000E+00
(PID.TID 0000.0001) %MON exf_aqh_sd                   =   0.0000000000000E+00
(PID.TID 0000.0001) %MON exf_aqh_del2                 =   0.0000000000000E+00
(PID.TID 0000.0001) %MON exf_lwflux_max               =   0.0000000000000E+00
(PID.TID 0000.0001) %MON exf_lwflux_min               =   0.0000000000000E+00
(PID.TID 0000.0001) %MON exf_lwflux_mean              =   0.0000000000000E+00
(PID.TID 0000.0001) %MON exf_lwflux_sd                =   0.0000000000000E+00
(PID.TID 0000.0001) %MON exf_lwflux_del2              =   0.0000000000000E+00
(PID.TID 0000.0001) %MON exf_precip_max               =   0.0000000000000E+00
(PID.TID 0000.0001) %MON exf_precip_min               =   0.0000000000000E+00
(PID.TID 0000.0001) %MON exf_precip_mean              =   0.0000000000000E+00
(PID.TID 0000.0001) %MON exf_precip_sd                =   0.0000000000000E+00
(PID.TID 0000.0001) %MON exf_precip_del2              =   0.0000000000000E+00
(PID.TID 0000.0001) %MON exf_swflux_max               =   0.0000000000000E+00
(PID.TID 0000.0001) %MON exf_swflux_min               =   0.0000000000000E+00
(PID.TID 0000.0001) %MON exf_swflux_mean              =   0.0000000000000E+00
(PID.TID 0000.0001) %MON exf_swflux_sd                =   0.0000000000000E+00
(PID.TID 0000.0001) %MON exf_swflux_del2              =   0.0000000000000E+00
(PID.TID 0000.0001) %MON exf_evap_max                 =   0.0000000000000E+00
(PID.TID 0000.0001) %MON exf_evap_min                 =   0.0000000000000E+00
(PID.TID 0000.0001) %MON exf_evap_mean                =   0.0000000000000E+00
(PID.TID 0000.0001) %MON exf_evap_sd                  =   0.0000000000000E+00
(PID.TID 0000.0001) %MON exf_evap_del2                =   0.0000000000000E+00
(PID.TID 0000.0001) %MON exf_swdown_max               =   0.0000000000000E+00
(PID.TID 0000.0001) %MON exf_swdown_min               =   0.0000000000000E+00
(PID.TID 0000.0001) %MON exf_swdown_mean              =   0.0000000000000E+00
(PID.TID 0000.0001) %MON exf_swdown_sd                =   0.0000000000000E+00
(PID.TID 0000.0001) %MON exf_swdown_del2              =   0.0000000000000E+00
(PID.TID 0000.0001) %MON exf_lwdown_max               =   0.0000000000000E+00
(PID.TID 0000.0001) %MON exf_lwdown_min               =   0.0000000000000E+00
(PID.TID 0000.0001) %MON exf_lwdown_mean              =   0.0000000000000E+00
(PID.TID 0000.0001) %MON exf_lwdown_sd                =   0.0000000000000E+00
(PID.TID 0000.0001) %MON exf_lwdown_del2              =   0.0000000000000E+00
(PID.TID 0000.0001) %MON exf_apressure_max            =   0.0000000000000E+00
(PID.TID 0000.0001) %MON exf_apressure_min            =   0.0000000000000E+00
(PID.TID 0000.0001) %MON exf_apressure_mean           =   0.0000000000000E+00
(PID.TID 0000.0001) %MON exf_apressure_sd             =   0.0000000000000E+00
(PID.TID 0000.0001) %MON exf_apressure_del2           =   0.0000000000000E+00
(PID.TID 0000.0001) %MON exf_runoff_max               =   0.0000000000000E+00
(PID.TID 0000.0001) %MON exf_runoff_min               =   0.0000000000000E+00
(PID.TID 0000.0001) %MON exf_runoff_mean              =   0.0000000000000E+00
(PID.TID 0000.0001) %MON exf_runoff_sd                =   0.0000000000000E+00
(PID.TID 0000.0001) %MON exf_runoff_del2              =   0.0000000000000E+00
(PID.TID 0000.0001) %MON exf_climsss_max              =   0.0000000000000E+00
(PID.TID 0000.0001) %MON exf_climsss_min              =   0.0000000000000E+00
(PID.TID 0000.0001) %MON exf_climsss_mean             =   0.0000000000000E+00
(PID.TID 0000.0001) %MON exf_climsss_sd               =   0.0000000000000E+00
(PID.TID 0000.0001) %MON exf_climsss_del2             =   0.0000000000000E+00
(PID.TID 0000.0001) %MON seaice_uice_max              =   0.0000000000000E+00
(PID.TID 0000.0001) %MON seaice_uice_min              =   0.0000000000000E+00
(PID.TID 0000.0001) %MON seaice_uice_mean             =   0.0000000000000E+00
(PID.TID 0000.0001) %MON seaice_uice_sd               =   0.0000000000000E+00
(PID.TID 0000.0001) %MON seaice_uice_del2             =   0.0000000000000E+00
(PID.TID 0000.0001) %MON seaice_vice_max              =   0.0000000000000E+00
(PID.TID 0000.0001) %MON seaice_vice_min              =   0.0000000000000E+00
(PID.TID 0000.0001) %MON seaice_vice_mean             =   0.0000000000000E+00
(PID.TID 0000.0001) %MON seaice_vice_sd               =   0.0000000000000E+00
(PID.TID 0000.0001) %MON seaice_vice_del2             =   0.0000000000000E+00
(PID.TID 0000.0001) %MON seaice_area_max              =   1.0000000000000E+00
(PID.TID 0000.0001) %MON seaice_area_min              =   1.0000000000000E+00
(PID.TID 0000.0001) %MON seaice_area_mean             =   1.0000000000000E+00
(PID.TID 0000.0001) %MON seaice_area_sd               =   0.0000000000000E+00
(PID.TID 0000.0001) %MON seaice_area_del2             =   0.0000000000000E+00
(PID.TID 0000.0001) %MON seaice_heff_max              =   1.0000000000000E+00
(PID.TID 0000.0001) %MON seaice_heff_min              =   1.0000000000000E+00
(PID.TID 0000.0001) %MON seaice_heff_mean             =   1.0000000000000E+00
(PID.TID 0000.0001) %MON seaice_heff_sd               =   0.0000000000000E+00
(PID.TID 0000.0001) %MON seaice_heff_del2             =   0.0000000000000E+00
(PID.TID 0000.0001) %MON dynstat_eta_max              =   0.0000000000000E+00
(PID.TID 0000.0001) %MON dynstat_eta_min              =   0.0000000000000E+00
(PID.TID 0000.0001) %MON dynstat_eta_mean             =   0.0000000000000E+00
(PID.TID 0000.0001) %MON dynstat_eta_sd               =   0.0000000000000E+00
(PID.TID 0000.0001) %MON dynstat_eta_del2             =   0.0000000000000E+00
(PID.TID 0000.0001) %MON dynstat_uvel_max             =   0.0000000000000E+00
(PID.TID 0000.0001) %MON dynstat_uvel_min             =   0.0000000000000E+00
(PID.TID 0000.0001) %MON dynstat_uvel_mean            =   0.0000000000000E+00
(PID.TID 0000.0001) %MON dynstat_uvel_sd              =   0.0000000000000E+00
(PID.TID 0000.0001) %MON dynstat_uvel_del2            =   0.0000000000000E+00
(PID.TID 0000.0001) %MON dynstat_vvel_max             =   0.0000000000000E+00
(PID.TID 0000.0001) %MON dynstat_vvel_min             =   0.0000000000000E+00
(PID.TID 0000.0001) %MON dynstat_vvel_mean            =   0.0000000000000E+00
(PID.TID 0000.0001) %MON dynstat_vvel_sd              =   0.0000000000000E+00
(PID.TID 0000.0001) %MON dynstat_vvel_del2            =   0.0000000000000E+00
(PID.TID 0000.0001) %MON dynstat_wvel_max             =   0.0000000000000E+00
(PID.TID 0000.0001) %MON dynstat_wvel_min             =   0.0000000000000E+00
(PID.TID 0000.0001) %MON dynstat_wvel_mean            =   0.0000000000000E+00
(PID.TID 0000.0001) %MON dynstat_wvel_sd              =   0.0000000000000E+00
(PID.TID 0000.0001) %MON dynstat_wvel_del2            =   0.0000000000000E+00
(PID.TID 0000.0001) %MON dynstat_theta_max            =   1.3333076477051E+01
(PID.TID 0000.0001) %MON dynstat_theta_min            =  -1.4103618860245E+00
(PID.TID 0000.0001) %MON dynstat_theta_mean           =   3.1168426975828E+00
(PID.TID 0000.0001) %MON dynstat_theta_sd             =   1.4047681849177E+00
(PID.TID 0000.0001) %MON dynstat_theta_del2           =   9.7237468258508E-02
(PID.TID 0000.0001) %MON dynstat_salt_max             =   3.5450622558594E+01
(PID.TID 0000.0001) %MON dynstat_salt_min             =   3.0128698348999E+01
(PID.TID 0000.0001) %MON dynstat_salt_mean            =   3.4759355674691E+01
(PID.TID 0000.0001) %MON dynstat_salt_sd              =   4.4306214753982E-01
(PID.TID 0000.0001) %MON dynstat_salt_del2            =   3.8354629598638E-02
(PID.TID 0000.0001) %MON advcfl_uvel_max              =   0.0000000000000E+00
(PID.TID 0000.0001) %MON advcfl_vvel_max              =   0.0000000000000E+00
(PID.TID 0000.0001) %MON advcfl_wvel_max              =   0.0000000000000E+00
(PID.TID 0000.0001) %MON advcfl_W_hf_max              =   0.0000000000000E+00
(PID.TID 0000.0001) %MON pe_b_mean                    =   0.0000000000000E+00
(PID.TID 0000.0001) %MON ke_max                       =   0.0000000000000E+00
(PID.TID 0000.0001) %MON ke_mean                      =   0.0000000000000E+00
(PID.TID 0000.0001) %MON ke_vol                       =   5.3036189546438E+15
(PID.TID 0000.0001) %MON vort_r_min                   =   0.0000000000000E+00
(PID.TID 0000.0001) %MON vort_r_max                   =   0.0000000000000E+00
(PID.TID 0000.0001) %MON vort_a_mean                  =   1.2034316547494E-04
(PID.TID 0000.0001) %MON vort_a_sd                    =   8.7874391288855E-06
(PID.TID 0000.0001) %MON vort_p_mean                  =   1.7686401494479E-04
(PID.TID 0000.0001) %MON vort_p_sd                    =   1.1657305925705E-04
(PID.TID 0000.0001) %MON surfExpan_theta_mean         =   0.0000000000000E+00
(PID.TID 0000.0001) %MON surfExpan_salt_mean          =   0.0000000000000E+00
(PID.TID 0000.0001) // =======================================================
(PID.TID 0000.0001) // End MONITOR dynamic field statistics
(PID.TID 0000.0001) // =======================================================
(PID.TID 0000.0001)  exf_GetFFieldsRec:
(PID.TID 0000.0001)  exf_GetFFieldsRec: first, changed, fac:   T   F   0.50000000E+00
(PID.TID 0000.0001)  exf_GetFFieldsRec: myiter, count0, count1:      0      1      2
(PID.TID 0000.0001)  exf_GetFFieldsRec:
(PID.TID 0000.0001)  MDSREADFIELD: opening global file: SSS.labsea
(PID.TID 0000.0001)  MDSREADFIELD: opening global file: SSS.labsea
(PID.TID 0000.0001)  exf_GetFFieldsRec:
(PID.TID 0000.0001)  exf_GetFFieldsRec: first, changed, fac:   T   F   0.50000000E+00
(PID.TID 0000.0001)  exf_GetFFieldsRec: myiter, count0, count1:      0      1      2
(PID.TID 0000.0001)  exf_GetFFieldsRec:
(PID.TID 0000.0001)  MDSREADFIELD: opening global file: u10m.labsea79
(PID.TID 0000.0001)  MDSREADFIELD: opening global file: u10m.labsea79
(PID.TID 0000.0001)  exf_GetFFieldsRec:
(PID.TID 0000.0001)  exf_GetFFieldsRec: first, changed, fac:   T   F   0.50000000E+00
(PID.TID 0000.0001)  exf_GetFFieldsRec: myiter, count0, count1:      0      1      2
(PID.TID 0000.0001)  exf_GetFFieldsRec:
(PID.TID 0000.0001)  MDSREADFIELD: opening global file: v10m.labsea79
(PID.TID 0000.0001)  MDSREADFIELD: opening global file: v10m.labsea79
(PID.TID 0000.0001)  exf_GetFFieldsRec:
(PID.TID 0000.0001)  exf_GetFFieldsRec: first, changed, fac:   T   F   0.50000000E+00
(PID.TID 0000.0001)  exf_GetFFieldsRec: myiter, count0, count1:      0      1      2
(PID.TID 0000.0001)  exf_GetFFieldsRec:
(PID.TID 0000.0001)  MDSREADFIELD: opening global file: tair.labsea1979
(PID.TID 0000.0001)  MDSREADFIELD: opening global file: tair.labsea1979
(PID.TID 0000.0001)  exf_GetFFieldsRec:
(PID.TID 0000.0001)  exf_GetFFieldsRec: first, changed, fac:   T   F   0.50000000E+00
(PID.TID 0000.0001)  exf_GetFFieldsRec: myiter, count0, count1:      0      1      2
(PID.TID 0000.0001)  exf_GetFFieldsRec:
(PID.TID 0000.0001)  MDSREADFIELD: opening global file: qa.labsea1979
(PID.TID 0000.0001)  MDSREADFIELD: opening global file: qa.labsea1979
(PID.TID 0000.0001)  exf_GetFFieldsRec:
(PID.TID 0000.0001)  exf_GetFFieldsRec: first, changed, fac:   T   F   0.50000000E+00
(PID.TID 0000.0001)  exf_GetFFieldsRec: myiter, count0, count1:      0      1      2
(PID.TID 0000.0001)  exf_GetFFieldsRec:
(PID.TID 0000.0001)  MDSREADFIELD: opening global file: prate.labsea1979
(PID.TID 0000.0001)  MDSREADFIELD: opening global file: prate.labsea1979
(PID.TID 0000.0001)  exf_GetFFieldsRec:
(PID.TID 0000.0001)  exf_GetFFieldsRec: first, changed, fac:   T   F   0.50000000E+00
(PID.TID 0000.0001)  exf_GetFFieldsRec: myiter, count0, count1:      0      1      2
(PID.TID 0000.0001)  exf_GetFFieldsRec:
(PID.TID 0000.0001)  MDSREADFIELD: opening global file: fsh.labsea1979
(PID.TID 0000.0001)  MDSREADFIELD: opening global file: fsh.labsea1979
(PID.TID 0000.0001)  exf_GetFFieldsRec:
(PID.TID 0000.0001)  exf_GetFFieldsRec: first, changed, fac:   T   F   0.50000000E+00
(PID.TID 0000.0001)  exf_GetFFieldsRec: myiter, count0, count1:      0      1      2
(PID.TID 0000.0001)  exf_GetFFieldsRec:
(PID.TID 0000.0001)  MDSREADFIELD: opening global file: flo.labsea1979
(PID.TID 0000.0001)  MDSREADFIELD: opening global file: flo.labsea1979
 cg2d: Sum(rhs),rhsMax =   5.55111512312578E-16  9.98795297239690E-01
(PID.TID 0000.0001)                    cg2d_init_res =    1.59062346780308E+00
(PID.TID 0000.0001)                       cg2d_iters =    35
(PID.TID 0000.0001)                         cg2d_res =    6.99693076736032E-09
(PID.TID 0000.0001) // =======================================================
(PID.TID 0000.0001) // Begin MONITOR dynamic field statistics
(PID.TID 0000.0001) // =======================================================
(PID.TID 0000.0001) %MON time_tsnumber                =                     1
(PID.TID 0000.0001) %MON time_secondsf                =   3.6000000000000E+03
(PID.TID 0000.0001) %MON exf_ustress_max              =   6.3903775845771E-02
(PID.TID 0000.0001) %MON exf_ustress_min              =  -9.5324050318348E-02
(PID.TID 0000.0001) %MON exf_ustress_mean             =   2.2585162028781E-02
(PID.TID 0000.0001) %MON exf_ustress_sd               =   2.7275779997355E-02
(PID.TID 0000.0001) %MON exf_ustress_del2             =   2.9464928316532E-03
(PID.TID 0000.0001) %MON exf_vstress_max              =   5.4708944127586E-02
(PID.TID 0000.0001) %MON exf_vstress_min              =  -6.2488440618747E-02
(PID.TID 0000.0001) %MON exf_vstress_mean             =  -5.6174743223315E-03
(PID.TID 0000.0001) %MON exf_vstress_sd               =   1.5596129749990E-02
(PID.TID 0000.0001) %MON exf_vstress_del2             =   1.7930354012150E-03
(PID.TID 0000.0001) %MON exf_hflux_max                =   7.3111020636161E+02
(PID.TID 0000.0001) %MON exf_hflux_min                =   1.0991726570245E+02
(PID.TID 0000.0001) %MON exf_hflux_mean               =   2.7655955077737E+02
(PID.TID 0000.0001) %MON exf_hflux_sd                 =   1.5872019352493E+02
(PID.TID 0000.0001) %MON exf_hflux_del2               =   1.9324680413847E+01
(PID.TID 0000.0001) %MON exf_sflux_max                =   5.3473262221640E-08
(PID.TID 0000.0001) %MON exf_sflux_min                =  -6.1385296755754E-08
(PID.TID 0000.0001) %MON exf_sflux_mean               =  -7.3062646151541E-09
(PID.TID 0000.0001) %MON exf_sflux_sd                 =   2.6562207566842E-08
(PID.TID 0000.0001) %MON exf_sflux_del2               =   3.6392856083892E-09
(PID.TID 0000.0001) %MON exf_uwind_max                =   6.4643745422363E+00
(PID.TID 0000.0001) %MON exf_uwind_min                =  -6.8372380733490E+00
(PID.TID 0000.0001) %MON exf_uwind_mean               =   2.7697727336031E+00
(PID.TID 0000.0001) %MON exf_uwind_sd                 =   2.9900402496951E+00
(PID.TID 0000.0001) %MON exf_uwind_del2               =   3.1570994739265E-01
(PID.TID 0000.0001) %MON exf_vwind_max                =   3.9240682125092E+00
(PID.TID 0000.0001) %MON exf_vwind_min                =  -6.0197033882141E+00
(PID.TID 0000.0001) %MON exf_vwind_mean               =  -7.6089868124963E-01
(PID.TID 0000.0001) %MON exf_vwind_sd                 =   1.7293437592941E+00
(PID.TID 0000.0001) %MON exf_vwind_del2               =   1.9333263882436E-01
(PID.TID 0000.0001) %MON exf_atemp_max                =   2.8188281250000E+02
(PID.TID 0000.0001) %MON exf_atemp_min                =   2.3646176910400E+02
(PID.TID 0000.0001) %MON exf_atemp_mean               =   2.6394605784141E+02
(PID.TID 0000.0001) %MON exf_atemp_sd                 =   1.1983417694612E+01
(PID.TID 0000.0001) %MON exf_atemp_del2               =   6.4942276000977E-01
(PID.TID 0000.0001) %MON exf_aqh_max                  =   6.3231729436666E-03
(PID.TID 0000.0001) %MON exf_aqh_min                  =   1.6369274817407E-04
(PID.TID 0000.0001) %MON exf_aqh_mean                 =   2.4803629101886E-03
(PID.TID 0000.0001) %MON exf_aqh_sd                   =   1.4265074770275E-03
(PID.TID 0000.0001) %MON exf_aqh_del2                 =   6.8141780599641E-05
(PID.TID 0000.0001) %MON exf_lwflux_max               =   1.9978966060501E+02
(PID.TID 0000.0001) %MON exf_lwflux_min               =   6.3304595803996E+01
(PID.TID 0000.0001) %MON exf_lwflux_mean              =   1.0410079899302E+02
(PID.TID 0000.0001) %MON exf_lwflux_sd                =   3.6519264181786E+01
(PID.TID 0000.0001) %MON exf_lwflux_del2              =   7.9442489972315E+00
(PID.TID 0000.0001) %MON exf_precip_max               =   1.0498766300771E-07
(PID.TID 0000.0001) %MON exf_precip_min               =   2.7359498694368E-10
(PID.TID 0000.0001) %MON exf_precip_mean              =   3.6390080543085E-08
(PID.TID 0000.0001) %MON exf_precip_sd                =   2.0578148171209E-08
(PID.TID 0000.0001) %MON exf_precip_del2              =   2.5551549857431E-09
(PID.TID 0000.0001) %MON exf_swflux_max               =  -8.1205755472183E-02
(PID.TID 0000.0001) %MON exf_swflux_min               =  -6.3973114013672E+01
(PID.TID 0000.0001) %MON exf_swflux_mean              =  -2.6453223022948E+01
(PID.TID 0000.0001) %MON exf_swflux_sd                =   1.9625901079469E+01
(PID.TID 0000.0001) %MON exf_swflux_del2              =   4.7901276555285E-01
(PID.TID 0000.0001) %MON exf_evap_max                 =   5.9797470045733E-08
(PID.TID 0000.0001) %MON exf_evap_min                 =   1.0729148721654E-08
(PID.TID 0000.0001) %MON exf_evap_mean                =   2.9083815927930E-08
(PID.TID 0000.0001) %MON exf_evap_sd                  =   9.2938020844541E-09
(PID.TID 0000.0001) %MON exf_evap_del2                =   2.0154590676424E-09
(PID.TID 0000.0001) %MON exf_swdown_max               =   7.1081237792969E+01
(PID.TID 0000.0001) %MON exf_swdown_min               =   9.0228617191315E-02
(PID.TID 0000.0001) %MON exf_swdown_mean              =   2.9392470025498E+01
(PID.TID 0000.0001) %MON exf_swdown_sd                =   2.1806556754965E+01
(PID.TID 0000.0001) %MON exf_swdown_del2              =   5.3223640616983E-01
(PID.TID 0000.0001) %MON exf_lwdown_max               =   3.0567971801758E+02
(PID.TID 0000.0001) %MON exf_lwdown_min               =   1.1599769210815E+02
(PID.TID 0000.0001) %MON exf_lwdown_mean              =   2.2594931695913E+02
(PID.TID 0000.0001) %MON exf_lwdown_sd                =   4.6277429231296E+01
(PID.TID 0000.0001) %MON exf_lwdown_del2              =   3.2438212966919E+00
(PID.TID 0000.0001) %MON exf_apressure_max            =   0.0000000000000E+00
(PID.TID 0000.0001) %MON exf_apressure_min            =   0.0000000000000E+00
(PID.TID 0000.0001) %MON exf_apressure_mean           =   0.0000000000000E+00
(PID.TID 0000.0001) %MON exf_apressure_sd             =   0.0000000000000E+00
(PID.TID 0000.0001) %MON exf_apressure_del2           =   0.0000000000000E+00
(PID.TID 0000.0001) %MON exf_runoff_max               =   0.0000000000000E+00
(PID.TID 0000.0001) %MON exf_runoff_min               =   0.0000000000000E+00
(PID.TID 0000.0001) %MON exf_runoff_mean              =   0.0000000000000E+00
(PID.TID 0000.0001) %MON exf_runoff_sd                =   0.0000000000000E+00
(PID.TID 0000.0001) %MON exf_runoff_del2              =   0.0000000000000E+00
(PID.TID 0000.0001) %MON exf_climsss_max              =   3.5040330886841E+01
(PID.TID 0000.0001) %MON exf_climsss_min              =   3.0666313171387E+01
(PID.TID 0000.0001) %MON exf_climsss_mean             =   3.3459319600989E+01
(PID.TID 0000.0001) %MON exf_climsss_sd               =   1.0319548925494E+00
(PID.TID 0000.0001) %MON exf_climsss_del2             =   1.0019396146139E-01
(PID.TID 0000.0001) %MON seaice_uice_max              =   1.3618202898934E-03
(PID.TID 0000.0001) %MON seaice_uice_min              =  -1.1211420271796E-04
(PID.TID 0000.0001) %MON seaice_uice_mean             =   4.9379236883352E-04
(PID.TID 0000.0001) %MON seaice_uice_sd               =   4.1659102307837E-04
(PID.TID 0000.0001) %MON seaice_uice_del2             =   4.3886224931829E-05
(PID.TID 0000.0001) %MON seaice_vice_max              =   2.1348532904868E-04
(PID.TID 0000.0001) %MON seaice_vice_min              =  -8.4273667693872E-04
(PID.TID 0000.0001) %MON seaice_vice_mean             =  -1.6011167349055E-04
(PID.TID 0000.0001) %MON seaice_vice_sd               =   2.9070470140925E-04
(PID.TID 0000.0001) %MON seaice_vice_del2             =   3.2388978875316E-05
(PID.TID 0000.0001) %MON seaice_area_max              =   1.0000000000000E+00
(PID.TID 0000.0001) %MON seaice_area_min              =   0.0000000000000E+00
(PID.TID 0000.0001) %MON seaice_area_mean             =   6.3252427752786E-01
(PID.TID 0000.0001) %MON seaice_area_sd               =   4.5176616395208E-01
(PID.TID 0000.0001) %MON seaice_area_del2             =   4.7397920566472E-02
(PID.TID 0000.0001) %MON seaice_heff_max              =   6.0064537752014E-01
(PID.TID 0000.0001) %MON seaice_heff_min              =   0.0000000000000E+00
(PID.TID 0000.0001) %MON seaice_heff_mean             =   1.4898262929094E-01
(PID.TID 0000.0001) %MON seaice_heff_sd               =   1.8290171198479E-01
(PID.TID 0000.0001) %MON seaice_heff_del2             =   1.0123570059456E-02
(PID.TID 0000.0001) %MON dynstat_eta_max              =   2.0779863669939E-01
(PID.TID 0000.0001) %MON dynstat_eta_min              =  -7.8690433736021E-02
(PID.TID 0000.0001) %MON dynstat_eta_mean             =  -2.6204494901736E-11
(PID.TID 0000.0001) %MON dynstat_eta_sd               =   4.6855614908775E-02
(PID.TID 0000.0001) %MON dynstat_eta_del2             =   6.3027130367159E-03
(PID.TID 0000.0001) %MON dynstat_uvel_max             =   2.6522828525167E-02
(PID.TID 0000.0001) %MON dynstat_uvel_min             =  -3.2670391939445E-02
(PID.TID 0000.0001) %MON dynstat_uvel_mean            =  -9.1289089797136E-04
(PID.TID 0000.0001) %MON dynstat_uvel_sd              =   3.0427278894552E-03
(PID.TID 0000.0001) %MON dynstat_uvel_del2            =   1.2491423473885E-03
(PID.TID 0000.0001) %MON dynstat_vvel_max             =   2.1976775476032E-02
(PID.TID 0000.0001) %MON dynstat_vvel_min             =  -2.1097094052834E-02
(PID.TID 0000.0001) %MON dynstat_vvel_mean            =  -1.7350024153528E-03
(PID.TID 0000.0001) %MON dynstat_vvel_sd              =   4.3916322917830E-03
(PID.TID 0000.0001) %MON dynstat_vvel_del2            =   9.8509528852685E-04
(PID.TID 0000.0001) %MON dynstat_wvel_max             =   1.1633104281549E-04
(PID.TID 0000.0001) %MON dynstat_wvel_min             =  -4.2852901367434E-05
(PID.TID 0000.0001) %MON dynstat_wvel_mean            =   3.4601008449159E-22
(PID.TID 0000.0001) %MON dynstat_wvel_sd              =   2.4899457642011E-05
(PID.TID 0000.0001) %MON dynstat_wvel_del2            =   4.8057435476828E-06
(PID.TID 0000.0001) %MON dynstat_theta_max            =   1.3250945981496E+01
(PID.TID 0000.0001) %MON dynstat_theta_min            =  -1.9587672783131E+00
(PID.TID 0000.0001) %MON dynstat_theta_mean           =   3.0756355500084E+00
(PID.TID 0000.0001) %MON dynstat_theta_sd             =   1.4246946868809E+00
(PID.TID 0000.0001) %MON dynstat_theta_del2           =   9.6420704956654E-02
(PID.TID 0000.0001) %MON dynstat_salt_max             =   3.5450601647052E+01
(PID.TID 0000.0001) %MON dynstat_salt_min             =   2.6911476574604E+01
(PID.TID 0000.0001) %MON dynstat_salt_mean            =   3.4740947969804E+01
(PID.TID 0000.0001) %MON dynstat_salt_sd              =   5.5141459315086E-01
(PID.TID 0000.0001) %MON dynstat_salt_del2            =   3.9645456628674E-02
(PID.TID 0000.0001) %MON advcfl_uvel_max              =   2.0433635708689E-03
(PID.TID 0000.0001) %MON advcfl_vvel_max              =   3.5575540225237E-04
(PID.TID 0000.0001) %MON advcfl_wvel_max              =   4.1559727378587E-02
(PID.TID 0000.0001) %MON advcfl_W_hf_max              =   4.1644073743810E-02
(PID.TID 0000.0001) %MON pe_b_mean                    =   7.2376257904823E-06
(PID.TID 0000.0001) %MON ke_max                       =   5.6712976693586E-04
(PID.TID 0000.0001) %MON ke_mean                      =   1.2665948954463E-05
(PID.TID 0000.0001) %MON ke_vol                       =   5.3036189546438E+15
(PID.TID 0000.0001) %MON vort_r_min                   =  -4.4106753887055E-07
(PID.TID 0000.0001) %MON vort_r_max                   =   1.7458245150398E-07
(PID.TID 0000.0001) %MON vort_a_mean                  =   1.2034315569290E-04
(PID.TID 0000.0001) %MON vort_a_sd                    =   8.7866261978497E-06
(PID.TID 0000.0001) %MON vort_p_mean                  =   1.7686400056848E-04
(PID.TID 0000.0001) %MON vort_p_sd                    =   1.1659106668803E-04
(PID.TID 0000.0001) %MON surfExpan_theta_mean         =   7.5185864809991E-06
(PID.TID 0000.0001) %MON surfExpan_salt_mean          =  -3.9383151404942E-06
(PID.TID 0000.0001) // =======================================================
(PID.TID 0000.0001) // End MONITOR dynamic field statistics
(PID.TID 0000.0001) // =======================================================
(PID.TID 0000.0001)  exf_GetFFieldsRec:
(PID.TID 0000.0001)  exf_GetFFieldsRec: first, changed, fac:   F   F   0.49863388E+00
(PID.TID 0000.0001)  exf_GetFFieldsRec: myiter, count0, count1:      1      1      2
(PID.TID 0000.0001)  exf_GetFFieldsRec:
(PID.TID 0000.0001)  exf_GetFFieldsRec:
(PID.TID 0000.0001)  exf_GetFFieldsRec: first, changed, fac:   F   F   0.49863388E+00
(PID.TID 0000.0001)  exf_GetFFieldsRec: myiter, count0, count1:      1      1      2
(PID.TID 0000.0001)  exf_GetFFieldsRec:
(PID.TID 0000.0001)  exf_GetFFieldsRec:
(PID.TID 0000.0001)  exf_GetFFieldsRec: first, changed, fac:   F   F   0.49863388E+00
(PID.TID 0000.0001)  exf_GetFFieldsRec: myiter, count0, count1:      1      1      2
(PID.TID 0000.0001)  exf_GetFFieldsRec:
(PID.TID 0000.0001)  exf_GetFFieldsRec:
(PID.TID 0000.0001)  exf_GetFFieldsRec: first, changed, fac:   F   F   0.49863388E+00
(PID.TID 0000.0001)  exf_GetFFieldsRec: myiter, count0, count1:      1      1      2
(PID.TID 0000.0001)  exf_GetFFieldsRec:
(PID.TID 0000.0001)  exf_GetFFieldsRec:
(PID.TID 0000.0001)  exf_GetFFieldsRec: first, changed, fac:   F   F   0.49863388E+00
(PID.TID 0000.0001)  exf_GetFFieldsRec: myiter, count0, count1:      1      1      2
(PID.TID 0000.0001)  exf_GetFFieldsRec:
(PID.TID 0000.0001)  exf_GetFFieldsRec:
(PID.TID 0000.0001)  exf_GetFFieldsRec: first, changed, fac:   F   F   0.49863388E+00
(PID.TID 0000.0001)  exf_GetFFieldsRec: myiter, count0, count1:      1      1      2
(PID.TID 0000.0001)  exf_GetFFieldsRec:
(PID.TID 0000.0001)  exf_GetFFieldsRec:
(PID.TID 0000.0001)  exf_GetFFieldsRec: first, changed, fac:   F   F   0.49863388E+00
(PID.TID 0000.0001)  exf_GetFFieldsRec: myiter, count0, count1:      1      1      2
(PID.TID 0000.0001)  exf_GetFFieldsRec:
(PID.TID 0000.0001)  exf_GetFFieldsRec:
(PID.TID 0000.0001)  exf_GetFFieldsRec: first, changed, fac:   F   F   0.49863388E+00
(PID.TID 0000.0001)  exf_GetFFieldsRec: myiter, count0, count1:      1      1      2
(PID.TID 0000.0001)  exf_GetFFieldsRec:
 cg2d: Sum(rhs),rhsMax =   9.66168700600178E-10  1.19995530330256E+00
(PID.TID 0000.0001)                    cg2d_init_res =    3.41210199947926E-01
(PID.TID 0000.0001)                       cg2d_iters =    32
(PID.TID 0000.0001)                         cg2d_res =    7.28362637893515E-09
(PID.TID 0000.0001) // =======================================================
(PID.TID 0000.0001) // Begin MONITOR dynamic field statistics
(PID.TID 0000.0001) // =======================================================
(PID.TID 0000.0001) %MON time_tsnumber                =                     2
(PID.TID 0000.0001) %MON time_secondsf                =   7.2000000000000E+03
(PID.TID 0000.0001) %MON exf_ustress_max              =   5.2212665820404E-02
(PID.TID 0000.0001) %MON exf_ustress_min              =  -9.3781468961424E-02
(PID.TID 0000.0001) %MON exf_ustress_mean             =   1.8246350083217E-02
(PID.TID 0000.0001) %MON exf_ustress_sd               =   2.3896032420044E-02
(PID.TID 0000.0001) %MON exf_ustress_del2             =   2.8044029459810E-03
(PID.TID 0000.0001) %MON exf_vstress_max              =   5.3823819827808E-02
(PID.TID 0000.0001) %MON exf_vstress_min              =  -5.8829687503121E-02
(PID.TID 0000.0001) %MON exf_vstress_mean             =  -5.4463533251033E-03
(PID.TID 0000.0001) %MON exf_vstress_sd               =   1.4495601618507E-02
(PID.TID 0000.0001) %MON exf_vstress_del2             =   1.7061531857838E-03
(PID.TID 0000.0001) %MON exf_hflux_max                =   6.2467172067674E+02
(PID.TID 0000.0001) %MON exf_hflux_min                =  -4.5411557505969E+01
(PID.TID 0000.0001) %MON exf_hflux_mean               =   1.4939054860129E+02
(PID.TID 0000.0001) %MON exf_hflux_sd                 =   1.7970031103261E+02
(PID.TID 0000.0001) %MON exf_hflux_del2               =   1.6404126263045E+01
(PID.TID 0000.0001) %MON exf_sflux_max                =   3.9008553125892E-08
(PID.TID 0000.0001) %MON exf_sflux_min                =  -8.7384463338012E-08
(PID.TID 0000.0001) %MON exf_sflux_mean               =  -2.5520106549014E-08
(PID.TID 0000.0001) %MON exf_sflux_sd                 =   3.0249256938383E-08
(PID.TID 0000.0001) %MON exf_sflux_del2               =   3.1583664906048E-09
(PID.TID 0000.0001) %MON exf_uwind_max                =   6.4648819946852E+00
(PID.TID 0000.0001) %MON exf_uwind_min                =  -6.8372648550513E+00
(PID.TID 0000.0001) %MON exf_uwind_mean               =   2.7698802859475E+00
(PID.TID 0000.0001) %MON exf_uwind_sd                 =   2.9903162155877E+00
(PID.TID 0000.0001) %MON exf_uwind_del2               =   3.1571785161521E-01
(PID.TID 0000.0001) %MON exf_vwind_max                =   3.9240983933048E+00
(PID.TID 0000.0001) %MON exf_vwind_min                =  -6.0187974783892E+00
(PID.TID 0000.0001) %MON exf_vwind_mean               =  -7.6028090815952E-01
(PID.TID 0000.0001) %MON exf_vwind_sd                 =   1.7294518007626E+00
(PID.TID 0000.0001) %MON exf_vwind_del2               =   1.9332576748242E-01
(PID.TID 0000.0001) %MON exf_atemp_max                =   2.8188110034713E+02
(PID.TID 0000.0001) %MON exf_atemp_min                =   2.3645730413635E+02
(PID.TID 0000.0001) %MON exf_atemp_mean               =   2.6394141375606E+02
(PID.TID 0000.0001) %MON exf_atemp_sd                 =   1.1984878226631E+01
(PID.TID 0000.0001) %MON exf_atemp_del2               =   6.4944209295109E-01
(PID.TID 0000.0001) %MON exf_aqh_max                  =   6.3224764028055E-03
(PID.TID 0000.0001) %MON exf_aqh_min                  =   1.6359864467567E-04
(PID.TID 0000.0001) %MON exf_aqh_mean                 =   2.4798025537840E-03
(PID.TID 0000.0001) %MON exf_aqh_sd                   =   1.4264043737180E-03
(PID.TID 0000.0001) %MON exf_aqh_del2                 =   6.8128113038494E-05
(PID.TID 0000.0001) %MON exf_lwflux_max               =   1.8380777115084E+02
(PID.TID 0000.0001) %MON exf_lwflux_min               =   2.8922227063767E+01
(PID.TID 0000.0001) %MON exf_lwflux_mean              =   7.6129849740903E+01
(PID.TID 0000.0001) %MON exf_lwflux_sd                =   4.2558156267045E+01
(PID.TID 0000.0001) %MON exf_lwflux_del2              =   7.0238107911438E+00
(PID.TID 0000.0001) %MON exf_precip_max               =   1.0498904445033E-07
(PID.TID 0000.0001) %MON exf_precip_min               =   2.7346106047101E-10
(PID.TID 0000.0001) %MON exf_precip_mean              =   3.6390069699050E-08
(PID.TID 0000.0001) %MON exf_precip_sd                =   2.0578598603627E-08
(PID.TID 0000.0001) %MON exf_precip_del2              =   2.5556826789328E-09
(PID.TID 0000.0001) %MON exf_swflux_max               =  -8.1206038349965E-02
(PID.TID 0000.0001) %MON exf_swflux_min               =  -6.3991984364244E+01
(PID.TID 0000.0001) %MON exf_swflux_mean              =  -2.6463755238823E+01
(PID.TID 0000.0001) %MON exf_swflux_sd                =   1.9629736696482E+01
(PID.TID 0000.0001) %MON exf_swflux_del2              =   4.7911963949881E-01
(PID.TID 0000.0001) %MON exf_evap_max                 =   4.5332098239055E-08
(PID.TID 0000.0001) %MON exf_evap_min                 =  -3.1030872073287E-09
(PID.TID 0000.0001) %MON exf_evap_mean                =   1.0869963150037E-08
(PID.TID 0000.0001) %MON exf_evap_sd                  =   1.1004481271240E-08
(PID.TID 0000.0001) %MON exf_evap_del2                =   1.3542767610334E-09
(PID.TID 0000.0001) %MON exf_swdown_max               =   7.1102204849160E+01
(PID.TID 0000.0001) %MON exf_swdown_min               =   9.0228931499961E-02
(PID.TID 0000.0001) %MON exf_swdown_mean              =   2.9404172487581E+01
(PID.TID 0000.0001) %MON exf_swdown_sd                =   2.1810818551646E+01
(PID.TID 0000.0001) %MON exf_swdown_del2              =   5.3235515499868E-01
(PID.TID 0000.0001) %MON exf_lwdown_max               =   3.0567089193375E+02
(PID.TID 0000.0001) %MON exf_lwdown_min               =   1.1598258522951E+02
(PID.TID 0000.0001) %MON exf_lwdown_mean              =   2.2593360963007E+02
(PID.TID 0000.0001) %MON exf_lwdown_sd                =   4.6281398610271E+01
(PID.TID 0000.0001) %MON exf_lwdown_del2              =   3.2438329367646E+00
(PID.TID 0000.0001) %MON exf_apressure_max            =   0.0000000000000E+00
(PID.TID 0000.0001) %MON exf_apressure_min            =   0.0000000000000E+00
(PID.TID 0000.0001) %MON exf_apressure_mean           =   0.0000000000000E+00
(PID.TID 0000.0001) %MON exf_apressure_sd             =   0.0000000000000E+00
(PID.TID 0000.0001) %MON exf_apressure_del2           =   0.0000000000000E+00
(PID.TID 0000.0001) %MON exf_runoff_max               =   0.0000000000000E+00
(PID.TID 0000.0001) %MON exf_runoff_min               =   0.0000000000000E+00
(PID.TID 0000.0001) %MON exf_runoff_mean              =   0.0000000000000E+00
(PID.TID 0000.0001) %MON exf_runoff_sd                =   0.0000000000000E+00
(PID.TID 0000.0001) %MON exf_runoff_del2              =   0.0000000000000E+00
(PID.TID 0000.0001) %MON exf_climsss_max              =   3.5040515633880E+01
(PID.TID 0000.0001) %MON exf_climsss_min              =   3.0667072499385E+01
(PID.TID 0000.0001) %MON exf_climsss_mean             =   3.3459840934468E+01
(PID.TID 0000.0001) %MON exf_climsss_sd               =   1.0318832207269E+00
(PID.TID 0000.0001) %MON exf_climsss_del2             =   1.0017673217099E-01
(PID.TID 0000.0001) %MON seaice_uice_max              =   1.1456906406016E-01
(PID.TID 0000.0001) %MON seaice_uice_min              =  -2.4849350917675E-04
(PID.TID 0000.0001) %MON seaice_uice_mean             =   4.1447720061304E-02
(PID.TID 0000.0001) %MON seaice_uice_sd               =   3.9974066798874E-02
(PID.TID 0000.0001) %MON seaice_uice_del2             =   4.3234304752397E-03
(PID.TID 0000.0001) %MON seaice_vice_max              =   3.7151154658874E-02
(PID.TID 0000.0001) %MON seaice_vice_min              =  -4.2932503372673E-02
(PID.TID 0000.0001) %MON seaice_vice_mean             =  -1.6327414481797E-03
(PID.TID 0000.0001) %MON seaice_vice_sd               =   1.6006701059532E-02
(PID.TID 0000.0001) %MON seaice_vice_del2             =   2.2061503881584E-03
(PID.TID 0000.0001) %MON seaice_area_max              =   1.0000000000000E+00
(PID.TID 0000.0001) %MON seaice_area_min              =   0.0000000000000E+00
(PID.TID 0000.0001) %MON seaice_area_mean             =   6.1472153764359E-01
(PID.TID 0000.0001) %MON seaice_area_sd               =   4.6826432811889E-01
(PID.TID 0000.0001) %MON seaice_area_del2             =   5.2477203957300E-02
(PID.TID 0000.0001) %MON seaice_heff_max              =   5.5894507919910E-01
(PID.TID 0000.0001) %MON seaice_heff_min              =   0.0000000000000E+00
(PID.TID 0000.0001) %MON seaice_heff_mean             =   1.4260130684585E-01
(PID.TID 0000.0001) %MON seaice_heff_sd               =   1.7487632244206E-01
(PID.TID 0000.0001) %MON seaice_heff_del2             =   1.3251198656438E-02
(PID.TID 0000.0001) %MON dynstat_eta_max              =   2.9020256563422E-01
(PID.TID 0000.0001) %MON dynstat_eta_min              =  -1.2959829300592E-01
(PID.TID 0000.0001) %MON dynstat_eta_mean             =   9.0931420095666E-12
(PID.TID 0000.0001) %MON dynstat_eta_sd               =   7.5353110800907E-02
(PID.TID 0000.0001) %MON dynstat_eta_del2             =   7.7287924723535E-03
(PID.TID 0000.0001) %MON dynstat_uvel_max             =   4.7947167387875E-02
(PID.TID 0000.0001) %MON dynstat_uvel_min             =  -4.9770294304547E-02
(PID.TID 0000.0001) %MON dynstat_uvel_mean            =  -8.3794707248853E-04
(PID.TID 0000.0001) %MON dynstat_uvel_sd              =   4.9664390389161E-03
(PID.TID 0000.0001) %MON dynstat_uvel_del2            =   2.0997258971952E-03
(PID.TID 0000.0001) %MON dynstat_vvel_max             =   4.7177535096166E-02
(PID.TID 0000.0001) %MON dynstat_vvel_min             =  -4.6600348318755E-02
(PID.TID 0000.0001) %MON dynstat_vvel_mean            =  -1.5534859921108E-03
(PID.TID 0000.0001) %MON dynstat_vvel_sd              =   7.2833211103951E-03
(PID.TID 0000.0001) %MON dynstat_vvel_del2            =   1.5919338605872E-03
(PID.TID 0000.0001) %MON dynstat_wvel_max             =   1.7620936748081E-04
(PID.TID 0000.0001) %MON dynstat_wvel_min             =  -6.9401004190441E-05
(PID.TID 0000.0001) %MON dynstat_wvel_mean            =   1.4334703500366E-21
(PID.TID 0000.0001) %MON dynstat_wvel_sd              =   3.2761467686666E-05
(PID.TID 0000.0001) %MON dynstat_wvel_del2            =   5.5777027820434E-06
(PID.TID 0000.0001) %MON dynstat_theta_max            =   1.3359444007339E+01
(PID.TID 0000.0001) %MON dynstat_theta_min            =  -1.9946609619687E+00
(PID.TID 0000.0001) %MON dynstat_theta_mean           =   3.0752909878919E+00
(PID.TID 0000.0001) %MON dynstat_theta_sd             =   1.4255934006227E+00
(PID.TID 0000.0001) %MON dynstat_theta_del2           =   9.4054440414611E-02
(PID.TID 0000.0001) %MON dynstat_salt_max             =   3.5450852624529E+01
(PID.TID 0000.0001) %MON dynstat_salt_min             =   2.6914298354407E+01
(PID.TID 0000.0001) %MON dynstat_salt_mean            =   3.4740832047871E+01
(PID.TID 0000.0001) %MON dynstat_salt_sd              =   5.5196279233396E-01
(PID.TID 0000.0001) %MON dynstat_salt_del2            =   3.8666556188242E-02
(PID.TID 0000.0001) %MON advcfl_uvel_max              =   3.1128737751857E-03
(PID.TID 0000.0001) %MON advcfl_vvel_max              =   7.6369997926748E-04
(PID.TID 0000.0001) %MON advcfl_wvel_max              =   1.6480786618729E-02
(PID.TID 0000.0001) %MON advcfl_W_hf_max              =   1.6866544502821E-02
(PID.TID 0000.0001) %MON pe_b_mean                    =   1.8718679717435E-05
(PID.TID 0000.0001) %MON ke_max                       =   1.6980275940617E-03
(PID.TID 0000.0001) %MON ke_mean                      =   3.1610022199769E-05
(PID.TID 0000.0001) %MON ke_vol                       =   5.3036189546438E+15
(PID.TID 0000.0001) %MON vort_r_min                   =  -8.6813266966337E-07
(PID.TID 0000.0001) %MON vort_r_max                   =   3.7230457742745E-07
(PID.TID 0000.0001) %MON vort_a_mean                  =   1.2034316298377E-04
(PID.TID 0000.0001) %MON vort_a_sd                    =   8.7866392674842E-06
(PID.TID 0000.0001) %MON vort_p_mean                  =   1.7686401128361E-04
(PID.TID 0000.0001) %MON vort_p_sd                    =   1.1659645971235E-04
(PID.TID 0000.0001) %MON surfExpan_theta_mean         =   5.2921693116249E-06
(PID.TID 0000.0001) %MON surfExpan_salt_mean          =  -3.3176743011243E-06
(PID.TID 0000.0001) // =======================================================
(PID.TID 0000.0001) // End MONITOR dynamic field statistics
(PID.TID 0000.0001) // =======================================================
(PID.TID 0000.0001)  exf_GetFFieldsRec:
(PID.TID 0000.0001)  exf_GetFFieldsRec: first, changed, fac:   F   F   0.49726776E+00
(PID.TID 0000.0001)  exf_GetFFieldsRec: myiter, count0, count1:      2      1      2
(PID.TID 0000.0001)  exf_GetFFieldsRec:
(PID.TID 0000.0001)  exf_GetFFieldsRec:
(PID.TID 0000.0001)  exf_GetFFieldsRec: first, changed, fac:   F   F   0.49726776E+00
(PID.TID 0000.0001)  exf_GetFFieldsRec: myiter, count0, count1:      2      1      2
(PID.TID 0000.0001)  exf_GetFFieldsRec:
(PID.TID 0000.0001)  exf_GetFFieldsRec:
(PID.TID 0000.0001)  exf_GetFFieldsRec: first, changed, fac:   F   F   0.49726776E+00
(PID.TID 0000.0001)  exf_GetFFieldsRec: myiter, count0, count1:      2      1      2
(PID.TID 0000.0001)  exf_GetFFieldsRec:
(PID.TID 0000.0001)  exf_GetFFieldsRec:
(PID.TID 0000.0001)  exf_GetFFieldsRec: first, changed, fac:   F   F   0.49726776E+00
(PID.TID 0000.0001)  exf_GetFFieldsRec: myiter, count0, count1:      2      1      2
(PID.TID 0000.0001)  exf_GetFFieldsRec:
(PID.TID 0000.0001)  exf_GetFFieldsRec:
(PID.TID 0000.0001)  exf_GetFFieldsRec: first, changed, fac:   F   F   0.49726776E+00
(PID.TID 0000.0001)  exf_GetFFieldsRec: myiter, count0, count1:      2      1      2
(PID.TID 0000.0001)  exf_GetFFieldsRec:
(PID.TID 0000.0001)  exf_GetFFieldsRec:
(PID.TID 0000.0001)  exf_GetFFieldsRec: first, changed, fac:   F   F   0.49726776E+00
(PID.TID 0000.0001)  exf_GetFFieldsRec: myiter, count0, count1:      2      1      2
(PID.TID 0000.0001)  exf_GetFFieldsRec:
(PID.TID 0000.0001)  exf_GetFFieldsRec:
(PID.TID 0000.0001)  exf_GetFFieldsRec: first, changed, fac:   F   F   0.49726776E+00
(PID.TID 0000.0001)  exf_GetFFieldsRec: myiter, count0, count1:      2      1      2
(PID.TID 0000.0001)  exf_GetFFieldsRec:
(PID.TID 0000.0001)  exf_GetFFieldsRec:
(PID.TID 0000.0001)  exf_GetFFieldsRec: first, changed, fac:   F   F   0.49726776E+00
(PID.TID 0000.0001)  exf_GetFFieldsRec: myiter, count0, count1:      2      1      2
(PID.TID 0000.0001)  exf_GetFFieldsRec:
 cg2d: Sum(rhs),rhsMax =  -3.29530069897999E-10  1.22085061107380E+00
(PID.TID 0000.0001)                    cg2d_init_res =    1.84239329013061E-01
(PID.TID 0000.0001)                       cg2d_iters =    31
(PID.TID 0000.0001)                         cg2d_res =    9.06727476522709E-09
(PID.TID 0000.0001) // =======================================================
(PID.TID 0000.0001) // Begin MONITOR dynamic field statistics
(PID.TID 0000.0001) // =======================================================
(PID.TID 0000.0001) %MON time_tsnumber                =                     3
(PID.TID 0000.0001) %MON time_secondsf                =   1.0800000000000E+04
(PID.TID 0000.0001) %MON exf_ustress_max              =   5.2234135016496E-02
(PID.TID 0000.0001) %MON exf_ustress_min              =  -9.3784937894212E-02
(PID.TID 0000.0001) %MON exf_ustress_mean             =   1.8255359267219E-02
(PID.TID 0000.0001) %MON exf_ustress_sd               =   2.3910290062278E-02
(PID.TID 0000.0001) %MON exf_ustress_del2             =   2.8030560786473E-03
(PID.TID 0000.0001) %MON exf_vstress_max              =   5.3826013890150E-02
(PID.TID 0000.0001) %MON exf_vstress_min              =  -5.8812881822064E-02
(PID.TID 0000.0001) %MON exf_vstress_mean             =  -5.4356234581293E-03
(PID.TID 0000.0001) %MON exf_vstress_sd               =   1.4495428719483E-02
(PID.TID 0000.0001) %MON exf_vstress_del2             =   1.7061416819924E-03
(PID.TID 0000.0001) %MON exf_hflux_max                =   6.2480425643875E+02
(PID.TID 0000.0001) %MON exf_hflux_min                =  -4.3204244078354E+01
(PID.TID 0000.0001) %MON exf_hflux_mean               =   1.4856839315569E+02
(PID.TID 0000.0001) %MON exf_hflux_sd                 =   1.7819406700522E+02
(PID.TID 0000.0001) %MON exf_hflux_del2               =   1.6119041524801E+01
(PID.TID 0000.0001) %MON exf_sflux_max                =   3.9018784252366E-08
(PID.TID 0000.0001) %MON exf_sflux_min                =  -8.7391084963623E-08
(PID.TID 0000.0001) %MON exf_sflux_mean               =  -2.5614904361573E-08
(PID.TID 0000.0001) %MON exf_sflux_sd                 =   3.0087638956432E-08
(PID.TID 0000.0001) %MON exf_sflux_del2               =   3.1587975840036E-09
(PID.TID 0000.0001) %MON exf_uwind_max                =   6.4653894471340E+00
(PID.TID 0000.0001) %MON exf_uwind_min                =  -6.8372916367536E+00
(PID.TID 0000.0001) %MON exf_uwind_mean               =   2.7699878382919E+00
(PID.TID 0000.0001) %MON exf_uwind_sd                 =   2.9905922217476E+00
(PID.TID 0000.0001) %MON exf_uwind_del2               =   3.1572575583776E-01
(PID.TID 0000.0001) %MON exf_vwind_max                =   3.9241285741003E+00
(PID.TID 0000.0001) %MON exf_vwind_min                =  -6.0178915685643E+00
(PID.TID 0000.0001) %MON exf_vwind_mean               =  -7.5966313506940E-01
(PID.TID 0000.0001) %MON exf_vwind_sd                 =   1.7295599554900E+00
(PID.TID 0000.0001) %MON exf_vwind_del2               =   1.9331889614049E-01
(PID.TID 0000.0001) %MON exf_atemp_max                =   2.8187938819427E+02
(PID.TID 0000.0001) %MON exf_atemp_min                =   2.3645283916869E+02
(PID.TID 0000.0001) %MON exf_atemp_mean               =   2.6393676967070E+02
(PID.TID 0000.0001) %MON exf_atemp_sd                 =   1.1986339246462E+01
(PID.TID 0000.0001) %MON exf_atemp_del2               =   6.4946142589242E-01
(PID.TID 0000.0001) %MON exf_aqh_max                  =   6.3217798619445E-03
(PID.TID 0000.0001) %MON exf_aqh_min                  =   1.6350454117726E-04
(PID.TID 0000.0001) %MON exf_aqh_mean                 =   2.4792421973794E-03
(PID.TID 0000.0001) %MON exf_aqh_sd                   =   1.4263013062694E-03
(PID.TID 0000.0001) %MON exf_aqh_del2                 =   6.8114445477348E-05
(PID.TID 0000.0001) %MON exf_lwflux_max               =   1.8153243017635E+02
(PID.TID 0000.0001) %MON exf_lwflux_min               =   2.9315348848152E+01
(PID.TID 0000.0001) %MON exf_lwflux_mean              =   7.5946277213869E+01
(PID.TID 0000.0001) %MON exf_lwflux_sd                =   4.2224339956995E+01
(PID.TID 0000.0001) %MON exf_lwflux_del2              =   7.0180123427493E+00
(PID.TID 0000.0001) %MON exf_precip_max               =   1.0499042589295E-07
(PID.TID 0000.0001) %MON exf_precip_min               =   2.7332713399833E-10
(PID.TID 0000.0001) %MON exf_precip_mean              =   3.6390058855016E-08
(PID.TID 0000.0001) %MON exf_precip_sd                =   2.0579049691733E-08
(PID.TID 0000.0001) %MON exf_precip_del2              =   2.5562103721225E-09
(PID.TID 0000.0001) %MON exf_swflux_max               =  -8.1206321227746E-02
(PID.TID 0000.0001) %MON exf_swflux_min               =  -6.4010854714816E+01
(PID.TID 0000.0001) %MON exf_swflux_mean              =  -2.6474287454698E+01
(PID.TID 0000.0001) %MON exf_swflux_sd                =   1.9633572905820E+01
(PID.TID 0000.0001) %MON exf_swflux_del2              =   4.7922651344477E-01
(PID.TID 0000.0001) %MON exf_evap_max                 =   4.5341666654598E-08
(PID.TID 0000.0001) %MON exf_evap_min                 =  -2.6752055353699E-09
(PID.TID 0000.0001) %MON exf_evap_mean                =   1.0775154493443E-08
(PID.TID 0000.0001) %MON exf_evap_sd                  =   1.0832432081752E-08
(PID.TID 0000.0001) %MON exf_evap_del2                =   1.3143025656283E-09
(PID.TID 0000.0001) %MON exf_swdown_max               =   7.1123171905351E+01
(PID.TID 0000.0001) %MON exf_swdown_min               =   9.0229245808607E-02
(PID.TID 0000.0001) %MON exf_swdown_mean              =   2.9415874949665E+01
(PID.TID 0000.0001) %MON exf_swdown_sd                =   2.1815081006466E+01
(PID.TID 0000.0001) %MON exf_swdown_del2              =   5.3247390382752E-01
(PID.TID 0000.0001) %MON exf_lwdown_max               =   3.0566206584993E+02
(PID.TID 0000.0001) %MON exf_lwdown_min               =   1.1596747835086E+02
(PID.TID 0000.0001) %MON exf_lwdown_mean              =   2.2591790230100E+02
(PID.TID 0000.0001) %MON exf_lwdown_sd                =   4.6285369157135E+01
(PID.TID 0000.0001) %MON exf_lwdown_del2              =   3.2438445768374E+00
(PID.TID 0000.0001) %MON exf_apressure_max            =   0.0000000000000E+00
(PID.TID 0000.0001) %MON exf_apressure_min            =   0.0000000000000E+00
(PID.TID 0000.0001) %MON exf_apressure_mean           =   0.0000000000000E+00
(PID.TID 0000.0001) %MON exf_apressure_sd             =   0.0000000000000E+00
(PID.TID 0000.0001) %MON exf_apressure_del2           =   0.0000000000000E+00
(PID.TID 0000.0001) %MON exf_runoff_max               =   0.0000000000000E+00
(PID.TID 0000.0001) %MON exf_runoff_min               =   0.0000000000000E+00
(PID.TID 0000.0001) %MON exf_runoff_mean              =   0.0000000000000E+00
(PID.TID 0000.0001) %MON exf_runoff_sd                =   0.0000000000000E+00
(PID.TID 0000.0001) %MON exf_runoff_del2              =   0.0000000000000E+00
(PID.TID 0000.0001) %MON exf_climsss_max              =   3.5040700380919E+01
(PID.TID 0000.0001) %MON exf_climsss_min              =   3.0667831827383E+01
(PID.TID 0000.0001) %MON exf_climsss_mean             =   3.3460362267948E+01
(PID.TID 0000.0001) %MON exf_climsss_sd               =   1.0318117788237E+00
(PID.TID 0000.0001) %MON exf_climsss_del2             =   1.0015950288060E-01
(PID.TID 0000.0001) %MON seaice_uice_max              =   1.3095624911727E-01
(PID.TID 0000.0001) %MON seaice_uice_min              =  -2.8412502162633E-04
(PID.TID 0000.0001) %MON seaice_uice_mean             =   5.0845436445615E-02
(PID.TID 0000.0001) %MON seaice_uice_sd               =   4.2098031432884E-02
(PID.TID 0000.0001) %MON seaice_uice_del2             =   3.8022763721834E-03
(PID.TID 0000.0001) %MON seaice_vice_max              =   6.0518899081699E-02
(PID.TID 0000.0001) %MON seaice_vice_min              =  -9.9075754450195E-02
(PID.TID 0000.0001) %MON seaice_vice_mean             =  -6.6320512550155E-03
(PID.TID 0000.0001) %MON seaice_vice_sd               =   2.9695147561751E-02
(PID.TID 0000.0001) %MON seaice_vice_del2             =   3.2731908373293E-03
(PID.TID 0000.0001) %MON seaice_area_max              =   1.0000000000000E+00
(PID.TID 0000.0001) %MON seaice_area_min              =   0.0000000000000E+00
(PID.TID 0000.0001) %MON seaice_area_mean             =   6.0730748387726E-01
(PID.TID 0000.0001) %MON seaice_area_sd               =   4.7493499377062E-01
(PID.TID 0000.0001) %MON seaice_area_del2             =   5.4382908766073E-02
(PID.TID 0000.0001) %MON seaice_heff_max              =   5.5888206915689E-01
(PID.TID 0000.0001) %MON seaice_heff_min              =   0.0000000000000E+00
(PID.TID 0000.0001) %MON seaice_heff_mean             =   1.4243958402254E-01
(PID.TID 0000.0001) %MON seaice_heff_sd               =   1.7469508290949E-01
(PID.TID 0000.0001) %MON seaice_heff_del2             =   1.3150227944820E-02
(PID.TID 0000.0001) %MON dynstat_eta_max              =   3.1502883977845E-01
(PID.TID 0000.0001) %MON dynstat_eta_min              =  -1.4524541329714E-01
(PID.TID 0000.0001) %MON dynstat_eta_mean             =   9.8188678494054E-12
(PID.TID 0000.0001) %MON dynstat_eta_sd               =   8.6323458814367E-02
(PID.TID 0000.0001) %MON dynstat_eta_del2             =   7.3921083997456E-03
(PID.TID 0000.0001) %MON dynstat_uvel_max             =   6.5823610945515E-02
(PID.TID 0000.0001) %MON dynstat_uvel_min             =  -5.3310408914822E-02
(PID.TID 0000.0001) %MON dynstat_uvel_mean            =  -2.5430413874507E-04
(PID.TID 0000.0001) %MON dynstat_uvel_sd              =   6.3961929278182E-03
(PID.TID 0000.0001) %MON dynstat_uvel_del2            =   2.5876445203197E-03
(PID.TID 0000.0001) %MON dynstat_vvel_max             =   7.1647666628988E-02
(PID.TID 0000.0001) %MON dynstat_vvel_min             =  -7.1144213491973E-02
(PID.TID 0000.0001) %MON dynstat_vvel_mean            =  -1.0275452708805E-03
(PID.TID 0000.0001) %MON dynstat_vvel_sd              =   9.5695183965951E-03
(PID.TID 0000.0001) %MON dynstat_vvel_del2            =   1.9640614294626E-03
(PID.TID 0000.0001) %MON dynstat_wvel_max             =   2.3693124913624E-04
(PID.TID 0000.0001) %MON dynstat_wvel_min             =  -1.1001168401814E-04
(PID.TID 0000.0001) %MON dynstat_wvel_mean            =   7.4145018105341E-22
(PID.TID 0000.0001) %MON dynstat_wvel_sd              =   4.0889738726756E-05
(PID.TID 0000.0001) %MON dynstat_wvel_del2            =   6.3919843320148E-06
(PID.TID 0000.0001) %MON dynstat_theta_max            =   1.3358737621405E+01
(PID.TID 0000.0001) %MON dynstat_theta_min            =  -1.9734151372771E+00
(PID.TID 0000.0001) %MON dynstat_theta_mean           =   3.0752667302208E+00
(PID.TID 0000.0001) %MON dynstat_theta_sd             =   1.4255674594337E+00
(PID.TID 0000.0001) %MON dynstat_theta_del2           =   9.3931018095490E-02
(PID.TID 0000.0001) %MON dynstat_salt_max             =   3.5451031138202E+01
(PID.TID 0000.0001) %MON dynstat_salt_min             =   2.6917101563539E+01
(PID.TID 0000.0001) %MON dynstat_salt_mean            =   3.4740842633432E+01
(PID.TID 0000.0001) %MON dynstat_salt_sd              =   5.5183473726047E-01
(PID.TID 0000.0001) %MON dynstat_salt_del2            =   3.8590251093563E-02
(PID.TID 0000.0001) %MON advcfl_uvel_max              =   3.1926256996334E-03
(PID.TID 0000.0001) %MON advcfl_vvel_max              =   1.1598173030360E-03
(PID.TID 0000.0001) %MON advcfl_wvel_max              =   9.2520416268394E-03
(PID.TID 0000.0001) %MON advcfl_W_hf_max              =   8.9363686264312E-03
(PID.TID 0000.0001) %MON pe_b_mean                    =   2.4565777171852E-05
(PID.TID 0000.0001) %MON ke_max                       =   2.6640999846421E-03
(PID.TID 0000.0001) %MON ke_mean                      =   5.2245828203577E-05
(PID.TID 0000.0001) %MON ke_vol                       =   5.3036189546438E+15
(PID.TID 0000.0001) %MON vort_r_min                   =  -1.1997773205365E-06
(PID.TID 0000.0001) %MON vort_r_max                   =   5.3097923271873E-07
(PID.TID 0000.0001) %MON vort_a_mean                  =   1.2034316251947E-04
(PID.TID 0000.0001) %MON vort_a_sd                    =   8.7872141940808E-06
(PID.TID 0000.0001) %MON vort_p_mean                  =   1.7686401060125E-04
(PID.TID 0000.0001) %MON vort_p_sd                    =   1.1659504969732E-04
(PID.TID 0000.0001) %MON surfExpan_theta_mean         =   3.3945405006412E-06
(PID.TID 0000.0001) %MON surfExpan_salt_mean          =  -1.5783447190396E-06
(PID.TID 0000.0001) // =======================================================
(PID.TID 0000.0001) // End MONITOR dynamic field statistics
(PID.TID 0000.0001) // =======================================================
(PID.TID 0000.0001)  exf_GetFFieldsRec:
(PID.TID 0000.0001)  exf_GetFFieldsRec: first, changed, fac:   F   F   0.49590164E+00
(PID.TID 0000.0001)  exf_GetFFieldsRec: myiter, count0, count1:      3      1      2
(PID.TID 0000.0001)  exf_GetFFieldsRec:
(PID.TID 0000.0001)  exf_GetFFieldsRec:
(PID.TID 0000.0001)  exf_GetFFieldsRec: first, changed, fac:   F   F   0.49590164E+00
(PID.TID 0000.0001)  exf_GetFFieldsRec: myiter, count0, count1:      3      1      2
(PID.TID 0000.0001)  exf_GetFFieldsRec:
(PID.TID 0000.0001)  exf_GetFFieldsRec:
(PID.TID 0000.0001)  exf_GetFFieldsRec: first, changed, fac:   F   F   0.49590164E+00
(PID.TID 0000.0001)  exf_GetFFieldsRec: myiter, count0, count1:      3      1      2
(PID.TID 0000.0001)  exf_GetFFieldsRec:
(PID.TID 0000.0001)  exf_GetFFieldsRec:
(PID.TID 0000.0001)  exf_GetFFieldsRec: first, changed, fac:   F   F   0.49590164E+00
(PID.TID 0000.0001)  exf_GetFFieldsRec: myiter, count0, count1:      3      1      2
(PID.TID 0000.0001)  exf_GetFFieldsRec:
(PID.TID 0000.0001)  exf_GetFFieldsRec:
(PID.TID 0000.0001)  exf_GetFFieldsRec: first, changed, fac:   F   F   0.49590164E+00
(PID.TID 0000.0001)  exf_GetFFieldsRec: myiter, count0, count1:      3      1      2
(PID.TID 0000.0001)  exf_GetFFieldsRec:
(PID.TID 0000.0001)  exf_GetFFieldsRec:
(PID.TID 0000.0001)  exf_GetFFieldsRec: first, changed, fac:   F   F   0.49590164E+00
(PID.TID 0000.0001)  exf_GetFFieldsRec: myiter, count0, count1:      3      1      2
(PID.TID 0000.0001)  exf_GetFFieldsRec:
(PID.TID 0000.0001)  exf_GetFFieldsRec:
(PID.TID 0000.0001)  exf_GetFFieldsRec: first, changed, fac:   F   F   0.49590164E+00
(PID.TID 0000.0001)  exf_GetFFieldsRec: myiter, count0, count1:      3      1      2
(PID.TID 0000.0001)  exf_GetFFieldsRec:
(PID.TID 0000.0001)  exf_GetFFieldsRec:
(PID.TID 0000.0001)  exf_GetFFieldsRec: first, changed, fac:   F   F   0.49590164E+00
(PID.TID 0000.0001)  exf_GetFFieldsRec: myiter, count0, count1:      3      1      2
(PID.TID 0000.0001)  exf_GetFFieldsRec:
 cg2d: Sum(rhs),rhsMax =  -3.56876306284448E-10  1.21726914425828E+00
(PID.TID 0000.0001)                    cg2d_init_res =    1.37060981313094E-01
(PID.TID 0000.0001)                       cg2d_iters =    31
(PID.TID 0000.0001)                         cg2d_res =    7.18885817695823E-09
(PID.TID 0000.0001) // =======================================================
(PID.TID 0000.0001) // Begin MONITOR dynamic field statistics
(PID.TID 0000.0001) // =======================================================
(PID.TID 0000.0001) %MON time_tsnumber                =                     4
(PID.TID 0000.0001) %MON time_secondsf                =   1.4400000000000E+04
(PID.TID 0000.0001) %MON exf_ustress_max              =   5.2220227003619E-02
(PID.TID 0000.0001) %MON exf_ustress_min              =  -9.3787731677914E-02
(PID.TID 0000.0001) %MON exf_ustress_mean             =   1.8264945786209E-02
(PID.TID 0000.0001) %MON exf_ustress_sd               =   2.3921512376896E-02
(PID.TID 0000.0001) %MON exf_ustress_del2             =   2.8033150654417E-03
(PID.TID 0000.0001) %MON exf_vstress_max              =   5.3827820475974E-02
(PID.TID 0000.0001) %MON exf_vstress_min              =  -5.8789876937276E-02
(PID.TID 0000.0001) %MON exf_vstress_mean             =  -5.4305716892681E-03
(PID.TID 0000.0001) %MON exf_vstress_sd               =   1.4497031191582E-02
(PID.TID 0000.0001) %MON exf_vstress_del2             =   1.7045910452560E-03
(PID.TID 0000.0001) %MON exf_hflux_max                =   6.2489396413927E+02
(PID.TID 0000.0001) %MON exf_hflux_min                =  -4.3012415004622E+01
(PID.TID 0000.0001) %MON exf_hflux_mean               =   1.4861201288727E+02
(PID.TID 0000.0001) %MON exf_hflux_sd                 =   1.7817284466210E+02
(PID.TID 0000.0001) %MON exf_hflux_del2               =   1.6122387544672E+01
(PID.TID 0000.0001) %MON exf_sflux_max                =   3.9023554455794E-08
(PID.TID 0000.0001) %MON exf_sflux_min                =  -8.7429297149534E-08
(PID.TID 0000.0001) %MON exf_sflux_mean               =  -2.5609303912336E-08
(PID.TID 0000.0001) %MON exf_sflux_sd                 =   3.0081718460382E-08
(PID.TID 0000.0001) %MON exf_sflux_del2               =   3.1600384771256E-09
(PID.TID 0000.0001) %MON exf_uwind_max                =   6.4658968995829E+00
(PID.TID 0000.0001) %MON exf_uwind_min                =  -6.8373184184559E+00
(PID.TID 0000.0001) %MON exf_uwind_mean               =   2.7700953906363E+00
(PID.TID 0000.0001) %MON exf_uwind_sd                 =   2.9908682681638E+00
(PID.TID 0000.0001) %MON exf_uwind_del2               =   3.1573366006031E-01
(PID.TID 0000.0001) %MON exf_vwind_max                =   3.9241587548959E+00
(PID.TID 0000.0001) %MON exf_vwind_min                =  -6.0169856587394E+00
(PID.TID 0000.0001) %MON exf_vwind_mean               =  -7.5904536197929E-01
(PID.TID 0000.0001) %MON exf_vwind_sd                 =   1.7296682234552E+00
(PID.TID 0000.0001) %MON exf_vwind_del2               =   1.9331202479855E-01
(PID.TID 0000.0001) %MON exf_atemp_max                =   2.8187767604140E+02
(PID.TID 0000.0001) %MON exf_atemp_min                =   2.3644837420104E+02
(PID.TID 0000.0001) %MON exf_atemp_mean               =   2.6393212558534E+02
(PID.TID 0000.0001) %MON exf_atemp_sd                 =   1.1987800753926E+01
(PID.TID 0000.0001) %MON exf_atemp_del2               =   6.4948075883376E-01
(PID.TID 0000.0001) %MON exf_aqh_max                  =   6.3210833210834E-03
(PID.TID 0000.0001) %MON exf_aqh_min                  =   1.6341043767886E-04
(PID.TID 0000.0001) %MON exf_aqh_mean                 =   2.4786818409748E-03
(PID.TID 0000.0001) %MON exf_aqh_sd                   =   1.4261982746893E-03
(PID.TID 0000.0001) %MON exf_aqh_del2                 =   6.8100777916201E-05
(PID.TID 0000.0001) %MON exf_lwflux_max               =   1.8154317576033E+02
(PID.TID 0000.0001) %MON exf_lwflux_min               =   2.9424445244523E+01
(PID.TID 0000.0001) %MON exf_lwflux_mean              =   7.5962012775596E+01
(PID.TID 0000.0001) %MON exf_lwflux_sd                =   4.2216704922190E+01
(PID.TID 0000.0001) %MON exf_lwflux_del2              =   7.0157462187040E+00
(PID.TID 0000.0001) %MON exf_precip_max               =   1.0499180733557E-07
(PID.TID 0000.0001) %MON exf_precip_min               =   2.7319320752566E-10
(PID.TID 0000.0001) %MON exf_precip_mean              =   3.6390048010982E-08
(PID.TID 0000.0001) %MON exf_precip_sd                =   2.0579501435483E-08
(PID.TID 0000.0001) %MON exf_precip_del2              =   2.5567380653122E-09
(PID.TID 0000.0001) %MON exf_swflux_max               =  -8.1206604105527E-02
(PID.TID 0000.0001) %MON exf_swflux_min               =  -6.4029725065388E+01
(PID.TID 0000.0001) %MON exf_swflux_mean              =  -2.6484819670573E+01
(PID.TID 0000.0001) %MON exf_swflux_sd                =   1.9637409707136E+01
(PID.TID 0000.0001) %MON exf_swflux_del2              =   4.7933338739073E-01
(PID.TID 0000.0001) %MON exf_evap_max                 =   4.5345774147096E-08
(PID.TID 0000.0001) %MON exf_evap_min                 =  -2.6356056755472E-09
(PID.TID 0000.0001) %MON exf_evap_mean                =   1.0780744098645E-08
(PID.TID 0000.0001) %MON exf_evap_sd                  =   1.0823920046724E-08
(PID.TID 0000.0001) %MON exf_evap_del2                =   1.3136809518579E-09
(PID.TID 0000.0001) %MON exf_swdown_max               =   7.1144138961542E+01
(PID.TID 0000.0001) %MON exf_swdown_min               =   9.0229560117253E-02
(PID.TID 0000.0001) %MON exf_swdown_mean              =   2.9427577411748E+01
(PID.TID 0000.0001) %MON exf_swdown_sd                =   2.1819344119040E+01
(PID.TID 0000.0001) %MON exf_swdown_del2              =   5.3259265265636E-01
(PID.TID 0000.0001) %MON exf_lwdown_max               =   3.0565323976611E+02
(PID.TID 0000.0001) %MON exf_lwdown_min               =   1.1595237147222E+02
(PID.TID 0000.0001) %MON exf_lwdown_mean              =   2.2590219497194E+02
(PID.TID 0000.0001) %MON exf_lwdown_sd                =   4.6289340871590E+01
(PID.TID 0000.0001) %MON exf_lwdown_del2              =   3.2438562169101E+00
(PID.TID 0000.0001) %MON exf_apressure_max            =   0.0000000000000E+00
(PID.TID 0000.0001) %MON exf_apressure_min            =   0.0000000000000E+00
(PID.TID 0000.0001) %MON exf_apressure_mean           =   0.0000000000000E+00
(PID.TID 0000.0001) %MON exf_apressure_sd             =   0.0000000000000E+00
(PID.TID 0000.0001) %MON exf_apressure_del2           =   0.0000000000000E+00
(PID.TID 0000.0001) %MON exf_runoff_max               =   0.0000000000000E+00
(PID.TID 0000.0001) %MON exf_runoff_min               =   0.0000000000000E+00
(PID.TID 0000.0001) %MON exf_runoff_mean              =   0.0000000000000E+00
(PID.TID 0000.0001) %MON exf_runoff_sd                =   0.0000000000000E+00
(PID.TID 0000.0001) %MON exf_runoff_del2              =   0.0000000000000E+00
(PID.TID 0000.0001) %MON exf_climsss_max              =   3.5040885127959E+01
(PID.TID 0000.0001) %MON exf_climsss_min              =   3.0668591155380E+01
(PID.TID 0000.0001) %MON exf_climsss_mean             =   3.3460883601427E+01
(PID.TID 0000.0001) %MON exf_climsss_sd               =   1.0317405668875E+00
(PID.TID 0000.0001) %MON exf_climsss_del2             =   1.0014227359021E-01
(PID.TID 0000.0001) %MON seaice_uice_max              =   1.2719713881413E-01
(PID.TID 0000.0001) %MON seaice_uice_min              =  -2.8761013166397E-04
(PID.TID 0000.0001) %MON seaice_uice_mean             =   5.5189605490678E-02
(PID.TID 0000.0001) %MON seaice_uice_sd               =   4.1811114023709E-02
(PID.TID 0000.0001) %MON seaice_uice_del2             =   4.1786373880036E-03
(PID.TID 0000.0001) %MON seaice_vice_max              =   7.8479545566734E-02
(PID.TID 0000.0001) %MON seaice_vice_min              =  -9.8629233375363E-02
(PID.TID 0000.0001) %MON seaice_vice_mean             =  -8.2962022553396E-03
(PID.TID 0000.0001) %MON seaice_vice_sd               =   3.7702074889519E-02
(PID.TID 0000.0001) %MON seaice_vice_del2             =   4.4262416023436E-03
(PID.TID 0000.0001) %MON seaice_area_max              =   1.0000000000000E+00
(PID.TID 0000.0001) %MON seaice_area_min              =   0.0000000000000E+00
(PID.TID 0000.0001) %MON seaice_area_mean             =   6.0333781986725E-01
(PID.TID 0000.0001) %MON seaice_area_sd               =   4.7817869510269E-01
(PID.TID 0000.0001) %MON seaice_area_del2             =   5.5337694973870E-02
(PID.TID 0000.0001) %MON seaice_heff_max              =   5.5880088635915E-01
(PID.TID 0000.0001) %MON seaice_heff_min              =   0.0000000000000E+00
(PID.TID 0000.0001) %MON seaice_heff_mean             =   1.4243612613370E-01
(PID.TID 0000.0001) %MON seaice_heff_sd               =   1.7461655006987E-01
(PID.TID 0000.0001) %MON seaice_heff_del2             =   1.3152062420767E-02
(PID.TID 0000.0001) %MON dynstat_eta_max              =   3.2362523225588E-01
(PID.TID 0000.0001) %MON dynstat_eta_min              =  -1.3571174946401E-01
(PID.TID 0000.0001) %MON dynstat_eta_mean             =   2.1433852970753E-11
(PID.TID 0000.0001) %MON dynstat_eta_sd               =   8.7320907800750E-02
(PID.TID 0000.0001) %MON dynstat_eta_del2             =   6.7043875802201E-03
(PID.TID 0000.0001) %MON dynstat_uvel_max             =   8.4151520086979E-02
(PID.TID 0000.0001) %MON dynstat_uvel_min             =  -5.1680328044527E-02
(PID.TID 0000.0001) %MON dynstat_uvel_mean            =   2.6934842108175E-04
(PID.TID 0000.0001) %MON dynstat_uvel_sd              =   7.5530466648388E-03
(PID.TID 0000.0001) %MON dynstat_uvel_del2            =   2.8867741081665E-03
(PID.TID 0000.0001) %MON dynstat_vvel_max             =   8.7571099306469E-02
(PID.TID 0000.0001) %MON dynstat_vvel_min             =  -8.8657317297063E-02
(PID.TID 0000.0001) %MON dynstat_vvel_mean            =  -6.4102505059101E-04
(PID.TID 0000.0001) %MON dynstat_vvel_sd              =   1.1051121340382E-02
(PID.TID 0000.0001) %MON dynstat_vvel_del2            =   2.1446360101727E-03
(PID.TID 0000.0001) %MON dynstat_wvel_max             =   3.0068767906716E-04
(PID.TID 0000.0001) %MON dynstat_wvel_min             =  -1.6367470197402E-04
(PID.TID 0000.0001) %MON dynstat_wvel_mean            =   1.9524854767740E-21
(PID.TID 0000.0001) %MON dynstat_wvel_sd              =   4.9923554934914E-05
(PID.TID 0000.0001) %MON dynstat_wvel_del2            =   6.7234017818102E-06
(PID.TID 0000.0001) %MON dynstat_theta_max            =   1.3352514757417E+01
(PID.TID 0000.0001) %MON dynstat_theta_min            =  -1.9669225707012E+00
(PID.TID 0000.0001) %MON dynstat_theta_mean           =   3.0752540706502E+00
(PID.TID 0000.0001) %MON dynstat_theta_sd             =   1.4255172576155E+00
(PID.TID 0000.0001) %MON dynstat_theta_del2           =   9.3871098121733E-02
(PID.TID 0000.0001) %MON dynstat_salt_max             =   3.5451210915429E+01
(PID.TID 0000.0001) %MON dynstat_salt_min             =   2.6919920930152E+01
(PID.TID 0000.0001) %MON dynstat_salt_mean            =   3.4740850871523E+01
(PID.TID 0000.0001) %MON dynstat_salt_sd              =   5.5171859298451E-01
(PID.TID 0000.0001) %MON dynstat_salt_del2            =   3.8573095183201E-02
(PID.TID 0000.0001) %MON advcfl_uvel_max              =   2.3750070190092E-03
(PID.TID 0000.0001) %MON advcfl_vvel_max              =   1.4351659374247E-03
(PID.TID 0000.0001) %MON advcfl_wvel_max              =   6.1103393712384E-03
(PID.TID 0000.0001) %MON advcfl_W_hf_max              =   7.9848822933825E-03
(PID.TID 0000.0001) %MON pe_b_mean                    =   2.5136761559100E-05
(PID.TID 0000.0001) %MON ke_max                       =   4.2352307280419E-03
(PID.TID 0000.0001) %MON ke_mean                      =   7.0264944893728E-05
(PID.TID 0000.0001) %MON ke_vol                       =   5.3036189546438E+15
(PID.TID 0000.0001) %MON vort_r_min                   =  -1.3554897969128E-06
(PID.TID 0000.0001) %MON vort_r_max                   =   6.3830801984047E-07
(PID.TID 0000.0001) %MON vort_a_mean                  =   1.2034316025789E-04
(PID.TID 0000.0001) %MON vort_a_sd                    =   8.7877600523810E-06
(PID.TID 0000.0001) %MON vort_p_mean                  =   1.7686400727749E-04
(PID.TID 0000.0001) %MON vort_p_sd                    =   1.1659020871428E-04
(PID.TID 0000.0001) %MON surfExpan_theta_mean         =   2.3807157455804E-06
(PID.TID 0000.0001) %MON surfExpan_salt_mean          =  -1.5559339099900E-07
(PID.TID 0000.0001) // =======================================================
(PID.TID 0000.0001) // End MONITOR dynamic field statistics
(PID.TID 0000.0001) // =======================================================
(PID.TID 0000.0001)  exf_GetFFieldsRec:
(PID.TID 0000.0001)  exf_GetFFieldsRec: first, changed, fac:   F   F   0.49453552E+00
(PID.TID 0000.0001)  exf_GetFFieldsRec: myiter, count0, count1:      4      1      2
(PID.TID 0000.0001)  exf_GetFFieldsRec:
(PID.TID 0000.0001)  exf_GetFFieldsRec:
(PID.TID 0000.0001)  exf_GetFFieldsRec: first, changed, fac:   F   F   0.49453552E+00
(PID.TID 0000.0001)  exf_GetFFieldsRec: myiter, count0, count1:      4      1      2
(PID.TID 0000.0001)  exf_GetFFieldsRec:
(PID.TID 0000.0001)  exf_GetFFieldsRec:
(PID.TID 0000.0001)  exf_GetFFieldsRec: first, changed, fac:   F   F   0.49453552E+00
(PID.TID 0000.0001)  exf_GetFFieldsRec: myiter, count0, count1:      4      1      2
(PID.TID 0000.0001)  exf_GetFFieldsRec:
(PID.TID 0000.0001)  exf_GetFFieldsRec:
(PID.TID 0000.0001)  exf_GetFFieldsRec: first, changed, fac:   F   F   0.49453552E+00
(PID.TID 0000.0001)  exf_GetFFieldsRec: myiter, count0, count1:      4      1      2
(PID.TID 0000.0001)  exf_GetFFieldsRec:
(PID.TID 0000.0001)  exf_GetFFieldsRec:
(PID.TID 0000.0001)  exf_GetFFieldsRec: first, changed, fac:   F   F   0.49453552E+00
(PID.TID 0000.0001)  exf_GetFFieldsRec: myiter, count0, count1:      4      1      2
(PID.TID 0000.0001)  exf_GetFFieldsRec:
(PID.TID 0000.0001)  exf_GetFFieldsRec:
(PID.TID 0000.0001)  exf_GetFFieldsRec: first, changed, fac:   F   F   0.49453552E+00
(PID.TID 0000.0001)  exf_GetFFieldsRec: myiter, count0, count1:      4      1      2
(PID.TID 0000.0001)  exf_GetFFieldsRec:
(PID.TID 0000.0001)  exf_GetFFieldsRec:
(PID.TID 0000.0001)  exf_GetFFieldsRec: first, changed, fac:   F   F   0.49453552E+00
(PID.TID 0000.0001)  exf_GetFFieldsRec: myiter, count0, count1:      4      1      2
(PID.TID 0000.0001)  exf_GetFFieldsRec:
(PID.TID 0000.0001)  exf_GetFFieldsRec:
(PID.TID 0000.0001)  exf_GetFFieldsRec: first, changed, fac:   F   F   0.49453552E+00
(PID.TID 0000.0001)  exf_GetFFieldsRec: myiter, count0, count1:      4      1      2
(PID.TID 0000.0001)  exf_GetFFieldsRec:
 cg2d: Sum(rhs),rhsMax =  -7.82463038806469E-10  1.21193247335995E+00
(PID.TID 0000.0001)                    cg2d_init_res =    1.06908583727961E-01
(PID.TID 0000.0001)                       cg2d_iters =    31
(PID.TID 0000.0001)                         cg2d_res =    8.66132737648722E-09
(PID.TID 0000.0001) // =======================================================
(PID.TID 0000.0001) // Begin MONITOR dynamic field statistics
(PID.TID 0000.0001) // =======================================================
(PID.TID 0000.0001) %MON time_tsnumber                =                     5
(PID.TID 0000.0001) %MON time_secondsf                =   1.8000000000000E+04
(PID.TID 0000.0001) %MON exf_ustress_max              =   5.2222770106090E-02
(PID.TID 0000.0001) %MON exf_ustress_min              =  -9.3791003101176E-02
(PID.TID 0000.0001) %MON exf_ustress_mean             =   1.8274708628797E-02
(PID.TID 0000.0001) %MON exf_ustress_sd               =   2.3929271079279E-02
(PID.TID 0000.0001) %MON exf_ustress_del2             =   2.8043844684148E-03
(PID.TID 0000.0001) %MON exf_vstress_max              =   5.3829901206177E-02
(PID.TID 0000.0001) %MON exf_vstress_min              =  -5.8765768616940E-02
(PID.TID 0000.0001) %MON exf_vstress_mean             =  -5.4264119866196E-03
(PID.TID 0000.0001) %MON exf_vstress_sd               =   1.4498700740412E-02
(PID.TID 0000.0001) %MON exf_vstress_del2             =   1.7044223247752E-03
(PID.TID 0000.0001) %MON exf_hflux_max                =   6.2501399917302E+02
(PID.TID 0000.0001) %MON exf_hflux_min                =  -4.2943930949907E+01
(PID.TID 0000.0001) %MON exf_hflux_mean               =   1.4867730181615E+02
(PID.TID 0000.0001) %MON exf_hflux_sd                 =   1.7816298889624E+02
(PID.TID 0000.0001) %MON exf_hflux_del2               =   1.6114624563746E+01
(PID.TID 0000.0001) %MON exf_sflux_max                =   3.9032191478596E-08
(PID.TID 0000.0001) %MON exf_sflux_min                =  -8.7473086953485E-08
(PID.TID 0000.0001) %MON exf_sflux_mean               =  -2.5601998495568E-08
(PID.TID 0000.0001) %MON exf_sflux_sd                 =   3.0077734328086E-08
(PID.TID 0000.0001) %MON exf_sflux_del2               =   3.1600387564666E-09
(PID.TID 0000.0001) %MON exf_uwind_max                =   6.4664043520318E+00
(PID.TID 0000.0001) %MON exf_uwind_min                =  -6.8373452001582E+00
(PID.TID 0000.0001) %MON exf_uwind_mean               =   2.7702029429808E+00
(PID.TID 0000.0001) %MON exf_uwind_sd                 =   2.9911443548250E+00
(PID.TID 0000.0001) %MON exf_uwind_del2               =   3.1574156428286E-01
(PID.TID 0000.0001) %MON exf_vwind_max                =   3.9241889356915E+00
(PID.TID 0000.0001) %MON exf_vwind_min                =  -6.0160797489145E+00
(PID.TID 0000.0001) %MON exf_vwind_mean               =  -7.5842758888917E-01
(PID.TID 0000.0001) %MON exf_vwind_sd                 =   1.7297766046368E+00
(PID.TID 0000.0001) %MON exf_vwind_del2               =   1.9330515345662E-01
(PID.TID 0000.0001) %MON exf_atemp_max                =   2.8187596388853E+02
(PID.TID 0000.0001) %MON exf_atemp_min                =   2.3644390923339E+02
(PID.TID 0000.0001) %MON exf_atemp_mean               =   2.6392748149999E+02
(PID.TID 0000.0001) %MON exf_atemp_sd                 =   1.1989262748844E+01
(PID.TID 0000.0001) %MON exf_atemp_del2               =   6.4950009177509E-01
(PID.TID 0000.0001) %MON exf_aqh_max                  =   6.3203867802223E-03
(PID.TID 0000.0001) %MON exf_aqh_min                  =   1.6331633418045E-04
(PID.TID 0000.0001) %MON exf_aqh_mean                 =   2.4781214845702E-03
(PID.TID 0000.0001) %MON exf_aqh_sd                   =   1.4260952789855E-03
(PID.TID 0000.0001) %MON exf_aqh_del2                 =   6.8087110355054E-05
(PID.TID 0000.0001) %MON exf_lwflux_max               =   1.8154988176466E+02
(PID.TID 0000.0001) %MON exf_lwflux_min               =   2.9409067111997E+01
(PID.TID 0000.0001) %MON exf_lwflux_mean              =   7.5983633047669E+01
(PID.TID 0000.0001) %MON exf_lwflux_sd                =   4.2209728386079E+01
(PID.TID 0000.0001) %MON exf_lwflux_del2              =   7.0142020291808E+00
(PID.TID 0000.0001) %MON exf_precip_max               =   1.0499318877820E-07
(PID.TID 0000.0001) %MON exf_precip_min               =   2.7305928105298E-10
(PID.TID 0000.0001) %MON exf_precip_mean              =   3.6390037166947E-08
(PID.TID 0000.0001) %MON exf_precip_sd                =   2.0579953834835E-08
(PID.TID 0000.0001) %MON exf_precip_del2              =   2.5572657585019E-09
(PID.TID 0000.0001) %MON exf_swflux_max               =  -8.1206886983309E-02
(PID.TID 0000.0001) %MON exf_swflux_min               =  -6.4048595415960E+01
(PID.TID 0000.0001) %MON exf_swflux_mean              =  -2.6495351886448E+01
(PID.TID 0000.0001) %MON exf_swflux_sd                =   1.9641247100083E+01
(PID.TID 0000.0001) %MON exf_swflux_del2              =   4.7944026133668E-01
(PID.TID 0000.0001) %MON exf_evap_max                 =   4.5353748458968E-08
(PID.TID 0000.0001) %MON exf_evap_min                 =  -2.6198557226384E-09
(PID.TID 0000.0001) %MON exf_evap_mean                =   1.0788038671379E-08
(PID.TID 0000.0001) %MON exf_evap_sd                  =   1.0818210226525E-08
(PID.TID 0000.0001) %MON exf_evap_del2                =   1.3130415928864E-09
(PID.TID 0000.0001) %MON exf_swdown_max               =   7.1165106017733E+01
(PID.TID 0000.0001) %MON exf_swdown_min               =   9.0229874425898E-02
(PID.TID 0000.0001) %MON exf_swdown_mean              =   2.9439279873831E+01
(PID.TID 0000.0001) %MON exf_swdown_sd                =   2.1823607888981E+01
(PID.TID 0000.0001) %MON exf_swdown_del2              =   5.3271140148521E-01
(PID.TID 0000.0001) %MON exf_lwdown_max               =   3.0564441368228E+02
(PID.TID 0000.0001) %MON exf_lwdown_min               =   1.1593726459357E+02
(PID.TID 0000.0001) %MON exf_lwdown_mean              =   2.2588648764287E+02
(PID.TID 0000.0001) %MON exf_lwdown_sd                =   4.6293313753333E+01
(PID.TID 0000.0001) %MON exf_lwdown_del2              =   3.2438678569828E+00
(PID.TID 0000.0001) %MON exf_apressure_max            =   0.0000000000000E+00
(PID.TID 0000.0001) %MON exf_apressure_min            =   0.0000000000000E+00
(PID.TID 0000.0001) %MON exf_apressure_mean           =   0.0000000000000E+00
(PID.TID 0000.0001) %MON exf_apressure_sd             =   0.0000000000000E+00
(PID.TID 0000.0001) %MON exf_apressure_del2           =   0.0000000000000E+00
(PID.TID 0000.0001) %MON exf_runoff_max               =   0.0000000000000E+00
(PID.TID 0000.0001) %MON exf_runoff_min               =   0.0000000000000E+00
(PID.TID 0000.0001) %MON exf_runoff_mean              =   0.0000000000000E+00
(PID.TID 0000.0001) %MON exf_runoff_sd                =   0.0000000000000E+00
(PID.TID 0000.0001) %MON exf_runoff_del2              =   0.0000000000000E+00
(PID.TID 0000.0001) %MON exf_climsss_max              =   3.5041069874998E+01
(PID.TID 0000.0001) %MON exf_climsss_min              =   3.0669350483378E+01
(PID.TID 0000.0001) %MON exf_climsss_mean             =   3.3461404934907E+01
(PID.TID 0000.0001) %MON exf_climsss_sd               =   1.0316695849659E+00
(PID.TID 0000.0001) %MON exf_climsss_del2             =   1.0012504429982E-01
(PID.TID 0000.0001) %MON seaice_uice_max              =   1.3582461672080E-01
(PID.TID 0000.0001) %MON seaice_uice_min              =  -2.8631818078268E-04
(PID.TID 0000.0001) %MON seaice_uice_mean             =   5.9383608260763E-02
(PID.TID 0000.0001) %MON seaice_uice_sd               =   4.3989200594166E-02
(PID.TID 0000.0001) %MON seaice_uice_del2             =   4.4846400951356E-03
(PID.TID 0000.0001) %MON seaice_vice_max              =   9.0004768533557E-02
(PID.TID 0000.0001) %MON seaice_vice_min              =  -1.0755453375469E-01
(PID.TID 0000.0001) %MON seaice_vice_mean             =  -9.5210296256730E-03
(PID.TID 0000.0001) %MON seaice_vice_sd               =   4.3397634938124E-02
(PID.TID 0000.0001) %MON seaice_vice_del2             =   4.8457244615711E-03
(PID.TID 0000.0001) %MON seaice_area_max              =   1.0000000000000E+00
(PID.TID 0000.0001) %MON seaice_area_min              =   0.0000000000000E+00
(PID.TID 0000.0001) %MON seaice_area_mean             =   6.0079472271025E-01
(PID.TID 0000.0001) %MON seaice_area_sd               =   4.8004728549226E-01
(PID.TID 0000.0001) %MON seaice_area_del2             =   5.5862579227176E-02
(PID.TID 0000.0001) %MON seaice_heff_max              =   5.5857017318057E-01
(PID.TID 0000.0001) %MON seaice_heff_min              =   0.0000000000000E+00
(PID.TID 0000.0001) %MON seaice_heff_mean             =   1.4248973407170E-01
(PID.TID 0000.0001) %MON seaice_heff_sd               =   1.7462910209612E-01
(PID.TID 0000.0001) %MON seaice_heff_del2             =   1.3161324416831E-02
(PID.TID 0000.0001) %MON dynstat_eta_max              =   3.2822104107607E-01
(PID.TID 0000.0001) %MON dynstat_eta_min              =  -1.3031564810444E-01
(PID.TID 0000.0001) %MON dynstat_eta_mean             =   3.1179701076874E-11
(PID.TID 0000.0001) %MON dynstat_eta_sd               =   8.4041358923311E-02
(PID.TID 0000.0001) %MON dynstat_eta_del2             =   6.6110253652594E-03
(PID.TID 0000.0001) %MON dynstat_uvel_max             =   1.0226263677751E-01
(PID.TID 0000.0001) %MON dynstat_uvel_min             =  -4.3360626726702E-02
(PID.TID 0000.0001) %MON dynstat_uvel_mean            =   5.4400491396929E-04
(PID.TID 0000.0001) %MON dynstat_uvel_sd              =   8.5809371147070E-03
(PID.TID 0000.0001) %MON dynstat_uvel_del2            =   3.0052294495188E-03
(PID.TID 0000.0001) %MON dynstat_vvel_max             =   9.1915027861447E-02
(PID.TID 0000.0001) %MON dynstat_vvel_min             =  -1.0312038328254E-01
(PID.TID 0000.0001) %MON dynstat_vvel_mean            =  -4.2907823130119E-04
(PID.TID 0000.0001) %MON dynstat_vvel_sd              =   1.1625970416905E-02
(PID.TID 0000.0001) %MON dynstat_vvel_del2            =   2.2878673923842E-03
(PID.TID 0000.0001) %MON dynstat_wvel_max             =   3.5500917677164E-04
(PID.TID 0000.0001) %MON dynstat_wvel_min             =  -2.2782546658734E-04
(PID.TID 0000.0001) %MON dynstat_wvel_mean            =  -4.2015510259693E-22
(PID.TID 0000.0001) %MON dynstat_wvel_sd              =   5.7950995189560E-05
(PID.TID 0000.0001) %MON dynstat_wvel_del2            =   6.3238722885681E-06
(PID.TID 0000.0001) %MON dynstat_theta_max            =   1.3348002283921E+01
(PID.TID 0000.0001) %MON dynstat_theta_min            =  -1.9676814522007E+00
(PID.TID 0000.0001) %MON dynstat_theta_mean           =   3.0752452186829E+00
(PID.TID 0000.0001) %MON dynstat_theta_sd             =   1.4254558672150E+00
(PID.TID 0000.0001) %MON dynstat_theta_del2           =   9.3847413398074E-02
(PID.TID 0000.0001) %MON dynstat_salt_max             =   3.5451360264632E+01
(PID.TID 0000.0001) %MON dynstat_salt_min             =   2.6922652280657E+01
(PID.TID 0000.0001) %MON dynstat_salt_mean            =   3.4740857396990E+01
(PID.TID 0000.0001) %MON dynstat_salt_sd              =   5.5161183908011E-01
(PID.TID 0000.0001) %MON dynstat_salt_del2            =   3.8564440818906E-02
(PID.TID 0000.0001) %MON advcfl_uvel_max              =   2.5232576704681E-03
(PID.TID 0000.0001) %MON advcfl_vvel_max              =   1.6692909965389E-03
(PID.TID 0000.0001) %MON advcfl_wvel_max              =   6.8105546915645E-03
(PID.TID 0000.0001) %MON advcfl_W_hf_max              =   9.2538986815180E-03
(PID.TID 0000.0001) %MON pe_b_mean                    =   2.3284074160573E-05
(PID.TID 0000.0001) %MON ke_max                       =   5.5053991592379E-03
(PID.TID 0000.0001) %MON ke_mean                      =   8.1888365221609E-05
(PID.TID 0000.0001) %MON ke_vol                       =   5.3036189546438E+15
(PID.TID 0000.0001) %MON vort_r_min                   =  -1.3108762515932E-06
(PID.TID 0000.0001) %MON vort_r_max                   =   6.6143017284776E-07
(PID.TID 0000.0001) %MON vort_a_mean                  =   1.2034315754397E-04
(PID.TID 0000.0001) %MON vort_a_sd                    =   8.7880784548838E-06
(PID.TID 0000.0001) %MON vort_p_mean                  =   1.7686400328893E-04
(PID.TID 0000.0001) %MON vort_p_sd                    =   1.1658394911669E-04
(PID.TID 0000.0001) %MON surfExpan_theta_mean         =   1.8027399497723E-06
(PID.TID 0000.0001) %MON surfExpan_salt_mean          =   6.6238487364413E-07
(PID.TID 0000.0001) // =======================================================
(PID.TID 0000.0001) // End MONITOR dynamic field statistics
(PID.TID 0000.0001) // =======================================================
(PID.TID 0000.0001)  exf_GetFFieldsRec:
(PID.TID 0000.0001)  exf_GetFFieldsRec: first, changed, fac:   F   F   0.49316940E+00
(PID.TID 0000.0001)  exf_GetFFieldsRec: myiter, count0, count1:      5      1      2
(PID.TID 0000.0001)  exf_GetFFieldsRec:
(PID.TID 0000.0001)  exf_GetFFieldsRec:
(PID.TID 0000.0001)  exf_GetFFieldsRec: first, changed, fac:   F   F   0.49316940E+00
(PID.TID 0000.0001)  exf_GetFFieldsRec: myiter, count0, count1:      5      1      2
(PID.TID 0000.0001)  exf_GetFFieldsRec:
(PID.TID 0000.0001)  exf_GetFFieldsRec:
(PID.TID 0000.0001)  exf_GetFFieldsRec: first, changed, fac:   F   F   0.49316940E+00
(PID.TID 0000.0001)  exf_GetFFieldsRec: myiter, count0, count1:      5      1      2
(PID.TID 0000.0001)  exf_GetFFieldsRec:
(PID.TID 0000.0001)  exf_GetFFieldsRec:
(PID.TID 0000.0001)  exf_GetFFieldsRec: first, changed, fac:   F   F   0.49316940E+00
(PID.TID 0000.0001)  exf_GetFFieldsRec: myiter, count0, count1:      5      1      2
(PID.TID 0000.0001)  exf_GetFFieldsRec:
(PID.TID 0000.0001)  exf_GetFFieldsRec:
(PID.TID 0000.0001)  exf_GetFFieldsRec: first, changed, fac:   F   F   0.49316940E+00
(PID.TID 0000.0001)  exf_GetFFieldsRec: myiter, count0, count1:      5      1      2
(PID.TID 0000.0001)  exf_GetFFieldsRec:
(PID.TID 0000.0001)  exf_GetFFieldsRec:
(PID.TID 0000.0001)  exf_GetFFieldsRec: first, changed, fac:   F   F   0.49316940E+00
(PID.TID 0000.0001)  exf_GetFFieldsRec: myiter, count0, count1:      5      1      2
(PID.TID 0000.0001)  exf_GetFFieldsRec:
(PID.TID 0000.0001)  exf_GetFFieldsRec:
(PID.TID 0000.0001)  exf_GetFFieldsRec: first, changed, fac:   F   F   0.49316940E+00
(PID.TID 0000.0001)  exf_GetFFieldsRec: myiter, count0, count1:      5      1      2
(PID.TID 0000.0001)  exf_GetFFieldsRec:
(PID.TID 0000.0001)  exf_GetFFieldsRec:
(PID.TID 0000.0001)  exf_GetFFieldsRec: first, changed, fac:   F   F   0.49316940E+00
(PID.TID 0000.0001)  exf_GetFFieldsRec: myiter, count0, count1:      5      1      2
(PID.TID 0000.0001)  exf_GetFFieldsRec:
 cg2d: Sum(rhs),rhsMax =  -1.14321385691341E-09  1.20666477141025E+00
(PID.TID 0000.0001)                    cg2d_init_res =    8.42317555671387E-02
(PID.TID 0000.0001)                       cg2d_iters =    31
(PID.TID 0000.0001)                         cg2d_res =    7.64401261722207E-09
(PID.TID 0000.0001) // =======================================================
(PID.TID 0000.0001) // Begin MONITOR dynamic field statistics
(PID.TID 0000.0001) // =======================================================
(PID.TID 0000.0001) %MON time_tsnumber                =                     6
(PID.TID 0000.0001) %MON time_secondsf                =   2.1600000000000E+04
(PID.TID 0000.0001) %MON exf_ustress_max              =   5.2230695135307E-02
(PID.TID 0000.0001) %MON exf_ustress_min              =  -9.3793044782401E-02
(PID.TID 0000.0001) %MON exf_ustress_mean             =   1.8283657309642E-02
(PID.TID 0000.0001) %MON exf_ustress_sd               =   2.3935313700013E-02
(PID.TID 0000.0001) %MON exf_ustress_del2             =   2.8053751000521E-03
(PID.TID 0000.0001) %MON exf_vstress_max              =   5.3831276154801E-02
(PID.TID 0000.0001) %MON exf_vstress_min              =  -5.8748326249063E-02
(PID.TID 0000.0001) %MON exf_vstress_mean             =  -5.4233368098456E-03
(PID.TID 0000.0001) %MON exf_vstress_sd               =   1.4500608976844E-02
(PID.TID 0000.0001) %MON exf_vstress_del2             =   1.7044885639665E-03
(PID.TID 0000.0001) %MON exf_hflux_max                =   6.2505598582182E+02
(PID.TID 0000.0001) %MON exf_hflux_min                =  -4.2846395715280E+01
(PID.TID 0000.0001) %MON exf_hflux_mean               =   1.4875301758722E+02
(PID.TID 0000.0001) %MON exf_hflux_sd                 =   1.7816214498364E+02
(PID.TID 0000.0001) %MON exf_hflux_del2               =   1.6113413075084E+01
(PID.TID 0000.0001) %MON exf_sflux_max                =   3.9030876362808E-08
(PID.TID 0000.0001) %MON exf_sflux_min                =  -8.7482989501236E-08
(PID.TID 0000.0001) %MON exf_sflux_mean               =  -2.5593912018959E-08
(PID.TID 0000.0001) %MON exf_sflux_sd                 =   3.0074253301105E-08
(PID.TID 0000.0001) %MON exf_sflux_del2               =   3.1602370639619E-09
(PID.TID 0000.0001) %MON exf_uwind_max                =   6.4669118044806E+00
(PID.TID 0000.0001) %MON exf_uwind_min                =  -6.8373719818605E+00
(PID.TID 0000.0001) %MON exf_uwind_mean               =   2.7703104953251E+00
(PID.TID 0000.0001) %MON exf_uwind_sd                 =   2.9914204817202E+00
(PID.TID 0000.0001) %MON exf_uwind_del2               =   3.1574946850541E-01
(PID.TID 0000.0001) %MON exf_vwind_max                =   3.9242191164871E+00
(PID.TID 0000.0001) %MON exf_vwind_min                =  -6.0151738390896E+00
(PID.TID 0000.0001) %MON exf_vwind_mean               =  -7.5780981579906E-01
(PID.TID 0000.0001) %MON exf_vwind_sd                 =   1.7298850990135E+00
(PID.TID 0000.0001) %MON exf_vwind_del2               =   1.9329828211469E-01
(PID.TID 0000.0001) %MON exf_atemp_max                =   2.8187425173567E+02
(PID.TID 0000.0001) %MON exf_atemp_min                =   2.3643944426573E+02
(PID.TID 0000.0001) %MON exf_atemp_mean               =   2.6392283741463E+02
(PID.TID 0000.0001) %MON exf_atemp_sd                 =   1.1990725231039E+01
(PID.TID 0000.0001) %MON exf_atemp_del2               =   6.4951942471641E-01
(PID.TID 0000.0001) %MON exf_aqh_max                  =   6.3196902393613E-03
(PID.TID 0000.0001) %MON exf_aqh_min                  =   1.6322223068205E-04
(PID.TID 0000.0001) %MON exf_aqh_mean                 =   2.4775611281656E-03
(PID.TID 0000.0001) %MON exf_aqh_sd                   =   1.4259923191659E-03
(PID.TID 0000.0001) %MON exf_aqh_del2                 =   6.8073442793907E-05
(PID.TID 0000.0001) %MON exf_lwflux_max               =   1.8156154621069E+02
(PID.TID 0000.0001) %MON exf_lwflux_min               =   2.9378622079837E+01
(PID.TID 0000.0001) %MON exf_lwflux_mean              =   7.6007956342831E+01
(PID.TID 0000.0001) %MON exf_lwflux_sd                =   4.2204662267072E+01
(PID.TID 0000.0001) %MON exf_lwflux_del2              =   7.0145900426540E+00
(PID.TID 0000.0001) %MON exf_precip_max               =   1.0499457022082E-07
(PID.TID 0000.0001) %MON exf_precip_min               =   2.7292535458031E-10
(PID.TID 0000.0001) %MON exf_precip_mean              =   3.6390026322913E-08
(PID.TID 0000.0001) %MON exf_precip_sd                =   2.0580406889746E-08
(PID.TID 0000.0001) %MON exf_precip_del2              =   2.5577934516916E-09
(PID.TID 0000.0001) %MON exf_swflux_max               =  -8.1207169861090E-02
(PID.TID 0000.0001) %MON exf_swflux_min               =  -6.4067465766532E+01
(PID.TID 0000.0001) %MON exf_swflux_mean              =  -2.6505884102323E+01
(PID.TID 0000.0001) %MON exf_swflux_sd                =   1.9645085084315E+01
(PID.TID 0000.0001) %MON exf_swflux_del2              =   4.7954713528264E-01
(PID.TID 0000.0001) %MON exf_evap_max                 =   4.5351770632249E-08
(PID.TID 0000.0001) %MON exf_evap_min                 =  -2.5984798081261E-09
(PID.TID 0000.0001) %MON exf_evap_mean                =   1.0796114303954E-08
(PID.TID 0000.0001) %MON exf_evap_sd                  =   1.0814063238180E-08
(PID.TID 0000.0001) %MON exf_evap_del2                =   1.3131016085973E-09
(PID.TID 0000.0001) %MON exf_swdown_max               =   7.1186073073924E+01
(PID.TID 0000.0001) %MON exf_swdown_min               =   9.0230188734544E-02
(PID.TID 0000.0001) %MON exf_swdown_mean              =   2.9450982335914E+01
(PID.TID 0000.0001) %MON exf_swdown_sd                =   2.1827872315905E+01
(PID.TID 0000.0001) %MON exf_swdown_del2              =   5.3283015031405E-01
(PID.TID 0000.0001) %MON exf_lwdown_max               =   3.0563558759846E+02
(PID.TID 0000.0001) %MON exf_lwdown_min               =   1.1592215771493E+02
(PID.TID 0000.0001) %MON exf_lwdown_mean              =   2.2587078031381E+02
(PID.TID 0000.0001) %MON exf_lwdown_sd                =   4.6297287802066E+01
(PID.TID 0000.0001) %MON exf_lwdown_del2              =   3.2438794970556E+00
(PID.TID 0000.0001) %MON exf_apressure_max            =   0.0000000000000E+00
(PID.TID 0000.0001) %MON exf_apressure_min            =   0.0000000000000E+00
(PID.TID 0000.0001) %MON exf_apressure_mean           =   0.0000000000000E+00
(PID.TID 0000.0001) %MON exf_apressure_sd             =   0.0000000000000E+00
(PID.TID 0000.0001) %MON exf_apressure_del2           =   0.0000000000000E+00
(PID.TID 0000.0001) %MON exf_runoff_max               =   0.0000000000000E+00
(PID.TID 0000.0001) %MON exf_runoff_min               =   0.0000000000000E+00
(PID.TID 0000.0001) %MON exf_runoff_mean              =   0.0000000000000E+00
(PID.TID 0000.0001) %MON exf_runoff_sd                =   0.0000000000000E+00
(PID.TID 0000.0001) %MON exf_runoff_del2              =   0.0000000000000E+00
(PID.TID 0000.0001) %MON exf_climsss_max              =   3.5041254622037E+01
(PID.TID 0000.0001) %MON exf_climsss_min              =   3.0670109811376E+01
(PID.TID 0000.0001) %MON exf_climsss_mean             =   3.3461926268386E+01
(PID.TID 0000.0001) %MON exf_climsss_sd               =   1.0315988331065E+00
(PID.TID 0000.0001) %MON exf_climsss_del2             =   1.0010781500943E-01
(PID.TID 0000.0001) %MON seaice_uice_max              =   1.4155852309420E-01
(PID.TID 0000.0001) %MON seaice_uice_min              =  -2.8828257281373E-04
(PID.TID 0000.0001) %MON seaice_uice_mean             =   6.2411592746792E-02
(PID.TID 0000.0001) %MON seaice_uice_sd               =   4.6177564105866E-02
(PID.TID 0000.0001) %MON seaice_uice_del2             =   4.6383115234371E-03
(PID.TID 0000.0001) %MON seaice_vice_max              =   9.4241004265156E-02
(PID.TID 0000.0001) %MON seaice_vice_min              =  -1.1079321344363E-01
(PID.TID 0000.0001) %MON seaice_vice_mean             =  -1.1157526913670E-02
(PID.TID 0000.0001) %MON seaice_vice_sd               =   4.6853378583520E-02
(PID.TID 0000.0001) %MON seaice_vice_del2             =   5.1065513254550E-03
(PID.TID 0000.0001) %MON seaice_area_max              =   1.0000000000000E+00
(PID.TID 0000.0001) %MON seaice_area_min              =   0.0000000000000E+00
(PID.TID 0000.0001) %MON seaice_area_mean             =   5.9895936871274E-01
(PID.TID 0000.0001) %MON seaice_area_sd               =   4.8127425527237E-01
(PID.TID 0000.0001) %MON seaice_area_del2             =   5.6421732894771E-02
(PID.TID 0000.0001) %MON seaice_heff_max              =   5.5852784900697E-01
(PID.TID 0000.0001) %MON seaice_heff_min              =   0.0000000000000E+00
(PID.TID 0000.0001) %MON seaice_heff_mean             =   1.4252984833509E-01
(PID.TID 0000.0001) %MON seaice_heff_sd               =   1.7471824590611E-01
(PID.TID 0000.0001) %MON seaice_heff_del2             =   1.3170258000699E-02
(PID.TID 0000.0001) %MON dynstat_eta_max              =   3.3054624782554E-01
(PID.TID 0000.0001) %MON dynstat_eta_min              =  -1.2402988696861E-01
(PID.TID 0000.0001) %MON dynstat_eta_mean             =   1.3818568596879E-11
(PID.TID 0000.0001) %MON dynstat_eta_sd               =   7.9518226195073E-02
(PID.TID 0000.0001) %MON dynstat_eta_del2             =   6.6746923337200E-03
(PID.TID 0000.0001) %MON dynstat_uvel_max             =   1.1283878491427E-01
(PID.TID 0000.0001) %MON dynstat_uvel_min             =  -5.2318015994662E-02
(PID.TID 0000.0001) %MON dynstat_uvel_mean            =   5.7393113496729E-04
(PID.TID 0000.0001) %MON dynstat_uvel_sd              =   9.4874693604015E-03
(PID.TID 0000.0001) %MON dynstat_uvel_del2            =   2.9710719489517E-03
(PID.TID 0000.0001) %MON dynstat_vvel_max             =   8.5519353474346E-02
(PID.TID 0000.0001) %MON dynstat_vvel_min             =  -1.1198597996919E-01
(PID.TID 0000.0001) %MON dynstat_vvel_mean            =  -2.9367061313541E-04
(PID.TID 0000.0001) %MON dynstat_vvel_sd              =   1.1341662085571E-02
(PID.TID 0000.0001) %MON dynstat_vvel_del2            =   2.4649892110558E-03
(PID.TID 0000.0001) %MON dynstat_wvel_max             =   3.8735564971676E-04
(PID.TID 0000.0001) %MON dynstat_wvel_min             =  -2.8099387296436E-04
(PID.TID 0000.0001) %MON dynstat_wvel_mean            =  -4.6649573891277E-22
(PID.TID 0000.0001) %MON dynstat_wvel_sd              =   6.3721666381781E-05
(PID.TID 0000.0001) %MON dynstat_wvel_del2            =   5.5117160123923E-06
(PID.TID 0000.0001) %MON dynstat_theta_max            =   1.3343031462152E+01
(PID.TID 0000.0001) %MON dynstat_theta_min            =  -1.9656429833195E+00
(PID.TID 0000.0001) %MON dynstat_theta_mean           =   3.0752363820570E+00
(PID.TID 0000.0001) %MON dynstat_theta_sd             =   1.4253946147967E+00
(PID.TID 0000.0001) %MON dynstat_theta_del2           =   9.3833001782582E-02
(PID.TID 0000.0001) %MON dynstat_salt_max             =   3.5451442117868E+01
(PID.TID 0000.0001) %MON dynstat_salt_min             =   2.6925280817139E+01
(PID.TID 0000.0001) %MON dynstat_salt_mean            =   3.4740862552850E+01
(PID.TID 0000.0001) %MON dynstat_salt_sd              =   5.5151222552304E-01
(PID.TID 0000.0001) %MON dynstat_salt_del2            =   3.8558869519106E-02
(PID.TID 0000.0001) %MON advcfl_uvel_max              =   2.7842165871461E-03
(PID.TID 0000.0001) %MON advcfl_vvel_max              =   1.8128054042329E-03
(PID.TID 0000.0001) %MON advcfl_wvel_max              =   7.3048867424709E-03
(PID.TID 0000.0001) %MON advcfl_W_hf_max              =   9.9573885521417E-03
(PID.TID 0000.0001) %MON pe_b_mean                    =   2.0845206844002E-05
(PID.TID 0000.0001) %MON ke_max                       =   6.4675470368438E-03
(PID.TID 0000.0001) %MON ke_mean                      =   8.5788092378935E-05
(PID.TID 0000.0001) %MON ke_vol                       =   5.3036189546438E+15
(PID.TID 0000.0001) %MON vort_r_min                   =  -1.0847557208079E-06
(PID.TID 0000.0001) %MON vort_r_max                   =   5.9429902689331E-07
(PID.TID 0000.0001) %MON vort_a_mean                  =   1.2034315561820E-04
(PID.TID 0000.0001) %MON vort_a_sd                    =   8.7881573085879E-06
(PID.TID 0000.0001) %MON vort_p_mean                  =   1.7686400045870E-04
(PID.TID 0000.0001) %MON vort_p_sd                    =   1.1657784174932E-04
(PID.TID 0000.0001) %MON surfExpan_theta_mean         =   1.1842148873710E-06
(PID.TID 0000.0001) %MON surfExpan_salt_mean          =   9.2351902491536E-07
(PID.TID 0000.0001) // =======================================================
(PID.TID 0000.0001) // End MONITOR dynamic field statistics
(PID.TID 0000.0001) // =======================================================
 Computing Diagnostic # 104  EXFtaux      Counter:       1   Parms: SU      U1      
 Computing Diagnostic # 105  EXFtauy      Counter:       1   Parms: SV      U1      
 Computing Diagnostic # 103  EXFqnet      Counter:       1   Parms: SM      U1      
 Computing Diagnostic # 112  EXFempmr     Counter:       1   Parms: SM      U1      
 Computing Diagnostic #  98  EXFhl        Counter:       1   Parms: SM      U1      
 Computing Diagnostic #  97  EXFhs        Counter:       1   Parms: SM      U1      
 Computing Diagnostic # 100  EXFswnet     Counter:       1   Parms: SM      U1      
 Computing Diagnostic #  99  EXFlwnet     Counter:       1   Parms: SM      U1      
 Computing Diagnostic # 106  EXFuwind     Counter:       1   Parms: SM      U1      
 Computing Diagnostic # 107  EXFvwind     Counter:       1   Parms: SM      U1      
 Computing Diagnostic # 108  EXFatemp     Counter:       1   Parms: SM      U1      
(PID.TID 0000.0001)  exf_GetFFieldsRec:
(PID.TID 0000.0001)  exf_GetFFieldsRec: first, changed, fac:   F   F   0.49180328E+00
(PID.TID 0000.0001)  exf_GetFFieldsRec: myiter, count0, count1:      6      1      2
(PID.TID 0000.0001)  exf_GetFFieldsRec:
(PID.TID 0000.0001)  exf_GetFFieldsRec:
(PID.TID 0000.0001)  exf_GetFFieldsRec: first, changed, fac:   F   F   0.49180328E+00
(PID.TID 0000.0001)  exf_GetFFieldsRec: myiter, count0, count1:      6      1      2
(PID.TID 0000.0001)  exf_GetFFieldsRec:
(PID.TID 0000.0001)  exf_GetFFieldsRec:
(PID.TID 0000.0001)  exf_GetFFieldsRec: first, changed, fac:   F   F   0.49180328E+00
(PID.TID 0000.0001)  exf_GetFFieldsRec: myiter, count0, count1:      6      1      2
(PID.TID 0000.0001)  exf_GetFFieldsRec:
(PID.TID 0000.0001)  exf_GetFFieldsRec:
(PID.TID 0000.0001)  exf_GetFFieldsRec: first, changed, fac:   F   F   0.49180328E+00
(PID.TID 0000.0001)  exf_GetFFieldsRec: myiter, count0, count1:      6      1      2
(PID.TID 0000.0001)  exf_GetFFieldsRec:
(PID.TID 0000.0001)  exf_GetFFieldsRec:
(PID.TID 0000.0001)  exf_GetFFieldsRec: first, changed, fac:   F   F   0.49180328E+00
(PID.TID 0000.0001)  exf_GetFFieldsRec: myiter, count0, count1:      6      1      2
(PID.TID 0000.0001)  exf_GetFFieldsRec:
(PID.TID 0000.0001)  exf_GetFFieldsRec:
(PID.TID 0000.0001)  exf_GetFFieldsRec: first, changed, fac:   F   F   0.49180328E+00
(PID.TID 0000.0001)  exf_GetFFieldsRec: myiter, count0, count1:      6      1      2
(PID.TID 0000.0001)  exf_GetFFieldsRec:
(PID.TID 0000.0001)  exf_GetFFieldsRec:
(PID.TID 0000.0001)  exf_GetFFieldsRec: first, changed, fac:   F   F   0.49180328E+00
(PID.TID 0000.0001)  exf_GetFFieldsRec: myiter, count0, count1:      6      1      2
(PID.TID 0000.0001)  exf_GetFFieldsRec:
(PID.TID 0000.0001)  exf_GetFFieldsRec:
(PID.TID 0000.0001)  exf_GetFFieldsRec: first, changed, fac:   F   F   0.49180328E+00
(PID.TID 0000.0001)  exf_GetFFieldsRec: myiter, count0, count1:      6      1      2
(PID.TID 0000.0001)  exf_GetFFieldsRec:
 cg2d: Sum(rhs),rhsMax =  -5.09695674555388E-10  1.19948602772947E+00
(PID.TID 0000.0001)                    cg2d_init_res =    7.11612188687605E-02
(PID.TID 0000.0001)                       cg2d_iters =    31
(PID.TID 0000.0001)                         cg2d_res =    7.63668903495627E-09
(PID.TID 0000.0001) // =======================================================
(PID.TID 0000.0001) // Begin MONITOR dynamic field statistics
(PID.TID 0000.0001) // =======================================================
(PID.TID 0000.0001) %MON time_tsnumber                =                     7
(PID.TID 0000.0001) %MON time_secondsf                =   2.5200000000000E+04
(PID.TID 0000.0001) %MON exf_ustress_max              =   5.2237727856346E-02
(PID.TID 0000.0001) %MON exf_ustress_min              =  -9.3794545102386E-02
(PID.TID 0000.0001) %MON exf_ustress_mean             =   1.8291594634549E-02
(PID.TID 0000.0001) %MON exf_ustress_sd               =   2.3941030882695E-02
(PID.TID 0000.0001) %MON exf_ustress_del2             =   2.8060991132395E-03
(PID.TID 0000.0001) %MON exf_vstress_max              =   5.3832340402390E-02
(PID.TID 0000.0001) %MON exf_vstress_min              =  -5.8740053178267E-02
(PID.TID 0000.0001) %MON exf_vstress_mean             =  -5.4204840864728E-03
(PID.TID 0000.0001) %MON exf_vstress_sd               =   1.4502640047647E-02
(PID.TID 0000.0001) %MON exf_vstress_del2             =   1.7046435154973E-03
(PID.TID 0000.0001) %MON exf_hflux_max                =   6.2506361080416E+02
(PID.TID 0000.0001) %MON exf_hflux_min                =  -4.2758266884722E+01
(PID.TID 0000.0001) %MON exf_hflux_mean               =   1.4883204910388E+02
(PID.TID 0000.0001) %MON exf_hflux_sd                 =   1.7817031976947E+02
(PID.TID 0000.0001) %MON exf_hflux_del2               =   1.6118335426711E+01
(PID.TID 0000.0001) %MON exf_sflux_max                =   3.9025180361492E-08
(PID.TID 0000.0001) %MON exf_sflux_min                =  -8.7446281012339E-08
(PID.TID 0000.0001) %MON exf_sflux_mean               =  -2.5585620221687E-08
(PID.TID 0000.0001) %MON exf_sflux_sd                 =   3.0071148067477E-08
(PID.TID 0000.0001) %MON exf_sflux_del2               =   3.1608986208001E-09
(PID.TID 0000.0001) %MON exf_uwind_max                =   6.4674192569295E+00
(PID.TID 0000.0001) %MON exf_uwind_min                =  -6.8373987635628E+00
(PID.TID 0000.0001) %MON exf_uwind_mean               =   2.7704180476695E+00
(PID.TID 0000.0001) %MON exf_uwind_sd                 =   2.9916966488382E+00
(PID.TID 0000.0001) %MON exf_uwind_del2               =   3.1575737272796E-01
(PID.TID 0000.0001) %MON exf_vwind_max                =   3.9242492972827E+00
(PID.TID 0000.0001) %MON exf_vwind_min                =  -6.0142679292648E+00
(PID.TID 0000.0001) %MON exf_vwind_mean               =  -7.5719204270894E-01
(PID.TID 0000.0001) %MON exf_vwind_sd                 =   1.7299937065642E+00
(PID.TID 0000.0001) %MON exf_vwind_del2               =   1.9329141077275E-01
(PID.TID 0000.0001) %MON exf_atemp_max                =   2.8187253958280E+02
(PID.TID 0000.0001) %MON exf_atemp_min                =   2.3643497929808E+02
(PID.TID 0000.0001) %MON exf_atemp_mean               =   2.6391819332927E+02
(PID.TID 0000.0001) %MON exf_atemp_sd                 =   1.1992188200331E+01
(PID.TID 0000.0001) %MON exf_atemp_del2               =   6.4953875765774E-01
(PID.TID 0000.0001) %MON exf_aqh_max                  =   6.3189936985002E-03
(PID.TID 0000.0001) %MON exf_aqh_min                  =   1.6312812718364E-04
(PID.TID 0000.0001) %MON exf_aqh_mean                 =   2.4770007717611E-03
(PID.TID 0000.0001) %MON exf_aqh_sd                   =   1.4258893952382E-03
(PID.TID 0000.0001) %MON exf_aqh_del2                 =   6.8059775232760E-05
(PID.TID 0000.0001) %MON exf_lwflux_max               =   1.8157334064231E+02
(PID.TID 0000.0001) %MON exf_lwflux_min               =   2.9362926976665E+01
(PID.TID 0000.0001) %MON exf_lwflux_mean              =   7.6032152319713E+01
(PID.TID 0000.0001) %MON exf_lwflux_sd                =   4.2202181821147E+01
(PID.TID 0000.0001) %MON exf_lwflux_del2              =   7.0162644033412E+00
(PID.TID 0000.0001) %MON exf_precip_max               =   1.0499595166344E-07
(PID.TID 0000.0001) %MON exf_precip_min               =   2.7279142810763E-10
(PID.TID 0000.0001) %MON exf_precip_mean              =   3.6390015478879E-08
(PID.TID 0000.0001) %MON exf_precip_sd                =   2.0580860600171E-08
(PID.TID 0000.0001) %MON exf_precip_del2              =   2.5583211448813E-09
(PID.TID 0000.0001) %MON exf_swflux_max               =  -8.1207452738871E-02
(PID.TID 0000.0001) %MON exf_swflux_min               =  -6.4086336117103E+01
(PID.TID 0000.0001) %MON exf_swflux_mean              =  -2.6516416318198E+01
(PID.TID 0000.0001) %MON exf_swflux_sd                =   1.9648923659484E+01
(PID.TID 0000.0001) %MON exf_swflux_del2              =   4.7965400922860E-01
(PID.TID 0000.0001) %MON exf_evap_max                 =   4.5345411920002E-08
(PID.TID 0000.0001) %MON exf_evap_min                 =  -2.5789191411445E-09
(PID.TID 0000.0001) %MON exf_evap_mean                =   1.0804395257192E-08
(PID.TID 0000.0001) %MON exf_evap_sd                  =   1.0811341517399E-08
(PID.TID 0000.0001) %MON exf_evap_del2                =   1.3136700735040E-09
(PID.TID 0000.0001) %MON exf_swdown_max               =   7.1207040130115E+01
(PID.TID 0000.0001) %MON exf_swdown_min               =   9.0230503043190E-02
(PID.TID 0000.0001) %MON exf_swdown_mean              =   2.9462684797997E+01
(PID.TID 0000.0001) %MON exf_swdown_sd                =   2.1832137399427E+01
(PID.TID 0000.0001) %MON exf_swdown_del2              =   5.3294889914289E-01
(PID.TID 0000.0001) %MON exf_lwdown_max               =   3.0562676151463E+02
(PID.TID 0000.0001) %MON exf_lwdown_min               =   1.1590705083628E+02
(PID.TID 0000.0001) %MON exf_lwdown_mean              =   2.2585507298474E+02
(PID.TID 0000.0001) %MON exf_lwdown_sd                =   4.6301263017486E+01
(PID.TID 0000.0001) %MON exf_lwdown_del2              =   3.2438911371283E+00
(PID.TID 0000.0001) %MON exf_apressure_max            =   0.0000000000000E+00
(PID.TID 0000.0001) %MON exf_apressure_min            =   0.0000000000000E+00
(PID.TID 0000.0001) %MON exf_apressure_mean           =   0.0000000000000E+00
(PID.TID 0000.0001) %MON exf_apressure_sd             =   0.0000000000000E+00
(PID.TID 0000.0001) %MON exf_apressure_del2           =   0.0000000000000E+00
(PID.TID 0000.0001) %MON exf_runoff_max               =   0.0000000000000E+00
(PID.TID 0000.0001) %MON exf_runoff_min               =   0.0000000000000E+00
(PID.TID 0000.0001) %MON exf_runoff_mean              =   0.0000000000000E+00
(PID.TID 0000.0001) %MON exf_runoff_sd                =   0.0000000000000E+00
(PID.TID 0000.0001) %MON exf_runoff_del2              =   0.0000000000000E+00
(PID.TID 0000.0001) %MON exf_climsss_max              =   3.5041439369077E+01
(PID.TID 0000.0001) %MON exf_climsss_min              =   3.0670869139374E+01
(PID.TID 0000.0001) %MON exf_climsss_mean             =   3.3462447601866E+01
(PID.TID 0000.0001) %MON exf_climsss_sd               =   1.0315283113566E+00
(PID.TID 0000.0001) %MON exf_climsss_del2             =   1.0009058571904E-01
(PID.TID 0000.0001) %MON seaice_uice_max              =   1.4405722821638E-01
(PID.TID 0000.0001) %MON seaice_uice_min              =  -2.9627375920929E-04
(PID.TID 0000.0001) %MON seaice_uice_mean             =   6.4212991696868E-02
(PID.TID 0000.0001) %MON seaice_uice_sd               =   4.8022476110419E-02
(PID.TID 0000.0001) %MON seaice_uice_del2             =   4.6609117096641E-03
(PID.TID 0000.0001) %MON seaice_vice_max              =   9.1160249477759E-02
(PID.TID 0000.0001) %MON seaice_vice_min              =  -1.1305651234946E-01
(PID.TID 0000.0001) %MON seaice_vice_mean             =  -1.3410524862211E-02
(PID.TID 0000.0001) %MON seaice_vice_sd               =   4.8289650077490E-02
(PID.TID 0000.0001) %MON seaice_vice_del2             =   5.1990380169972E-03
(PID.TID 0000.0001) %MON seaice_area_max              =   1.0000000000000E+00
(PID.TID 0000.0001) %MON seaice_area_min              =   0.0000000000000E+00
(PID.TID 0000.0001) %MON seaice_area_mean             =   5.9753394822721E-01
(PID.TID 0000.0001) %MON seaice_area_sd               =   4.8216005002218E-01
(PID.TID 0000.0001) %MON seaice_area_del2             =   5.6836644138488E-02
(PID.TID 0000.0001) %MON seaice_heff_max              =   5.5882248042329E-01
(PID.TID 0000.0001) %MON seaice_heff_min              =   0.0000000000000E+00
(PID.TID 0000.0001) %MON seaice_heff_mean             =   1.4252854342413E-01
(PID.TID 0000.0001) %MON seaice_heff_sd               =   1.7485409758374E-01
(PID.TID 0000.0001) %MON seaice_heff_del2             =   1.3177863259404E-02
(PID.TID 0000.0001) %MON dynstat_eta_max              =   3.2919451826287E-01
(PID.TID 0000.0001) %MON dynstat_eta_min              =  -1.1636753014176E-01
(PID.TID 0000.0001) %MON dynstat_eta_mean             =   7.1327722899563E-11
(PID.TID 0000.0001) %MON dynstat_eta_sd               =   7.4923674769910E-02
(PID.TID 0000.0001) %MON dynstat_eta_del2             =   6.8520969253982E-03
(PID.TID 0000.0001) %MON dynstat_uvel_max             =   1.1430966005849E-01
(PID.TID 0000.0001) %MON dynstat_uvel_min             =  -6.8510395062480E-02
(PID.TID 0000.0001) %MON dynstat_uvel_mean            =   4.3977960975200E-04
(PID.TID 0000.0001) %MON dynstat_uvel_sd              =   1.0175713692597E-02
(PID.TID 0000.0001) %MON dynstat_uvel_del2            =   2.8731174986737E-03
(PID.TID 0000.0001) %MON dynstat_vvel_max             =   7.9463227078360E-02
(PID.TID 0000.0001) %MON dynstat_vvel_min             =  -1.1642655438341E-01
(PID.TID 0000.0001) %MON dynstat_vvel_mean            =  -1.4733564710341E-04
(PID.TID 0000.0001) %MON dynstat_vvel_sd              =   1.0360131988946E-02
(PID.TID 0000.0001) %MON dynstat_vvel_del2            =   2.6007327799534E-03
(PID.TID 0000.0001) %MON dynstat_wvel_max             =   3.9252268556607E-04
(PID.TID 0000.0001) %MON dynstat_wvel_min             =  -3.1576394814342E-04
(PID.TID 0000.0001) %MON dynstat_wvel_mean            =   7.6616518708852E-22
(PID.TID 0000.0001) %MON dynstat_wvel_sd              =   6.6616580734796E-05
(PID.TID 0000.0001) %MON dynstat_wvel_del2            =   5.2790269036656E-06
(PID.TID 0000.0001) %MON dynstat_theta_max            =   1.3336029625040E+01
(PID.TID 0000.0001) %MON dynstat_theta_min            =  -1.9627282333546E+00
(PID.TID 0000.0001) %MON dynstat_theta_mean           =   3.0752270164038E+00
(PID.TID 0000.0001) %MON dynstat_theta_sd             =   1.4253368735070E+00
(PID.TID 0000.0001) %MON dynstat_theta_del2           =   9.3821983509011E-02
(PID.TID 0000.0001) %MON dynstat_salt_max             =   3.5451431507185E+01
(PID.TID 0000.0001) %MON dynstat_salt_min             =   2.6927853028434E+01
(PID.TID 0000.0001) %MON dynstat_salt_mean            =   3.4740867005120E+01
(PID.TID 0000.0001) %MON dynstat_salt_sd              =   5.5141614180149E-01
(PID.TID 0000.0001) %MON dynstat_salt_del2            =   3.8558666174240E-02
(PID.TID 0000.0001) %MON advcfl_uvel_max              =   2.8205093829012E-03
(PID.TID 0000.0001) %MON advcfl_vvel_max              =   1.8846884854741E-03
(PID.TID 0000.0001) %MON advcfl_wvel_max              =   8.3484768423580E-03
(PID.TID 0000.0001) %MON advcfl_W_hf_max              =   9.8943088760664E-03
(PID.TID 0000.0001) %MON pe_b_mean                    =   1.8505932828182E-05
(PID.TID 0000.0001) %MON ke_max                       =   6.7931740068539E-03
(PID.TID 0000.0001) %MON ke_mean                      =   8.2758687515075E-05
(PID.TID 0000.0001) %MON ke_vol                       =   5.3036189546438E+15
(PID.TID 0000.0001) %MON vort_r_min                   =  -7.6859825757961E-07
(PID.TID 0000.0001) %MON vort_r_max                   =   4.5826971244237E-07
(PID.TID 0000.0001) %MON vort_a_mean                  =   1.2034315487692E-04
(PID.TID 0000.0001) %MON vort_a_sd                    =   8.7880641536149E-06
(PID.TID 0000.0001) %MON vort_p_mean                  =   1.7686399936927E-04
(PID.TID 0000.0001) %MON vort_p_sd                    =   1.1657310135491E-04
(PID.TID 0000.0001) %MON surfExpan_theta_mean         =   3.4714935642671E-07
(PID.TID 0000.0001) %MON surfExpan_salt_mean          =   8.3832213257195E-07
(PID.TID 0000.0001) // =======================================================
(PID.TID 0000.0001) // End MONITOR dynamic field statistics
(PID.TID 0000.0001) // =======================================================
(PID.TID 0000.0001)  exf_GetFFieldsRec:
(PID.TID 0000.0001)  exf_GetFFieldsRec: first, changed, fac:   F   F   0.49043716E+00
(PID.TID 0000.0001)  exf_GetFFieldsRec: myiter, count0, count1:      7      1      2
(PID.TID 0000.0001)  exf_GetFFieldsRec:
(PID.TID 0000.0001)  exf_GetFFieldsRec:
(PID.TID 0000.0001)  exf_GetFFieldsRec: first, changed, fac:   F   F   0.49043716E+00
(PID.TID 0000.0001)  exf_GetFFieldsRec: myiter, count0, count1:      7      1      2
(PID.TID 0000.0001)  exf_GetFFieldsRec:
(PID.TID 0000.0001)  exf_GetFFieldsRec:
(PID.TID 0000.0001)  exf_GetFFieldsRec: first, changed, fac:   F   F   0.49043716E+00
(PID.TID 0000.0001)  exf_GetFFieldsRec: myiter, count0, count1:      7      1      2
(PID.TID 0000.0001)  exf_GetFFieldsRec:
(PID.TID 0000.0001)  exf_GetFFieldsRec:
(PID.TID 0000.0001)  exf_GetFFieldsRec: first, changed, fac:   F   F   0.49043716E+00
(PID.TID 0000.0001)  exf_GetFFieldsRec: myiter, count0, count1:      7      1      2
(PID.TID 0000.0001)  exf_GetFFieldsRec:
(PID.TID 0000.0001)  exf_GetFFieldsRec:
(PID.TID 0000.0001)  exf_GetFFieldsRec: first, changed, fac:   F   F   0.49043716E+00
(PID.TID 0000.0001)  exf_GetFFieldsRec: myiter, count0, count1:      7      1      2
(PID.TID 0000.0001)  exf_GetFFieldsRec:
(PID.TID 0000.0001)  exf_GetFFieldsRec:
(PID.TID 0000.0001)  exf_GetFFieldsRec: first, changed, fac:   F   F   0.49043716E+00
(PID.TID 0000.0001)  exf_GetFFieldsRec: myiter, count0, count1:      7      1      2
(PID.TID 0000.0001)  exf_GetFFieldsRec:
(PID.TID 0000.0001)  exf_GetFFieldsRec:
(PID.TID 0000.0001)  exf_GetFFieldsRec: first, changed, fac:   F   F   0.49043716E+00
(PID.TID 0000.0001)  exf_GetFFieldsRec: myiter, count0, count1:      7      1      2
(PID.TID 0000.0001)  exf_GetFFieldsRec:
(PID.TID 0000.0001)  exf_GetFFieldsRec:
(PID.TID 0000.0001)  exf_GetFFieldsRec: first, changed, fac:   F   F   0.49043716E+00
(PID.TID 0000.0001)  exf_GetFFieldsRec: myiter, count0, count1:      7      1      2
(PID.TID 0000.0001)  exf_GetFFieldsRec:
 cg2d: Sum(rhs),rhsMax =  -2.65401034482693E-09  1.18904531724736E+00
(PID.TID 0000.0001)                    cg2d_init_res =    6.35379654661295E-02
(PID.TID 0000.0001)                       cg2d_iters =    31
(PID.TID 0000.0001)                         cg2d_res =    8.17108119953712E-09
(PID.TID 0000.0001) // =======================================================
(PID.TID 0000.0001) // Begin MONITOR dynamic field statistics
(PID.TID 0000.0001) // =======================================================
(PID.TID 0000.0001) %MON time_tsnumber                =                     8
(PID.TID 0000.0001) %MON time_secondsf                =   2.8800000000000E+04
(PID.TID 0000.0001) %MON exf_ustress_max              =   5.2243791086374E-02
(PID.TID 0000.0001) %MON exf_ustress_min              =  -9.3796175570286E-02
(PID.TID 0000.0001) %MON exf_ustress_mean             =   1.8298667842326E-02
(PID.TID 0000.0001) %MON exf_ustress_sd               =   2.3946674769669E-02
(PID.TID 0000.0001) %MON exf_ustress_del2             =   2.8066722228081E-03
(PID.TID 0000.0001) %MON exf_vstress_max              =   5.3833479352123E-02
(PID.TID 0000.0001) %MON exf_vstress_min              =  -5.8736829665949E-02
(PID.TID 0000.0001) %MON exf_vstress_mean             =  -5.4175040705230E-03
(PID.TID 0000.0001) %MON exf_vstress_sd               =   1.4504638099534E-02
(PID.TID 0000.0001) %MON exf_vstress_del2             =   1.7048590884110E-03
(PID.TID 0000.0001) %MON exf_hflux_max                =   6.2507949949410E+02
(PID.TID 0000.0001) %MON exf_hflux_min                =  -4.2708650526810E+01
(PID.TID 0000.0001) %MON exf_hflux_mean               =   1.4890941799647E+02
(PID.TID 0000.0001) %MON exf_hflux_sd                 =   1.7818699044210E+02
(PID.TID 0000.0001) %MON exf_hflux_del2               =   1.6125768588498E+01
(PID.TID 0000.0001) %MON exf_sflux_max                =   3.9020538583827E-08
(PID.TID 0000.0001) %MON exf_sflux_min                =  -8.7383733600050E-08
(PID.TID 0000.0001) %MON exf_sflux_mean               =  -2.5577655249189E-08
(PID.TID 0000.0001) %MON exf_sflux_sd                 =   3.0068894664470E-08
(PID.TID 0000.0001) %MON exf_sflux_del2               =   3.1617841815578E-09
(PID.TID 0000.0001) %MON exf_uwind_max                =   6.4679267093784E+00
(PID.TID 0000.0001) %MON exf_uwind_min                =  -6.8374255452651E+00
(PID.TID 0000.0001) %MON exf_uwind_mean               =   2.7705256000140E+00
(PID.TID 0000.0001) %MON exf_uwind_sd                 =   2.9919728561678E+00
(PID.TID 0000.0001) %MON exf_uwind_del2               =   3.1576527695052E-01
(PID.TID 0000.0001) %MON exf_vwind_max                =   3.9242794780783E+00
(PID.TID 0000.0001) %MON exf_vwind_min                =  -6.0133620194399E+00
(PID.TID 0000.0001) %MON exf_vwind_mean               =  -7.5657426961883E-01
(PID.TID 0000.0001) %MON exf_vwind_sd                 =   1.7301024272674E+00
(PID.TID 0000.0001) %MON exf_vwind_del2               =   1.9328456693798E-01
(PID.TID 0000.0001) %MON exf_atemp_max                =   2.8187082742993E+02
(PID.TID 0000.0001) %MON exf_atemp_min                =   2.3643051433042E+02
(PID.TID 0000.0001) %MON exf_atemp_mean               =   2.6391354924392E+02
(PID.TID 0000.0001) %MON exf_atemp_sd                 =   1.1993651656543E+01
(PID.TID 0000.0001) %MON exf_atemp_del2               =   6.4955809059907E-01
(PID.TID 0000.0001) %MON exf_aqh_max                  =   6.3182971576392E-03
(PID.TID 0000.0001) %MON exf_aqh_min                  =   1.6303402368524E-04
(PID.TID 0000.0001) %MON exf_aqh_mean                 =   2.4764404153565E-03
(PID.TID 0000.0001) %MON exf_aqh_sd                   =   1.4257865072101E-03
(PID.TID 0000.0001) %MON exf_aqh_del2                 =   6.8046107671613E-05
(PID.TID 0000.0001) %MON exf_lwflux_max               =   1.8158773111517E+02
(PID.TID 0000.0001) %MON exf_lwflux_min               =   2.9352808554992E+01
(PID.TID 0000.0001) %MON exf_lwflux_mean              =   7.6054898312101E+01
(PID.TID 0000.0001) %MON exf_lwflux_sd                =   4.2202230119440E+01
(PID.TID 0000.0001) %MON exf_lwflux_del2              =   7.0184054660895E+00
(PID.TID 0000.0001) %MON exf_precip_max               =   1.0499733310606E-07
(PID.TID 0000.0001) %MON exf_precip_min               =   2.7265750163496E-10
(PID.TID 0000.0001) %MON exf_precip_mean              =   3.6390004634845E-08
(PID.TID 0000.0001) %MON exf_precip_sd                =   2.0581314966068E-08
(PID.TID 0000.0001) %MON exf_precip_del2              =   2.5588488380710E-09
(PID.TID 0000.0001) %MON exf_swflux_max               =  -8.1207735616653E-02
(PID.TID 0000.0001) %MON exf_swflux_min               =  -6.4105206467675E+01
(PID.TID 0000.0001) %MON exf_swflux_mean              =  -2.6526948534072E+01
(PID.TID 0000.0001) %MON exf_swflux_sd                =   1.9652762825246E+01
(PID.TID 0000.0001) %MON exf_swflux_del2              =   4.7976088317456E-01
(PID.TID 0000.0001) %MON exf_evap_max                 =   4.5340107431407E-08
(PID.TID 0000.0001) %MON exf_evap_min                 =  -2.5668114882494E-09
(PID.TID 0000.0001) %MON exf_evap_mean                =   1.0812349385656E-08
(PID.TID 0000.0001) %MON exf_evap_sd                  =   1.0809893300293E-08
(PID.TID 0000.0001) %MON exf_evap_del2                =   1.3144571608200E-09
(PID.TID 0000.0001) %MON exf_swdown_max               =   7.1228007186306E+01
(PID.TID 0000.0001) %MON exf_swdown_min               =   9.0230817351836E-02
(PID.TID 0000.0001) %MON exf_swdown_mean              =   2.9474387260081E+01
(PID.TID 0000.0001) %MON exf_swdown_sd                =   2.1836403139162E+01
(PID.TID 0000.0001) %MON exf_swdown_del2              =   5.3306764797174E-01
(PID.TID 0000.0001) %MON exf_lwdown_max               =   3.0561793543081E+02
(PID.TID 0000.0001) %MON exf_lwdown_min               =   1.1589194395764E+02
(PID.TID 0000.0001) %MON exf_lwdown_mean              =   2.2583936565568E+02
(PID.TID 0000.0001) %MON exf_lwdown_sd                =   4.6305239399294E+01
(PID.TID 0000.0001) %MON exf_lwdown_del2              =   3.2439027772011E+00
(PID.TID 0000.0001) %MON exf_apressure_max            =   0.0000000000000E+00
(PID.TID 0000.0001) %MON exf_apressure_min            =   0.0000000000000E+00
(PID.TID 0000.0001) %MON exf_apressure_mean           =   0.0000000000000E+00
(PID.TID 0000.0001) %MON exf_apressure_sd             =   0.0000000000000E+00
(PID.TID 0000.0001) %MON exf_apressure_del2           =   0.0000000000000E+00
(PID.TID 0000.0001) %MON exf_runoff_max               =   0.0000000000000E+00
(PID.TID 0000.0001) %MON exf_runoff_min               =   0.0000000000000E+00
(PID.TID 0000.0001) %MON exf_runoff_mean              =   0.0000000000000E+00
(PID.TID 0000.0001) %MON exf_runoff_sd                =   0.0000000000000E+00
(PID.TID 0000.0001) %MON exf_runoff_del2              =   0.0000000000000E+00
(PID.TID 0000.0001) %MON exf_climsss_max              =   3.5041624116116E+01
(PID.TID 0000.0001) %MON exf_climsss_min              =   3.0671628467372E+01
(PID.TID 0000.0001) %MON exf_climsss_mean             =   3.3462968935345E+01
(PID.TID 0000.0001) %MON exf_climsss_sd               =   1.0314580197633E+00
(PID.TID 0000.0001) %MON exf_climsss_del2             =   1.0007335642865E-01
(PID.TID 0000.0001) %MON seaice_uice_max              =   1.5567486447392E-01
(PID.TID 0000.0001) %MON seaice_uice_min              =  -3.1008088464753E-04
(PID.TID 0000.0001) %MON seaice_uice_mean             =   6.4759240072873E-02
(PID.TID 0000.0001) %MON seaice_uice_sd               =   4.9226487004843E-02
(PID.TID 0000.0001) %MON seaice_uice_del2             =   4.5525746370133E-03
(PID.TID 0000.0001) %MON seaice_vice_max              =   8.1749909051591E-02
(PID.TID 0000.0001) %MON seaice_vice_min              =  -1.1441647266617E-01
(PID.TID 0000.0001) %MON seaice_vice_mean             =  -1.5875784896741E-02
(PID.TID 0000.0001) %MON seaice_vice_sd               =   4.7743890572328E-02
(PID.TID 0000.0001) %MON seaice_vice_del2             =   5.1885551608603E-03
(PID.TID 0000.0001) %MON seaice_area_max              =   1.0000000000000E+00
(PID.TID 0000.0001) %MON seaice_area_min              =   0.0000000000000E+00
(PID.TID 0000.0001) %MON seaice_area_mean             =   5.9637498737699E-01
(PID.TID 0000.0001) %MON seaice_area_sd               =   4.8284214115391E-01
(PID.TID 0000.0001) %MON seaice_area_del2             =   5.7154737174317E-02
(PID.TID 0000.0001) %MON seaice_heff_max              =   5.5941797341612E-01
(PID.TID 0000.0001) %MON seaice_heff_min              =   0.0000000000000E+00
(PID.TID 0000.0001) %MON seaice_heff_mean             =   1.4247685070705E-01
(PID.TID 0000.0001) %MON seaice_heff_sd               =   1.7499773039109E-01
(PID.TID 0000.0001) %MON seaice_heff_del2             =   1.3177179336830E-02
(PID.TID 0000.0001) %MON dynstat_eta_max              =   3.2300972081282E-01
(PID.TID 0000.0001) %MON dynstat_eta_min              =  -1.0870883600446E-01
(PID.TID 0000.0001) %MON dynstat_eta_mean             =   1.1556789437031E-10
(PID.TID 0000.0001) %MON dynstat_eta_sd               =   7.0618560865204E-02
(PID.TID 0000.0001) %MON dynstat_eta_del2             =   7.0316670423220E-03
(PID.TID 0000.0001) %MON dynstat_uvel_max             =   1.0654332171117E-01
(PID.TID 0000.0001) %MON dynstat_uvel_min             =  -7.6478796695231E-02
(PID.TID 0000.0001) %MON dynstat_uvel_mean            =   2.3283305943703E-04
(PID.TID 0000.0001) %MON dynstat_uvel_sd              =   1.0481214802655E-02
(PID.TID 0000.0001) %MON dynstat_uvel_del2            =   2.6872935536566E-03
(PID.TID 0000.0001) %MON dynstat_vvel_max             =   6.7452858768787E-02
(PID.TID 0000.0001) %MON dynstat_vvel_min             =  -1.1641413019592E-01
(PID.TID 0000.0001) %MON dynstat_vvel_mean            =   3.7707735591339E-05
(PID.TID 0000.0001) %MON dynstat_vvel_sd              =   8.9732408561365E-03
(PID.TID 0000.0001) %MON dynstat_vvel_del2            =   2.6657468648428E-03
(PID.TID 0000.0001) %MON dynstat_wvel_max             =   3.7114010441475E-04
(PID.TID 0000.0001) %MON dynstat_wvel_min             =  -3.2694039337528E-04
(PID.TID 0000.0001) %MON dynstat_wvel_mean            =  -3.4601008449159E-22
(PID.TID 0000.0001) %MON dynstat_wvel_sd              =   6.6428633860725E-05
(PID.TID 0000.0001) %MON dynstat_wvel_del2            =   5.7819657490133E-06
(PID.TID 0000.0001) %MON dynstat_theta_max            =   1.3326140875791E+01
(PID.TID 0000.0001) %MON dynstat_theta_min            =  -1.9635974380793E+00
(PID.TID 0000.0001) %MON dynstat_theta_mean           =   3.0752174881175E+00
(PID.TID 0000.0001) %MON dynstat_theta_sd             =   1.4252832378733E+00
(PID.TID 0000.0001) %MON dynstat_theta_del2           =   9.3812566460563E-02
(PID.TID 0000.0001) %MON dynstat_salt_max             =   3.5451318119379E+01
(PID.TID 0000.0001) %MON dynstat_salt_min             =   2.6930411068624E+01
(PID.TID 0000.0001) %MON dynstat_salt_mean            =   3.4740871087680E+01
(PID.TID 0000.0001) %MON dynstat_salt_sd              =   5.5132277564611E-01
(PID.TID 0000.0001) %MON dynstat_salt_del2            =   3.8566649749937E-02
(PID.TID 0000.0001) %MON advcfl_uvel_max              =   3.1138850116297E-03
(PID.TID 0000.0001) %MON advcfl_vvel_max              =   1.8844873653497E-03
(PID.TID 0000.0001) %MON advcfl_wvel_max              =   8.0368250296449E-03
(PID.TID 0000.0001) %MON advcfl_W_hf_max              =   1.0528107467020E-02
(PID.TID 0000.0001) %MON pe_b_mean                    =   1.6440331378693E-05
(PID.TID 0000.0001) %MON ke_max                       =   6.4919285113185E-03
(PID.TID 0000.0001) %MON ke_mean                      =   7.4747357389244E-05
(PID.TID 0000.0001) %MON ke_vol                       =   5.3036189546438E+15
(PID.TID 0000.0001) %MON vort_r_min                   =  -6.5952868087072E-07
(PID.TID 0000.0001) %MON vort_r_max                   =   3.5976012880840E-07
(PID.TID 0000.0001) %MON vort_a_mean                  =   1.2034315541340E-04
(PID.TID 0000.0001) %MON vort_a_sd                    =   8.7878835394141E-06
(PID.TID 0000.0001) %MON vort_p_mean                  =   1.7686400015771E-04
(PID.TID 0000.0001) %MON vort_p_sd                    =   1.1657061423883E-04
(PID.TID 0000.0001) %MON surfExpan_theta_mean         =  -5.9259044574772E-07
(PID.TID 0000.0001) %MON surfExpan_salt_mean          =   6.1372987308202E-07
(PID.TID 0000.0001) // =======================================================
(PID.TID 0000.0001) // End MONITOR dynamic field statistics
(PID.TID 0000.0001) // =======================================================
(PID.TID 0000.0001)  exf_GetFFieldsRec:
(PID.TID 0000.0001)  exf_GetFFieldsRec: first, changed, fac:   F   F   0.48907104E+00
(PID.TID 0000.0001)  exf_GetFFieldsRec: myiter, count0, count1:      8      1      2
(PID.TID 0000.0001)  exf_GetFFieldsRec:
(PID.TID 0000.0001)  exf_GetFFieldsRec:
(PID.TID 0000.0001)  exf_GetFFieldsRec: first, changed, fac:   F   F   0.48907104E+00
(PID.TID 0000.0001)  exf_GetFFieldsRec: myiter, count0, count1:      8      1      2
(PID.TID 0000.0001)  exf_GetFFieldsRec:
(PID.TID 0000.0001)  exf_GetFFieldsRec:
(PID.TID 0000.0001)  exf_GetFFieldsRec: first, changed, fac:   F   F   0.48907104E+00
(PID.TID 0000.0001)  exf_GetFFieldsRec: myiter, count0, count1:      8      1      2
(PID.TID 0000.0001)  exf_GetFFieldsRec:
(PID.TID 0000.0001)  exf_GetFFieldsRec:
(PID.TID 0000.0001)  exf_GetFFieldsRec: first, changed, fac:   F   F   0.48907104E+00
(PID.TID 0000.0001)  exf_GetFFieldsRec: myiter, count0, count1:      8      1      2
(PID.TID 0000.0001)  exf_GetFFieldsRec:
(PID.TID 0000.0001)  exf_GetFFieldsRec:
(PID.TID 0000.0001)  exf_GetFFieldsRec: first, changed, fac:   F   F   0.48907104E+00
(PID.TID 0000.0001)  exf_GetFFieldsRec: myiter, count0, count1:      8      1      2
(PID.TID 0000.0001)  exf_GetFFieldsRec:
(PID.TID 0000.0001)  exf_GetFFieldsRec:
(PID.TID 0000.0001)  exf_GetFFieldsRec: first, changed, fac:   F   F   0.48907104E+00
(PID.TID 0000.0001)  exf_GetFFieldsRec: myiter, count0, count1:      8      1      2
(PID.TID 0000.0001)  exf_GetFFieldsRec:
(PID.TID 0000.0001)  exf_GetFFieldsRec:
(PID.TID 0000.0001)  exf_GetFFieldsRec: first, changed, fac:   F   F   0.48907104E+00
(PID.TID 0000.0001)  exf_GetFFieldsRec: myiter, count0, count1:      8      1      2
(PID.TID 0000.0001)  exf_GetFFieldsRec:
(PID.TID 0000.0001)  exf_GetFFieldsRec:
(PID.TID 0000.0001)  exf_GetFFieldsRec: first, changed, fac:   F   F   0.48907104E+00
(PID.TID 0000.0001)  exf_GetFFieldsRec: myiter, count0, count1:      8      1      2
(PID.TID 0000.0001)  exf_GetFFieldsRec:
 cg2d: Sum(rhs),rhsMax =  -4.35141006560613E-09  1.17503195413201E+00
(PID.TID 0000.0001)                    cg2d_init_res =    5.89961603082337E-02
(PID.TID 0000.0001)                       cg2d_iters =    31
(PID.TID 0000.0001)                         cg2d_res =    5.20956596639703E-09
(PID.TID 0000.0001) // =======================================================
(PID.TID 0000.0001) // Begin MONITOR dynamic field statistics
(PID.TID 0000.0001) // =======================================================
(PID.TID 0000.0001) %MON time_tsnumber                =                     9
(PID.TID 0000.0001) %MON time_secondsf                =   3.2400000000000E+04
(PID.TID 0000.0001) %MON exf_ustress_max              =   5.2249134120204E-02
(PID.TID 0000.0001) %MON exf_ustress_min              =  -9.3798227167372E-02
(PID.TID 0000.0001) %MON exf_ustress_mean             =   1.8305081289430E-02
(PID.TID 0000.0001) %MON exf_ustress_sd               =   2.3952070095808E-02
(PID.TID 0000.0001) %MON exf_ustress_del2             =   2.8072012491287E-03
(PID.TID 0000.0001) %MON exf_vstress_max              =   5.3834860011584E-02
(PID.TID 0000.0001) %MON exf_vstress_min              =  -5.8732335588712E-02
(PID.TID 0000.0001) %MON exf_vstress_mean             =  -5.4143932993796E-03
(PID.TID 0000.0001) %MON exf_vstress_sd               =   1.4506432730127E-02
(PID.TID 0000.0001) %MON exf_vstress_del2             =   1.7050735972628E-03
(PID.TID 0000.0001) %MON exf_hflux_max                =   6.2512212207660E+02
(PID.TID 0000.0001) %MON exf_hflux_min                =  -4.2713714116295E+01
(PID.TID 0000.0001) %MON exf_hflux_mean               =   1.4898101546989E+02
(PID.TID 0000.0001) %MON exf_hflux_sd                 =   1.7821005319307E+02
(PID.TID 0000.0001) %MON exf_hflux_del2               =   1.6133120509657E+01
(PID.TID 0000.0001) %MON exf_sflux_max                =   3.9019305210997E-08
(PID.TID 0000.0001) %MON exf_sflux_min                =  -8.7327492741534E-08
(PID.TID 0000.0001) %MON exf_sflux_mean               =  -2.5570516763905E-08
(PID.TID 0000.0001) %MON exf_sflux_sd                 =   3.0067826673462E-08
(PID.TID 0000.0001) %MON exf_sflux_del2               =   3.1626861297964E-09
(PID.TID 0000.0001) %MON exf_uwind_max                =   6.4684341618272E+00
(PID.TID 0000.0001) %MON exf_uwind_min                =  -6.8374523269674E+00
(PID.TID 0000.0001) %MON exf_uwind_mean               =   2.7706331523584E+00
(PID.TID 0000.0001) %MON exf_uwind_sd                 =   2.9922491036980E+00
(PID.TID 0000.0001) %MON exf_uwind_del2               =   3.1577589455021E-01
(PID.TID 0000.0001) %MON exf_vwind_max                =   3.9243096588739E+00
(PID.TID 0000.0001) %MON exf_vwind_min                =  -6.0124561096150E+00
(PID.TID 0000.0001) %MON exf_vwind_mean               =  -7.5595649652871E-01
(PID.TID 0000.0001) %MON exf_vwind_sd                 =   1.7302112611018E+00
(PID.TID 0000.0001) %MON exf_vwind_del2               =   1.9327792057372E-01
(PID.TID 0000.0001) %MON exf_atemp_max                =   2.8186911527707E+02
(PID.TID 0000.0001) %MON exf_atemp_min                =   2.3642604936277E+02
(PID.TID 0000.0001) %MON exf_atemp_mean               =   2.6390890515856E+02
(PID.TID 0000.0001) %MON exf_atemp_sd                 =   1.1995115599497E+01
(PID.TID 0000.0001) %MON exf_atemp_del2               =   6.4957742354040E-01
(PID.TID 0000.0001) %MON exf_aqh_max                  =   6.3176006167781E-03
(PID.TID 0000.0001) %MON exf_aqh_min                  =   1.6293992018683E-04
(PID.TID 0000.0001) %MON exf_aqh_mean                 =   2.4758800589519E-03
(PID.TID 0000.0001) %MON exf_aqh_sd                   =   1.4256836550895E-03
(PID.TID 0000.0001) %MON exf_aqh_del2                 =   6.8032440110466E-05
(PID.TID 0000.0001) %MON exf_lwflux_max               =   1.8160266211978E+02
(PID.TID 0000.0001) %MON exf_lwflux_min               =   2.9337662484710E+01
(PID.TID 0000.0001) %MON exf_lwflux_mean              =   7.6075683167184E+01
(PID.TID 0000.0001) %MON exf_lwflux_sd                =   4.2204185532801E+01
(PID.TID 0000.0001) %MON exf_lwflux_del2              =   7.0205047078364E+00
(PID.TID 0000.0001) %MON exf_precip_max               =   1.0499871454869E-07
(PID.TID 0000.0001) %MON exf_precip_min               =   2.7252357516229E-10
(PID.TID 0000.0001) %MON exf_precip_mean              =   3.6389993790810E-08
(PID.TID 0000.0001) %MON exf_precip_sd                =   2.0581769987393E-08
(PID.TID 0000.0001) %MON exf_precip_del2              =   2.5593765312607E-09
(PID.TID 0000.0001) %MON exf_swflux_max               =  -8.1208018494434E-02
(PID.TID 0000.0001) %MON exf_swflux_min               =  -6.4124076818247E+01
(PID.TID 0000.0001) %MON exf_swflux_mean              =  -2.6537480749947E+01
(PID.TID 0000.0001) %MON exf_swflux_sd                =   1.9656602581253E+01
(PID.TID 0000.0001) %MON exf_swflux_del2              =   4.7986775712052E-01
(PID.TID 0000.0001) %MON exf_evap_max                 =   4.5338211347647E-08
(PID.TID 0000.0001) %MON exf_evap_min                 =  -2.5652909865644E-09
(PID.TID 0000.0001) %MON exf_evap_mean                =   1.0819477026905E-08
(PID.TID 0000.0001) %MON exf_evap_sd                  =   1.0809325218793E-08
(PID.TID 0000.0001) %MON exf_evap_del2                =   1.3151803870595E-09
(PID.TID 0000.0001) %MON exf_swdown_max               =   7.1248974242497E+01
(PID.TID 0000.0001) %MON exf_swdown_min               =   9.0231131660482E-02
(PID.TID 0000.0001) %MON exf_swdown_mean              =   2.9486089722164E+01
(PID.TID 0000.0001) %MON exf_swdown_sd                =   2.1840669534725E+01
(PID.TID 0000.0001) %MON exf_swdown_del2              =   5.3318639680058E-01
(PID.TID 0000.0001) %MON exf_lwdown_max               =   3.0560910934698E+02
(PID.TID 0000.0001) %MON exf_lwdown_min               =   1.1587683707899E+02
(PID.TID 0000.0001) %MON exf_lwdown_mean              =   2.2582365832661E+02
(PID.TID 0000.0001) %MON exf_lwdown_sd                =   4.6309216947189E+01
(PID.TID 0000.0001) %MON exf_lwdown_del2              =   3.2439144172738E+00
(PID.TID 0000.0001) %MON exf_apressure_max            =   0.0000000000000E+00
(PID.TID 0000.0001) %MON exf_apressure_min            =   0.0000000000000E+00
(PID.TID 0000.0001) %MON exf_apressure_mean           =   0.0000000000000E+00
(PID.TID 0000.0001) %MON exf_apressure_sd             =   0.0000000000000E+00
(PID.TID 0000.0001) %MON exf_apressure_del2           =   0.0000000000000E+00
(PID.TID 0000.0001) %MON exf_runoff_max               =   0.0000000000000E+00
(PID.TID 0000.0001) %MON exf_runoff_min               =   0.0000000000000E+00
(PID.TID 0000.0001) %MON exf_runoff_mean              =   0.0000000000000E+00
(PID.TID 0000.0001) %MON exf_runoff_sd                =   0.0000000000000E+00
(PID.TID 0000.0001) %MON exf_runoff_del2              =   0.0000000000000E+00
(PID.TID 0000.0001) %MON exf_climsss_max              =   3.5041808863155E+01
(PID.TID 0000.0001) %MON exf_climsss_min              =   3.0672387795370E+01
(PID.TID 0000.0001) %MON exf_climsss_mean             =   3.3463490268825E+01
(PID.TID 0000.0001) %MON exf_climsss_sd               =   1.0313879583737E+00
(PID.TID 0000.0001) %MON exf_climsss_del2             =   1.0005612713826E-01
(PID.TID 0000.0001) %MON seaice_uice_max              =   1.6186476613969E-01
(PID.TID 0000.0001) %MON seaice_uice_min              =  -3.2581810735921E-04
(PID.TID 0000.0001) %MON seaice_uice_mean             =   6.4178425473277E-02
(PID.TID 0000.0001) %MON seaice_uice_sd               =   4.9525364233834E-02
(PID.TID 0000.0001) %MON seaice_uice_del2             =   4.3459967531677E-03
(PID.TID 0000.0001) %MON seaice_vice_max              =   7.2154711708891E-02
(PID.TID 0000.0001) %MON seaice_vice_min              =  -1.1257867836793E-01
(PID.TID 0000.0001) %MON seaice_vice_mean             =  -1.8136771240610E-02
(PID.TID 0000.0001) %MON seaice_vice_sd               =   4.5490735827186E-02
(PID.TID 0000.0001) %MON seaice_vice_del2             =   5.1452051100277E-03
(PID.TID 0000.0001) %MON seaice_area_max              =   1.0000000000000E+00
(PID.TID 0000.0001) %MON seaice_area_min              =   0.0000000000000E+00
(PID.TID 0000.0001) %MON seaice_area_mean             =   5.9526674127609E-01
(PID.TID 0000.0001) %MON seaice_area_sd               =   4.8328012693267E-01
(PID.TID 0000.0001) %MON seaice_area_del2             =   5.7279181577676E-02
(PID.TID 0000.0001) %MON seaice_heff_max              =   5.6019832310366E-01
(PID.TID 0000.0001) %MON seaice_heff_min              =   0.0000000000000E+00
(PID.TID 0000.0001) %MON seaice_heff_mean             =   1.4238646055721E-01
(PID.TID 0000.0001) %MON seaice_heff_sd               =   1.7512021911425E-01
(PID.TID 0000.0001) %MON seaice_heff_del2             =   1.3169273165279E-02
(PID.TID 0000.0001) %MON dynstat_eta_max              =   3.1241357239581E-01
(PID.TID 0000.0001) %MON dynstat_eta_min              =  -1.0183550014327E-01
(PID.TID 0000.0001) %MON dynstat_eta_mean             =   1.3819154743913E-10
(PID.TID 0000.0001) %MON dynstat_eta_sd               =   6.6806303613526E-02
(PID.TID 0000.0001) %MON dynstat_eta_del2             =   7.1790550806307E-03
(PID.TID 0000.0001) %MON dynstat_uvel_max             =   9.0932796147695E-02
(PID.TID 0000.0001) %MON dynstat_uvel_min             =  -7.7371128461438E-02
(PID.TID 0000.0001) %MON dynstat_uvel_mean            =   2.1843455275047E-05
(PID.TID 0000.0001) %MON dynstat_uvel_sd              =   1.0243255275021E-02
(PID.TID 0000.0001) %MON dynstat_uvel_del2            =   2.4159840440084E-03
(PID.TID 0000.0001) %MON dynstat_vvel_max             =   5.1918590329312E-02
(PID.TID 0000.0001) %MON dynstat_vvel_min             =  -1.0591874704068E-01
(PID.TID 0000.0001) %MON dynstat_vvel_mean            =   2.4135721779866E-04
(PID.TID 0000.0001) %MON dynstat_vvel_sd              =   7.5829063837988E-03
(PID.TID 0000.0001) %MON dynstat_vvel_del2            =   2.6415295560637E-03
(PID.TID 0000.0001) %MON dynstat_wvel_max             =   3.2827853013967E-04
(PID.TID 0000.0001) %MON dynstat_wvel_min             =  -3.1271875384297E-04
(PID.TID 0000.0001) %MON dynstat_wvel_mean            =  -9.8860024140455E-23
(PID.TID 0000.0001) %MON dynstat_wvel_sd              =   6.3211977471712E-05
(PID.TID 0000.0001) %MON dynstat_wvel_del2            =   6.3220450438057E-06
(PID.TID 0000.0001) %MON dynstat_theta_max            =   1.3313322583787E+01
(PID.TID 0000.0001) %MON dynstat_theta_min            =  -1.9637098158836E+00
(PID.TID 0000.0001) %MON dynstat_theta_mean           =   3.0752084541188E+00
(PID.TID 0000.0001) %MON dynstat_theta_sd             =   1.4252319919426E+00
(PID.TID 0000.0001) %MON dynstat_theta_del2           =   9.3805139671490E-02
(PID.TID 0000.0001) %MON dynstat_salt_max             =   3.5451107227160E+01
(PID.TID 0000.0001) %MON dynstat_salt_min             =   2.6932933214724E+01
(PID.TID 0000.0001) %MON dynstat_salt_mean            =   3.4740875090170E+01
(PID.TID 0000.0001) %MON dynstat_salt_sd              =   5.5123096617750E-01
(PID.TID 0000.0001) %MON dynstat_salt_del2            =   3.8582591738894E-02
(PID.TID 0000.0001) %MON advcfl_uvel_max              =   3.3447947242091E-03
(PID.TID 0000.0001) %MON advcfl_vvel_max              =   1.7145903183394E-03
(PID.TID 0000.0001) %MON advcfl_wvel_max              =   7.9164762321800E-03
(PID.TID 0000.0001) %MON advcfl_W_hf_max              =   1.0355604689670E-02
(PID.TID 0000.0001) %MON pe_b_mean                    =   1.4713219949940E-05
(PID.TID 0000.0001) %MON ke_max                       =   5.6831169577858E-03
(PID.TID 0000.0001) %MON ke_mean                      =   6.3838538225893E-05
(PID.TID 0000.0001) %MON ke_vol                       =   5.3036189546438E+15
(PID.TID 0000.0001) %MON vort_r_min                   =  -4.9838187954628E-07
(PID.TID 0000.0001) %MON vort_r_max                   =   2.9513942645371E-07
(PID.TID 0000.0001) %MON vort_a_mean                  =   1.2034315702808E-04
(PID.TID 0000.0001) %MON vort_a_sd                    =   8.7876832189695E-06
(PID.TID 0000.0001) %MON vort_p_mean                  =   1.7686400253074E-04
(PID.TID 0000.0001) %MON vort_p_sd                    =   1.1657081189147E-04
(PID.TID 0000.0001) %MON surfExpan_theta_mean         =  -1.4027365248928E-06
(PID.TID 0000.0001) %MON surfExpan_salt_mean          =   3.7862684398985E-07
(PID.TID 0000.0001) // =======================================================
(PID.TID 0000.0001) // End MONITOR dynamic field statistics
(PID.TID 0000.0001) // =======================================================
(PID.TID 0000.0001)  exf_GetFFieldsRec:
(PID.TID 0000.0001)  exf_GetFFieldsRec: first, changed, fac:   F   F   0.48770492E+00
(PID.TID 0000.0001)  exf_GetFFieldsRec: myiter, count0, count1:      9      1      2
(PID.TID 0000.0001)  exf_GetFFieldsRec:
(PID.TID 0000.0001)  exf_GetFFieldsRec:
(PID.TID 0000.0001)  exf_GetFFieldsRec: first, changed, fac:   F   F   0.48770492E+00
(PID.TID 0000.0001)  exf_GetFFieldsRec: myiter, count0, count1:      9      1      2
(PID.TID 0000.0001)  exf_GetFFieldsRec:
(PID.TID 0000.0001)  exf_GetFFieldsRec:
(PID.TID 0000.0001)  exf_GetFFieldsRec: first, changed, fac:   F   F   0.48770492E+00
(PID.TID 0000.0001)  exf_GetFFieldsRec: myiter, count0, count1:      9      1      2
(PID.TID 0000.0001)  exf_GetFFieldsRec:
(PID.TID 0000.0001)  exf_GetFFieldsRec:
(PID.TID 0000.0001)  exf_GetFFieldsRec: first, changed, fac:   F   F   0.48770492E+00
(PID.TID 0000.0001)  exf_GetFFieldsRec: myiter, count0, count1:      9      1      2
(PID.TID 0000.0001)  exf_GetFFieldsRec:
(PID.TID 0000.0001)  exf_GetFFieldsRec:
(PID.TID 0000.0001)  exf_GetFFieldsRec: first, changed, fac:   F   F   0.48770492E+00
(PID.TID 0000.0001)  exf_GetFFieldsRec: myiter, count0, count1:      9      1      2
(PID.TID 0000.0001)  exf_GetFFieldsRec:
(PID.TID 0000.0001)  exf_GetFFieldsRec:
(PID.TID 0000.0001)  exf_GetFFieldsRec: first, changed, fac:   F   F   0.48770492E+00
(PID.TID 0000.0001)  exf_GetFFieldsRec: myiter, count0, count1:      9      1      2
(PID.TID 0000.0001)  exf_GetFFieldsRec:
(PID.TID 0000.0001)  exf_GetFFieldsRec:
(PID.TID 0000.0001)  exf_GetFFieldsRec: first, changed, fac:   F   F   0.48770492E+00
(PID.TID 0000.0001)  exf_GetFFieldsRec: myiter, count0, count1:      9      1      2
(PID.TID 0000.0001)  exf_GetFFieldsRec:
(PID.TID 0000.0001)  exf_GetFFieldsRec:
(PID.TID 0000.0001)  exf_GetFFieldsRec: first, changed, fac:   F   F   0.48770492E+00
(PID.TID 0000.0001)  exf_GetFFieldsRec: myiter, count0, count1:      9      1      2
(PID.TID 0000.0001)  exf_GetFFieldsRec:
 cg2d: Sum(rhs),rhsMax =  -5.27804155936451E-09  1.15838062880981E+00
(PID.TID 0000.0001)                    cg2d_init_res =    5.77860490965946E-02
(PID.TID 0000.0001)                       cg2d_iters =    30
(PID.TID 0000.0001)                         cg2d_res =    9.50666240808036E-09
(PID.TID 0000.0001) // =======================================================
(PID.TID 0000.0001) // Begin MONITOR dynamic field statistics
(PID.TID 0000.0001) // =======================================================
(PID.TID 0000.0001) %MON time_tsnumber                =                    10
(PID.TID 0000.0001) %MON time_secondsf                =   3.6000000000000E+04
(PID.TID 0000.0001) %MON exf_ustress_max              =   5.2253843319716E-02
(PID.TID 0000.0001) %MON exf_ustress_min              =  -9.3800782718727E-02
(PID.TID 0000.0001) %MON exf_ustress_mean             =   1.8311135578174E-02
(PID.TID 0000.0001) %MON exf_ustress_sd               =   2.3957226839115E-02
(PID.TID 0000.0001) %MON exf_ustress_del2             =   2.8077705111947E-03
(PID.TID 0000.0001) %MON exf_vstress_max              =   5.3836529920587E-02
(PID.TID 0000.0001) %MON exf_vstress_min              =  -5.8722579561090E-02
(PID.TID 0000.0001) %MON exf_vstress_mean             =  -5.4112549083055E-03
(PID.TID 0000.0001) %MON exf_vstress_sd               =   1.4507957948431E-02
(PID.TID 0000.0001) %MON exf_vstress_del2             =   1.7051725058060E-03
(PID.TID 0000.0001) %MON exf_hflux_max                =   6.2519673913075E+02
(PID.TID 0000.0001) %MON exf_hflux_min                =  -4.2771045313963E+01
(PID.TID 0000.0001) %MON exf_hflux_mean               =   1.4904628220362E+02
(PID.TID 0000.0001) %MON exf_hflux_sd                 =   1.7823668139633E+02
(PID.TID 0000.0001) %MON exf_hflux_del2               =   1.6138970227957E+01
(PID.TID 0000.0001) %MON exf_sflux_max                =   3.9022150266140E-08
(PID.TID 0000.0001) %MON exf_sflux_min                =  -8.7298094661877E-08
(PID.TID 0000.0001) %MON exf_sflux_mean               =  -2.5564237597212E-08
(PID.TID 0000.0001) %MON exf_sflux_sd                 =   3.0067855095455E-08
(PID.TID 0000.0001) %MON exf_sflux_del2               =   3.1635298999978E-09
(PID.TID 0000.0001) %MON exf_uwind_max                =   6.4689416142761E+00
(PID.TID 0000.0001) %MON exf_uwind_min                =  -6.8374791086697E+00
(PID.TID 0000.0001) %MON exf_uwind_mean               =   2.7707407047028E+00
(PID.TID 0000.0001) %MON exf_uwind_sd                 =   2.9925253914175E+00
(PID.TID 0000.0001) %MON exf_uwind_del2               =   3.1578823099586E-01
(PID.TID 0000.0001) %MON exf_vwind_max                =   3.9243398396695E+00
(PID.TID 0000.0001) %MON exf_vwind_min                =  -6.0115501997901E+00
(PID.TID 0000.0001) %MON exf_vwind_mean               =  -7.5533872343860E-01
(PID.TID 0000.0001) %MON exf_vwind_sd                 =   1.7303202080462E+00
(PID.TID 0000.0001) %MON exf_vwind_del2               =   1.9327127420947E-01
(PID.TID 0000.0001) %MON exf_atemp_max                =   2.8186740312420E+02
(PID.TID 0000.0001) %MON exf_atemp_min                =   2.3642158439511E+02
(PID.TID 0000.0001) %MON exf_atemp_mean               =   2.6390426107320E+02
(PID.TID 0000.0001) %MON exf_atemp_sd                 =   1.1996580029013E+01
(PID.TID 0000.0001) %MON exf_atemp_del2               =   6.4959675648173E-01
(PID.TID 0000.0001) %MON exf_aqh_max                  =   6.3169040759170E-03
(PID.TID 0000.0001) %MON exf_aqh_min                  =   1.6284581668843E-04
(PID.TID 0000.0001) %MON exf_aqh_mean                 =   2.4753197025473E-03
(PID.TID 0000.0001) %MON exf_aqh_sd                   =   1.4255808388841E-03
(PID.TID 0000.0001) %MON exf_aqh_del2                 =   6.8018772549319E-05
(PID.TID 0000.0001) %MON exf_lwflux_max               =   1.8161824225117E+02
(PID.TID 0000.0001) %MON exf_lwflux_min               =   2.9316409492114E+01
(PID.TID 0000.0001) %MON exf_lwflux_mean              =   7.6094859470632E+01
(PID.TID 0000.0001) %MON exf_lwflux_sd                =   4.2207202110876E+01
(PID.TID 0000.0001) %MON exf_lwflux_del2              =   7.0221827466645E+00
(PID.TID 0000.0001) %MON exf_precip_max               =   1.0500009599131E-07
(PID.TID 0000.0001) %MON exf_precip_min               =   2.7238964868961E-10
(PID.TID 0000.0001) %MON exf_precip_mean              =   3.6389982946776E-08
(PID.TID 0000.0001) %MON exf_precip_sd                =   2.0582225664103E-08
(PID.TID 0000.0001) %MON exf_precip_del2              =   2.5599042244504E-09
(PID.TID 0000.0001) %MON exf_swflux_max               =  -8.1208301372215E-02
(PID.TID 0000.0001) %MON exf_swflux_min               =  -6.4142947168819E+01
(PID.TID 0000.0001) %MON exf_swflux_mean              =  -2.6548012965822E+01
(PID.TID 0000.0001) %MON exf_swflux_sd                =   1.9660442927159E+01
(PID.TID 0000.0001) %MON exf_swflux_del2              =   4.7997463106648E-01
(PID.TID 0000.0001) %MON exf_evap_max                 =   4.5340393691859E-08
(PID.TID 0000.0001) %MON exf_evap_min                 =  -2.5738903874457E-09
(PID.TID 0000.0001) %MON exf_evap_mean                =   1.0825745349564E-08
(PID.TID 0000.0001) %MON exf_evap_sd                  =   1.0809170544733E-08
(PID.TID 0000.0001) %MON exf_evap_del2                =   1.3156967899743E-09
(PID.TID 0000.0001) %MON exf_swdown_max               =   7.1269941298688E+01
(PID.TID 0000.0001) %MON exf_swdown_min               =   9.0231445969128E-02
(PID.TID 0000.0001) %MON exf_swdown_mean              =   2.9497792184247E+01
(PID.TID 0000.0001) %MON exf_swdown_sd                =   2.1844936585733E+01
(PID.TID 0000.0001) %MON exf_swdown_del2              =   5.3330514562942E-01
(PID.TID 0000.0001) %MON exf_lwdown_max               =   3.0560028326316E+02
(PID.TID 0000.0001) %MON exf_lwdown_min               =   1.1586173020035E+02
(PID.TID 0000.0001) %MON exf_lwdown_mean              =   2.2580795099755E+02
(PID.TID 0000.0001) %MON exf_lwdown_sd                =   4.6313195660870E+01
(PID.TID 0000.0001) %MON exf_lwdown_del2              =   3.2439260573465E+00
(PID.TID 0000.0001) %MON exf_apressure_max            =   0.0000000000000E+00
(PID.TID 0000.0001) %MON exf_apressure_min            =   0.0000000000000E+00
(PID.TID 0000.0001) %MON exf_apressure_mean           =   0.0000000000000E+00
(PID.TID 0000.0001) %MON exf_apressure_sd             =   0.0000000000000E+00
(PID.TID 0000.0001) %MON exf_apressure_del2           =   0.0000000000000E+00
(PID.TID 0000.0001) %MON exf_runoff_max               =   0.0000000000000E+00
(PID.TID 0000.0001) %MON exf_runoff_min               =   0.0000000000000E+00
(PID.TID 0000.0001) %MON exf_runoff_mean              =   0.0000000000000E+00
(PID.TID 0000.0001) %MON exf_runoff_sd                =   0.0000000000000E+00
(PID.TID 0000.0001) %MON exf_runoff_del2              =   0.0000000000000E+00
(PID.TID 0000.0001) %MON exf_climsss_max              =   3.5041993610194E+01
(PID.TID 0000.0001) %MON exf_climsss_min              =   3.0673147123368E+01
(PID.TID 0000.0001) %MON exf_climsss_mean             =   3.3464011602304E+01
(PID.TID 0000.0001) %MON exf_climsss_sd               =   1.0313181272348E+00
(PID.TID 0000.0001) %MON exf_climsss_del2             =   1.0003889784787E-01
(PID.TID 0000.0001) %MON seaice_uice_max              =   1.6167970443458E-01
(PID.TID 0000.0001) %MON seaice_uice_min              =  -3.4022233086888E-04
(PID.TID 0000.0001) %MON seaice_uice_mean             =   6.2845574295312E-02
(PID.TID 0000.0001) %MON seaice_uice_sd               =   4.8673308615116E-02
(PID.TID 0000.0001) %MON seaice_uice_del2             =   4.1772958749917E-03
(PID.TID 0000.0001) %MON seaice_vice_max              =   5.9678093375127E-02
(PID.TID 0000.0001) %MON seaice_vice_min              =  -1.0993772415306E-01
(PID.TID 0000.0001) %MON seaice_vice_mean             =  -2.0044942523448E-02
(PID.TID 0000.0001) %MON seaice_vice_sd               =   4.2208900038312E-02
(PID.TID 0000.0001) %MON seaice_vice_del2             =   5.0293019797292E-03
(PID.TID 0000.0001) %MON seaice_area_max              =   1.0000000000000E+00
(PID.TID 0000.0001) %MON seaice_area_min              =   0.0000000000000E+00
(PID.TID 0000.0001) %MON seaice_area_mean             =   5.9428930907197E-01
(PID.TID 0000.0001) %MON seaice_area_sd               =   4.8362339834383E-01
(PID.TID 0000.0001) %MON seaice_area_del2             =   5.7346066640649E-02
(PID.TID 0000.0001) %MON seaice_heff_max              =   5.6102485898773E-01
(PID.TID 0000.0001) %MON seaice_heff_min              =   0.0000000000000E+00
(PID.TID 0000.0001) %MON seaice_heff_mean             =   1.4226773535552E-01
(PID.TID 0000.0001) %MON seaice_heff_sd               =   1.7521332404033E-01
(PID.TID 0000.0001) %MON seaice_heff_del2             =   1.3163290355987E-02
(PID.TID 0000.0001) %MON dynstat_eta_max              =   2.9917443360909E-01
(PID.TID 0000.0001) %MON dynstat_eta_min              =  -9.6216645456241E-02
(PID.TID 0000.0001) %MON dynstat_eta_mean             =   1.1375925877950E-10
(PID.TID 0000.0001) %MON dynstat_eta_sd               =   6.3718641733069E-02
(PID.TID 0000.0001) %MON dynstat_eta_del2             =   7.3329938899404E-03
(PID.TID 0000.0001) %MON dynstat_uvel_max             =   8.4444043984710E-02
(PID.TID 0000.0001) %MON dynstat_uvel_min             =  -7.2014567613845E-02
(PID.TID 0000.0001) %MON dynstat_uvel_mean            =  -1.5537984619307E-04
(PID.TID 0000.0001) %MON dynstat_uvel_sd              =   9.3874741552500E-03
(PID.TID 0000.0001) %MON dynstat_uvel_del2            =   2.1563136160658E-03
(PID.TID 0000.0001) %MON dynstat_vvel_max             =   3.5306246898888E-02
(PID.TID 0000.0001) %MON dynstat_vvel_min             =  -9.0658098835004E-02
(PID.TID 0000.0001) %MON dynstat_vvel_mean            =   4.2495391973525E-04
(PID.TID 0000.0001) %MON dynstat_vvel_sd              =   6.5639591677230E-03
(PID.TID 0000.0001) %MON dynstat_vvel_del2            =   2.5130115021230E-03
(PID.TID 0000.0001) %MON dynstat_wvel_max             =   2.7219817109411E-04
(PID.TID 0000.0001) %MON dynstat_wvel_min             =  -2.7523283607724E-04
(PID.TID 0000.0001) %MON dynstat_wvel_mean            =  -1.1863202896855E-21
(PID.TID 0000.0001) %MON dynstat_wvel_sd              =   5.7263259354495E-05
(PID.TID 0000.0001) %MON dynstat_wvel_del2            =   6.3966133236385E-06
(PID.TID 0000.0001) %MON dynstat_theta_max            =   1.3298545981049E+01
(PID.TID 0000.0001) %MON dynstat_theta_min            =  -1.9630792535259E+00
(PID.TID 0000.0001) %MON dynstat_theta_mean           =   3.0751997711028E+00
(PID.TID 0000.0001) %MON dynstat_theta_sd             =   1.4251827077972E+00
(PID.TID 0000.0001) %MON dynstat_theta_del2           =   9.3798068794677E-02
(PID.TID 0000.0001) %MON dynstat_salt_max             =   3.5450818419056E+01
(PID.TID 0000.0001) %MON dynstat_salt_min             =   2.6935324417039E+01
(PID.TID 0000.0001) %MON dynstat_salt_mean            =   3.4740879072592E+01
(PID.TID 0000.0001) %MON dynstat_salt_sd              =   5.5114033403815E-01
(PID.TID 0000.0001) %MON dynstat_salt_del2            =   3.8601158063470E-02
(PID.TID 0000.0001) %MON advcfl_uvel_max              =   2.8592550731878E-03
(PID.TID 0000.0001) %MON advcfl_vvel_max              =   1.4675541666090E-03
(PID.TID 0000.0001) %MON advcfl_wvel_max              =   7.1637484412619E-03
(PID.TID 0000.0001) %MON advcfl_W_hf_max              =   9.3641989776585E-03
(PID.TID 0000.0001) %MON pe_b_mean                    =   1.3384614291866E-05
(PID.TID 0000.0001) %MON ke_max                       =   4.5466946917397E-03
(PID.TID 0000.0001) %MON ke_mean                      =   5.1649910885885E-05
(PID.TID 0000.0001) %MON ke_vol                       =   5.3036189546438E+15
(PID.TID 0000.0001) %MON vort_r_min                   =  -4.6062831843785E-07
(PID.TID 0000.0001) %MON vort_r_max                   =   3.4799161549101E-07
(PID.TID 0000.0001) %MON vort_a_mean                  =   1.2034315923214E-04
(PID.TID 0000.0001) %MON vort_a_sd                    =   8.7875011476923E-06
(PID.TID 0000.0001) %MON vort_p_mean                  =   1.7686400576997E-04
(PID.TID 0000.0001) %MON vort_p_sd                    =   1.1657359633328E-04
(PID.TID 0000.0001) %MON surfExpan_theta_mean         =  -1.9083071631492E-06
(PID.TID 0000.0001) %MON surfExpan_salt_mean          =   1.7936756916399E-07
(PID.TID 0000.0001) // =======================================================
(PID.TID 0000.0001) // End MONITOR dynamic field statistics
(PID.TID 0000.0001) // =======================================================
(PID.TID 0000.0001) // Time-average data written, t-step        10
(PID.TID 0000.0001) 
(PID.TID 0000.0001) %CHECKPOINT        10 0000000010
(PID.TID 0000.0001)   Seconds in section "ALL                    [THE_MODEL_MAIN]":
(PID.TID 0000.0001)           User time:  3.72443397
(PID.TID 0000.0001)         System time:  0.302954009
(PID.TID 0000.0001)     Wall clock time:  4.23352981
(PID.TID 0000.0001)          No. starts: 1
(PID.TID 0000.0001)           No. stops: 1
(PID.TID 0000.0001)   Seconds in section "INITIALISE_FIXED       [THE_MODEL_MAIN]":
(PID.TID 0000.0001)           User time:  0.106983997
(PID.TID 0000.0001)         System time:  0.0179970004
(PID.TID 0000.0001)     Wall clock time:  0.165143013
(PID.TID 0000.0001)          No. starts: 1
(PID.TID 0000.0001)           No. stops: 1
(PID.TID 0000.0001)   Seconds in section "THE_MAIN_LOOP          [THE_MODEL_MAIN]":
(PID.TID 0000.0001)           User time:  3.61744997
(PID.TID 0000.0001)         System time:  0.284957008
(PID.TID 0000.0001)     Wall clock time:  4.06817102
(PID.TID 0000.0001)          No. starts: 1
(PID.TID 0000.0001)           No. stops: 1
(PID.TID 0000.0001)   Seconds in section "INITIALISE_VARIA    [THE_MAIN_LOOP]":
(PID.TID 0000.0001)           User time:  0.518920988
(PID.TID 0000.0001)         System time:  0.0319959987
(PID.TID 0000.0001)     Wall clock time:  0.567480087
(PID.TID 0000.0001)          No. starts: 1
(PID.TID 0000.0001)           No. stops: 1
(PID.TID 0000.0001)   Seconds in section "MONITOR             [THE_MAIN_LOOP]":
(PID.TID 0000.0001)           User time:  0.0159969926
(PID.TID 0000.0001)         System time:  0.000998999923
(PID.TID 0000.0001)     Wall clock time:  0.0174760818
(PID.TID 0000.0001)          No. starts: 1
(PID.TID 0000.0001)           No. stops: 1
(PID.TID 0000.0001)   Seconds in section "DO_THE_MODEL_IO     [THE_MAIN_LOOP]":
(PID.TID 0000.0001)           User time:  0.016997993
(PID.TID 0000.0001)         System time:  0.0269959979
(PID.TID 0000.0001)     Wall clock time:  0.0684149265
(PID.TID 0000.0001)          No. starts: 1
(PID.TID 0000.0001)           No. stops: 1
(PID.TID 0000.0001)   Seconds in section "MAIN LOOP           [THE_MAIN_LOOP]":
(PID.TID 0000.0001)           User time:  3.065534
(PID.TID 0000.0001)         System time:  0.224966012
(PID.TID 0000.0001)     Wall clock time:  3.41460109
(PID.TID 0000.0001)          No. starts: 1
(PID.TID 0000.0001)           No. stops: 1
(PID.TID 0000.0001)   Seconds in section "FORWARD_STEP        [THE_MAIN_LOOP]":
(PID.TID 0000.0001)           User time:  3.065534
(PID.TID 0000.0001)         System time:  0.224966012
(PID.TID 0000.0001)     Wall clock time:  3.41421413
(PID.TID 0000.0001)          No. starts: 10
(PID.TID 0000.0001)           No. stops: 10
(PID.TID 0000.0001)   Seconds in section "DO_STATEVARS_DIAGS  [FORWARD_STEP]":
(PID.TID 0000.0001)           User time:  0.000999927521
(PID.TID 0000.0001)         System time:  0.
(PID.TID 0000.0001)     Wall clock time:  0.000611543655
(PID.TID 0000.0001)          No. starts: 10
(PID.TID 0000.0001)           No. stops: 10
(PID.TID 0000.0001)   Seconds in section "EXF_GETFORCING     [FORWARD_STEP]":
(PID.TID 0000.0001)           User time:  0.0369949341
(PID.TID 0000.0001)         System time:  0.00100000203
(PID.TID 0000.0001)     Wall clock time:  0.0426528454
(PID.TID 0000.0001)          No. starts: 10
(PID.TID 0000.0001)           No. stops: 10
(PID.TID 0000.0001)   Seconds in section "SEAICE_MODEL       [FORWARD_STEP]":
(PID.TID 0000.0001)           User time:  0.728889704
(PID.TID 0000.0001)         System time:  0.00299999863
(PID.TID 0000.0001)     Wall clock time:  0.734063625
(PID.TID 0000.0001)          No. starts: 10
(PID.TID 0000.0001)           No. stops: 10
(PID.TID 0000.0001)   Seconds in section "DYNSOLVER          [SEAICE_MODEL]":
(PID.TID 0000.0001)           User time:  0.679896832
(PID.TID 0000.0001)         System time:  0.00200000405
(PID.TID 0000.0001)     Wall clock time:  0.684978008
(PID.TID 0000.0001)          No. starts: 10
(PID.TID 0000.0001)           No. stops: 10
(PID.TID 0000.0001)   Seconds in section "DO_ATMOSPHERIC_PHYS [FORWARD_STEP]":
(PID.TID 0000.0001)           User time:  0.
(PID.TID 0000.0001)         System time:  0.
(PID.TID 0000.0001)     Wall clock time:  0.000338315964
(PID.TID 0000.0001)          No. starts: 10
(PID.TID 0000.0001)           No. stops: 10
(PID.TID 0000.0001)   Seconds in section "DO_OCEANIC_PHYS     [FORWARD_STEP]":
(PID.TID 0000.0001)           User time:  0.564913511
(PID.TID 0000.0001)         System time:  0.00399900228
(PID.TID 0000.0001)     Wall clock time:  0.570363045
(PID.TID 0000.0001)          No. starts: 10
(PID.TID 0000.0001)           No. stops: 10
(PID.TID 0000.0001)   Seconds in section "STATEKPP      [KPP_CALC]":
(PID.TID 0000.0001)           User time:  0.080988884
(PID.TID 0000.0001)         System time:  0.000999003649
(PID.TID 0000.0001)     Wall clock time:  0.0833380222
(PID.TID 0000.0001)          No. starts: 20
(PID.TID 0000.0001)           No. stops: 20
(PID.TID 0000.0001)   Seconds in section "KPPMIX [KPP_CALC]":
(PID.TID 0000.0001)           User time:  0.22496599
(PID.TID 0000.0001)         System time:  0.0019999966
(PID.TID 0000.0001)     Wall clock time:  0.226331234
(PID.TID 0000.0001)          No. starts: 20
(PID.TID 0000.0001)           No. stops: 20
(PID.TID 0000.0001)   Seconds in section "THERMODYNAMICS      [FORWARD_STEP]":
(PID.TID 0000.0001)           User time:  0.440932989
(PID.TID 0000.0001)         System time:  0.
(PID.TID 0000.0001)     Wall clock time:  0.441255093
(PID.TID 0000.0001)          No. starts: 10
(PID.TID 0000.0001)           No. stops: 10
(PID.TID 0000.0001)   Seconds in section "DYNAMICS            [FORWARD_STEP]":
(PID.TID 0000.0001)           User time:  0.629904747
(PID.TID 0000.0001)         System time:  0.00100000203
(PID.TID 0000.0001)     Wall clock time:  0.630890608
(PID.TID 0000.0001)          No. starts: 10
(PID.TID 0000.0001)           No. stops: 10
(PID.TID 0000.0001)   Seconds in section "SOLVE_FOR_PRESSURE  [FORWARD_STEP]":
(PID.TID 0000.0001)           User time:  0.0739887953
(PID.TID 0000.0001)         System time:  0.
(PID.TID 0000.0001)     Wall clock time:  0.0735976696
(PID.TID 0000.0001)          No. starts: 10
(PID.TID 0000.0001)           No. stops: 10
(PID.TID 0000.0001)   Seconds in section "UV_CORRECTION_STEP  [FORWARD_STEP]":
(PID.TID 0000.0001)           User time:  0.0229951739
(PID.TID 0000.0001)         System time:  0.
(PID.TID 0000.0001)     Wall clock time:  0.0225596428
(PID.TID 0000.0001)          No. starts: 10
(PID.TID 0000.0001)           No. stops: 10
(PID.TID 0000.0001)   Seconds in section "TS_CORRECTION_STEP  [FORWARD_STEP]":
(PID.TID 0000.0001)           User time:  0.00899976492
(PID.TID 0000.0001)         System time:  0.
(PID.TID 0000.0001)     Wall clock time:  0.00942277908
(PID.TID 0000.0001)          No. starts: 10
(PID.TID 0000.0001)           No. stops: 10
(PID.TID 0000.0001)   Seconds in section "BLOCKING_EXCHANGES  [FORWARD_STEP]":
(PID.TID 0000.0001)           User time:  0.0439940095
(PID.TID 0000.0001)         System time:  0.
(PID.TID 0000.0001)     Wall clock time:  0.0435333252
(PID.TID 0000.0001)          No. starts: 10
(PID.TID 0000.0001)           No. stops: 10
(PID.TID 0000.0001)   Seconds in section "DO_STATEVARS_TAVE   [FORWARD_STEP]":
(PID.TID 0000.0001)           User time:  0.109983027
(PID.TID 0000.0001)         System time:  0.
(PID.TID 0000.0001)     Wall clock time:  0.110422373
(PID.TID 0000.0001)          No. starts: 10
(PID.TID 0000.0001)           No. stops: 10
(PID.TID 0000.0001)   Seconds in section "MONITOR             [FORWARD_STEP]":
(PID.TID 0000.0001)           User time:  0.172973037
(PID.TID 0000.0001)         System time:  0.00299900025
(PID.TID 0000.0001)     Wall clock time:  0.17600894
(PID.TID 0000.0001)          No. starts: 10
(PID.TID 0000.0001)           No. stops: 10
(PID.TID 0000.0001)   Seconds in section "DO_THE_MODEL_IO     [FORWARD_STEP]":
(PID.TID 0000.0001)           User time:  0.17297399
(PID.TID 0000.0001)         System time:  0.153976992
(PID.TID 0000.0001)     Wall clock time:  0.424332857
(PID.TID 0000.0001)          No. starts: 10
(PID.TID 0000.0001)           No. stops: 10
(PID.TID 0000.0001)   Seconds in section "WRITE_CHECKPOINT    [FORWARD_STEP]":
(PID.TID 0000.0001)           User time:  0.0499930382
(PID.TID 0000.0001)         System time:  0.058991015
(PID.TID 0000.0001)     Wall clock time:  0.128240585
(PID.TID 0000.0001)          No. starts: 10
(PID.TID 0000.0001)           No. stops: 10
(PID.TID 0000.0001)   Seconds in section "WRITE_CHECKPOINT       [THE_MODEL_MAIN]":
(PID.TID 0000.0001)           User time:  0.
(PID.TID 0000.0001)         System time:  0.
(PID.TID 0000.0001)     Wall clock time:  3.60012054E-05
(PID.TID 0000.0001)          No. starts: 1
(PID.TID 0000.0001)           No. stops: 1
(PID.TID 0000.0001) // ======================================================
(PID.TID 0000.0001) // Tile <-> Tile communication statistics
(PID.TID 0000.0001) // ======================================================
(PID.TID 0000.0001) // o Tile number: 000001
(PID.TID 0000.0001) //         No. X exchanges =              0
(PID.TID 0000.0001) //            Max. X spins =              0
(PID.TID 0000.0001) //            Min. X spins =     1000000000
(PID.TID 0000.0001) //          Total. X spins =              0
(PID.TID 0000.0001) //            Avg. X spins =       0.00E+00
(PID.TID 0000.0001) //         No. Y exchanges =              0
(PID.TID 0000.0001) //            Max. Y spins =              0
(PID.TID 0000.0001) //            Min. Y spins =     1000000000
(PID.TID 0000.0001) //          Total. Y spins =              0
(PID.TID 0000.0001) //            Avg. Y spins =       0.00E+00
(PID.TID 0000.0001) // o Tile number: 000002
(PID.TID 0000.0001) //         No. X exchanges =              0
(PID.TID 0000.0001) //            Max. X spins =              0
(PID.TID 0000.0001) //            Min. X spins =     1000000000
(PID.TID 0000.0001) //          Total. X spins =              0
(PID.TID 0000.0001) //            Avg. X spins =       0.00E+00
(PID.TID 0000.0001) //         No. Y exchanges =              0
(PID.TID 0000.0001) //            Max. Y spins =              0
(PID.TID 0000.0001) //            Min. Y spins =     1000000000
(PID.TID 0000.0001) //          Total. Y spins =              0
(PID.TID 0000.0001) //            Avg. Y spins =       0.00E+00
(PID.TID 0000.0001) // o Thread number: 000001
(PID.TID 0000.0001) //            No. barriers =          25080
(PID.TID 0000.0001) //      Max. barrier spins =              1
(PID.TID 0000.0001) //      Min. barrier spins =              1
(PID.TID 0000.0001) //     Total barrier spins =          25080
(PID.TID 0000.0001) //      Avg. barrier spins =       1.00E+00
