(PID.TID 0000.0001) 
(PID.TID 0000.0001) // ======================================================
(PID.TID 0000.0001) //                      MITgcm UV
(PID.TID 0000.0001) //                      =========
(PID.TID 0000.0001) // ======================================================
(PID.TID 0000.0001) // execution environment starting up...
(PID.TID 0000.0001) 
(PID.TID 0000.0001) // MITgcmUV version:  checkpoint59c
(PID.TID 0000.0001) // Build user:        heimbach
(PID.TID 0000.0001) // Build host:        faulks
(PID.TID 0000.0001) // Build date:        Fri Jun  8 10:46:03 EDT 2007
(PID.TID 0000.0001) 
(PID.TID 0000.0001) // =======================================================
(PID.TID 0000.0001) // Execution Environment parameter file "eedata"
(PID.TID 0000.0001) // =======================================================
(PID.TID 0000.0001) ># Example "eedata" file
(PID.TID 0000.0001) ># Lines beginning "#" are comments
(PID.TID 0000.0001) ># nTx - No. threads per process in X
(PID.TID 0000.0001) ># nTy - No. threads per process in Y
(PID.TID 0000.0001) > &EEPARMS
(PID.TID 0000.0001) > nTx=1,
(PID.TID 0000.0001) > nTy=1,
(PID.TID 0000.0001) > &
(PID.TID 0000.0001) ># Note: Some systems use & as the
(PID.TID 0000.0001) ># namelist terminator. Other systems
(PID.TID 0000.0001) ># use a / character (as shown here).
(PID.TID 0000.0001) 
(PID.TID 0000.0001) // =======================================================
(PID.TID 0000.0001) // Computational Grid Specification ( see files "SIZE.h" )
(PID.TID 0000.0001) //                                  ( and "eedata"       )
(PID.TID 0000.0001) // =======================================================
(PID.TID 0000.0001)      nPx =    1 ; /* No. processes in X */
(PID.TID 0000.0001)      nPy =    1 ; /* No. processes in Y */
(PID.TID 0000.0001)      nSx =    2 ; /* No. tiles in X per process */
(PID.TID 0000.0001)      nSy =    1 ; /* No. tiles in Y per process */
(PID.TID 0000.0001)      sNx =   10 ; /* Tile size in X */
(PID.TID 0000.0001)      sNy =   16 ; /* Tile size in Y */
(PID.TID 0000.0001)      OLx =    3 ; /* Tile overlap distance in X */
(PID.TID 0000.0001)      OLy =    3 ; /* Tile overlap distance in Y */
(PID.TID 0000.0001)      nTx =    1 ; /* No. threads in X per process */
(PID.TID 0000.0001)      nTy =    1 ; /* No. threads in Y per process */
(PID.TID 0000.0001)       Nr =   23 ; /* No. levels in the vertical   */
(PID.TID 0000.0001)       nX =   20 ; /* Total domain size in X ( = nPx*nSx*sNx ) */
(PID.TID 0000.0001)       nY =   16 ; /* Total domain size in Y ( = nPy*nSy*sNy ) */
(PID.TID 0000.0001)   nTiles =    2 ; /* Total no. tiles per process ( = nSx*nSy ) */
(PID.TID 0000.0001)   nProcs =    1 ; /* Total no. processes ( = nPx*nPy ) */
(PID.TID 0000.0001) nThreads =    1 ; /* Total no. threads per process ( = nTx*nTy ) */
(PID.TID 0000.0001) usingMPI =    F ; /* Flag used to control whether MPI is in use */
(PID.TID 0000.0001)                   /*  note: To execute a program with MPI calls */
(PID.TID 0000.0001)                   /*  it must be launched appropriately e.g     */
(PID.TID 0000.0001)                   /*  "mpirun -np 64 ......"                    */
(PID.TID 0000.0001) useCoupler=   F ; /* Flag used to control communications with */
(PID.TID 0000.0001)                   /*  other model components, through a coupler */
(PID.TID 0000.0001) 
(PID.TID 0000.0001) // ======================================================
(PID.TID 0000.0001) // Mapping of tiles to threads
(PID.TID 0000.0001) // ======================================================
(PID.TID 0000.0001) // -o- Thread   1, tiles (   1:   2,   1:   1)
(PID.TID 0000.0001) 
(PID.TID 0000.0001) // ======================================================
(PID.TID 0000.0001) // Tile <-> Tile connectvity table
(PID.TID 0000.0001) // ======================================================
(PID.TID 0000.0001) // Tile number: 000001 (process no. = 000001)
(PID.TID 0000.0001) //        WEST: Tile = 000002, Process = 000001, Comm = put
(PID.TID 0000.0001) //                bi = 000002, bj = 000001
(PID.TID 0000.0001) //        EAST: Tile = 000002, Process = 000001, Comm = put
(PID.TID 0000.0001) //                bi = 000002, bj = 000001
(PID.TID 0000.0001) //       SOUTH: Tile = 000001, Process = 000001, Comm = put
(PID.TID 0000.0001) //                bi = 000001, bj = 000001
(PID.TID 0000.0001) //       NORTH: Tile = 000001, Process = 000001, Comm = put
(PID.TID 0000.0001) //                bi = 000001, bj = 000001
(PID.TID 0000.0001) // Tile number: 000002 (process no. = 000001)
(PID.TID 0000.0001) //        WEST: Tile = 000001, Process = 000001, Comm = put
(PID.TID 0000.0001) //                bi = 000001, bj = 000001
(PID.TID 0000.0001) //        EAST: Tile = 000001, Process = 000001, Comm = put
(PID.TID 0000.0001) //                bi = 000001, bj = 000001
(PID.TID 0000.0001) //       SOUTH: Tile = 000002, Process = 000001, Comm = put
(PID.TID 0000.0001) //                bi = 000002, bj = 000001
(PID.TID 0000.0001) //       NORTH: Tile = 000002, Process = 000001, Comm = put
(PID.TID 0000.0001) //                bi = 000002, bj = 000001
(PID.TID 0000.0001) 
(PID.TID 0000.0001) // =======================================================
(PID.TID 0000.0001) // Model parameter file "data"
(PID.TID 0000.0001) // =======================================================
(PID.TID 0000.0001) ># ====================
(PID.TID 0000.0001) ># | Model parameters |
(PID.TID 0000.0001) ># ====================
(PID.TID 0000.0001) >#
(PID.TID 0000.0001) ># Continuous equation parameters
(PID.TID 0000.0001) >#
(PID.TID 0000.0001) >#   tRef            - Reference vertical potential temperature          (deg C)
(PID.TID 0000.0001) >#   sRef            - Reference vertical salinity                         (PSU)
(PID.TID 0000.0001) >#   viscAh          - Horizontal eddy viscosity coefficient             (m^2/s)
(PID.TID 0000.0001) >#   viscAz          - Vertical eddy viscosity coefficient               (m^2/s)
(PID.TID 0000.0001) >#   diffKhT         - Horizontal temperature diffusivity                (m^2/s)
(PID.TID 0000.0001) >#   diffKzT         - Vertical temperature diffusivity                  (m^2/s)
(PID.TID 0000.0001) >#   diffKhS         - Horizontal salt diffusivity                       (m^2/s)
(PID.TID 0000.0001) >#   diffKzS         - Vertical salt diffusivity                         (m^2/s)
(PID.TID 0000.0001) >#   gravity         - Acceleration due to gravity                       (m/s^2)
(PID.TID 0000.0001) >#   rigidLid        - Set to true to use rigid lid
(PID.TID 0000.0001) >#   implicitFreeSurface - Set to true to use implicit free surface
(PID.TID 0000.0001) >#   eosType         - Flag for linear or polynomial equation of state
(PID.TID 0000.0001) >#   momAdvection    - On/Off flag for momentum self transport
(PID.TID 0000.0001) >#   momViscosity    - On/Off flag for momentum mixing
(PID.TID 0000.0001) >#
(PID.TID 0000.0001) > &PARM01
(PID.TID 0000.0001) > tRef= 24.0 , 23.0 , 22.0 , 21.0 , 20.0 ,
(PID.TID 0000.0001) >       19.0 , 18.0 , 17.0 , 16.0 , 15.0 ,
(PID.TID 0000.0001) >       14.0 , 13.0 , 12.0 , 11.0 , 10.0 ,
(PID.TID 0000.0001) >        9.0 ,  8.0 ,  7.0 ,  6.0,   5.0 ,
(PID.TID 0000.0001) >        4.0 ,  3.0 ,  2.0 ,
(PID.TID 0000.0001) > sRef= 34.65, 34.75, 34.82, 34.87, 34.90,
(PID.TID 0000.0001) >       34.90, 34.86, 34.78, 34.69, 34.60,
(PID.TID 0000.0001) >       34.58, 34.62, 34.68, 34.72, 34.73,
(PID.TID 0000.0001) >       34.74, 34.73, 34.73, 34.72, 34.72,
(PID.TID 0000.0001) >       34.71, 34.70, 34.69,
(PID.TID 0000.0001) > no_slip_sides=.FALSE.,
(PID.TID 0000.0001) > no_slip_bottom=.TRUE.,
(PID.TID 0000.0001) > viscAz=1.93e-5,
(PID.TID 0000.0001) > viscAh=5.E4,
(PID.TID 0000.0001) > diffKhT=0.0,
(PID.TID 0000.0001) > diffKzT=1.46e-5,
(PID.TID 0000.0001) > diffKhS=0.0,
(PID.TID 0000.0001) > diffKzS=1.46e-5,
(PID.TID 0000.0001) > rigidLid=.FALSE.,
(PID.TID 0000.0001) > implicitFreeSurface=.TRUE.,
(PID.TID 0000.0001) > eosType='JMD95Z',
(PID.TID 0000.0001) > readBinaryPrec=32,
(PID.TID 0000.0001) > writeBinaryPrec=32,
(PID.TID 0000.0001) > saltStepping=.TRUE.,
(PID.TID 0000.0001) > tempStepping=.TRUE.,
(PID.TID 0000.0001) > momStepping=.TRUE.,
(PID.TID 0000.0001) > implicitDiffusion=.TRUE.,
(PID.TID 0000.0001) > implicitViscosity=.TRUE.,
(PID.TID 0000.0001) >#globalFiles=.TRUE.,
(PID.TID 0000.0001) >#- not safe to use globalFiles in multi-processors runs; set instead useSingleCpuIO
(PID.TID 0000.0001) > useSingleCpuIO=.TRUE.,
(PID.TID 0000.0001) > allowFreezing=.FALSE.,
(PID.TID 0000.0001) > HeatCapacity_Cp = 3986.D0,
(PID.TID 0000.0001) > gravity         = 9.8156,
(PID.TID 0000.0001) > rhoNil          = 1027.D0,
(PID.TID 0000.0001) > useCDscheme=.TRUE.,
(PID.TID 0000.0001) > &
(PID.TID 0000.0001) >
(PID.TID 0000.0001) ># Elliptic solver parameters
(PID.TID 0000.0001) >#
(PID.TID 0000.0001) >#   cg2dMaxIters       - Maximum number of 2d solver iterations
(PID.TID 0000.0001) >#   cg2dTargetResidual - Solver target residual
(PID.TID 0000.0001) >#
(PID.TID 0000.0001) > &PARM02
(PID.TID 0000.0001) > cg2dMaxIters=500,
(PID.TID 0000.0001) > cg2dTargetResidual=1.E-12,
(PID.TID 0000.0001) > &
(PID.TID 0000.0001) >
(PID.TID 0000.0001) ># Time stepping parameters
(PID.TID 0000.0001) >#
(PID.TID 0000.0001) >#   startTime         - Integration starting time                (s)
(PID.TID 0000.0001) >#   endTime           - Integration ending time                  (s)
(PID.TID 0000.0001) >#   tauCD             - CD scheme coupling timescale             (s)
(PID.TID 0000.0001) >#   deltaTMom         - Timestep for momemtum equations          (s)
(PID.TID 0000.0001) >#   deltaTtracer      - Tracer timestep                          (s)
(PID.TID 0000.0001) >#   deltaTClock       - Timestep used as model "clock"           (s)
(PID.TID 0000.0001) >#   abEps             - Adams-Bashforth stabilising factor
(PID.TID 0000.0001) >#   pChkPtFreq        - Frequency of permanent check pointing    (s)
(PID.TID 0000.0001) >#   chkPtFreq         - Frequency of rolling check pointing      (s)
(PID.TID 0000.0001) >#   dumpFreq          - Frequency at which model state is stored (s)
(PID.TID 0000.0001) >#   tauThetaClimRelax - Relaxation to climatology time scale     (s)
(PID.TID 0000.0001) >#   tauSaltClimRelax  - Relaxation to climatology time scale     (s)
(PID.TID 0000.0001) >#
(PID.TID 0000.0001) > &PARM03
(PID.TID 0000.0001) > tauCD=172800.,
(PID.TID 0000.0001) > startTime=0.0,
(PID.TID 0000.0001) > endTime=36000.,
(PID.TID 0000.0001) > deltaTmom=3600.0,
(PID.TID 0000.0001) > deltaTtracer=3600.0,
(PID.TID 0000.0001) > deltaTClock =3600.0,
(PID.TID 0000.0001) > cAdjFreq=0.,
(PID.TID 0000.0001) > abEps=0.1,
(PID.TID 0000.0001) > pChkptFreq=36000.,
(PID.TID 0000.0001) > chkptFreq= 0.,
(PID.TID 0000.0001) > dumpFreq = 0.,
(PID.TID 0000.0001) > tavefreq = 36000.,
(PID.TID 0000.0001) > tauSaltClimRelax = 4142330.,
(PID.TID 0000.0001) > tauThetaClimRelax = 0.,
(PID.TID 0000.0001) > monitorFreq=1.,
(PID.TID 0000.0001) > forcing_In_AB = .FALSE.,
(PID.TID 0000.0001) > &
(PID.TID 0000.0001) >
(PID.TID 0000.0001) ># Gridding parameters
(PID.TID 0000.0001) >#
(PID.TID 0000.0001) >#   usingSphericalPolarGrid - On/Off flag for spherical polar coordinates
(PID.TID 0000.0001) >#   delX                    - Zonal grid spacing         (degrees)
(PID.TID 0000.0001) >#   delY                    - Meridional grid spacing    (degrees)
(PID.TID 0000.0001) >#   delZ                    - Vertical grid spacing      (m)
(PID.TID 0000.0001) >#   phiMin                  - Southern boundary latitude (degrees)
(PID.TID 0000.0001) >#
(PID.TID 0000.0001) > &PARM04
(PID.TID 0000.0001) > usingSphericalPolarGrid=.TRUE.,
(PID.TID 0000.0001) > delX=20*2.E0,
(PID.TID 0000.0001) > delY=16*2.E0,
(PID.TID 0000.0001) > delZ= 10., 10., 15., 20., 20., 25., 35., 50., 75.,
(PID.TID 0000.0001) >       100., 150., 200., 275., 350., 415., 450.,
(PID.TID 0000.0001) >       500., 500., 500., 500., 500., 500., 500.,
(PID.TID 0000.0001) > phimin=46.,
(PID.TID 0000.0001) > thetamin=280.,
(PID.TID 0000.0001) > rSphere         = 6371.D3,
(PID.TID 0000.0001) > &
(PID.TID 0000.0001) >
(PID.TID 0000.0001) ># Input datasets
(PID.TID 0000.0001) >#
(PID.TID 0000.0001) >#   bathyFile       - File containing bathymetry
(PID.TID 0000.0001) >#   hydrogThetaFile - File containing initial potential temperature data
(PID.TID 0000.0001) >#   hydrogSaltFile  - File containing initial salinity data
(PID.TID 0000.0001) >#   zonalWindFile   - File containing zonal wind data
(PID.TID 0000.0001) >#   meridWindFile   - File containing meridional wind data
(PID.TID 0000.0001) >#   thetaClimFile   - File containing theta climatology used for relaxation
(PID.TID 0000.0001) >#   saltClimFile    - File containing salt climatology used for relaxation
(PID.TID 0000.0001) >#
(PID.TID 0000.0001) > &PARM05
(PID.TID 0000.0001) > bathyFile       = 'bathy.labsea1979',
(PID.TID 0000.0001) > hydrogThetaFile = 'LevCli_temp.labsea1979',
(PID.TID 0000.0001) > hydrogSaltFile  = 'LevCli_salt.labsea1979',
(PID.TID 0000.0001) > &
(PID.TID 0000.0001) >
(PID.TID 0000.0001) 
(PID.TID 0000.0001) S/R INI_PARMS ; starts to read PARM01
(PID.TID 0000.0001) S/R INI_PARMS ; read PARM01 : OK
(PID.TID 0000.0001) S/R INI_PARMS ; starts to read PARM02
(PID.TID 0000.0001) S/R INI_PARMS ; read PARM02 : OK
(PID.TID 0000.0001) S/R INI_PARMS ; starts to read PARM03
(PID.TID 0000.0001) S/R INI_PARMS ; read PARM03 : OK
(PID.TID 0000.0001) S/R INI_PARMS ; starts to read PARM04
(PID.TID 0000.0001) S/R INI_PARMS ; read PARM04 : OK
(PID.TID 0000.0001) S/R INI_PARMS ; starts to read PARM05
(PID.TID 0000.0001) S/R INI_PARMS ; read PARM05 : OK
(PID.TID 0000.0001)  PACKAGES_BOOT: opening data.pkg
(PID.TID 0000.0001)  OPEN_COPY_DATA_FILE: opening file data.pkg
(PID.TID 0000.0001) // =======================================================
(PID.TID 0000.0001) // Parameter file "data.pkg"
(PID.TID 0000.0001) // =======================================================
(PID.TID 0000.0001) ># Packages
(PID.TID 0000.0001) > &PACKAGES
(PID.TID 0000.0001) >  useGMRedi = .TRUE.,
(PID.TID 0000.0001) >  useKPP    = .TRUE.,
(PID.TID 0000.0001) >  useEXF    = .TRUE.,
(PID.TID 0000.0001) >  useSEAICE = .TRUE.,
(PID.TID 0000.0001) >  useDiagnostics = .TRUE.,
(PID.TID 0000.0001) ># useMNC    = .TRUE.,
(PID.TID 0000.0001) > &
(PID.TID 0000.0001) 
(PID.TID 0000.0001)  PACKAGES_BOOT: finished reading data.pkg
(PID.TID 0000.0001) CAL_READPARMS: opening data.cal
(PID.TID 0000.0001)  OPEN_COPY_DATA_FILE: opening file data.cal
(PID.TID 0000.0001) // =======================================================
(PID.TID 0000.0001) // Parameter file "data.cal"
(PID.TID 0000.0001) // =======================================================
(PID.TID 0000.0001) >#
(PID.TID 0000.0001) ># *******************
(PID.TID 0000.0001) ># Calendar Parameters
(PID.TID 0000.0001) ># *******************
(PID.TID 0000.0001) > &CAL_NML
(PID.TID 0000.0001) > TheCalendar='gregorian',
(PID.TID 0000.0001) ># TheCalendar='model',
(PID.TID 0000.0001) > startDate_1=19790101,
(PID.TID 0000.0001) > startDate_2=000000,
(PID.TID 0000.0001) > &
(PID.TID 0000.0001) 
(PID.TID 0000.0001) CAL_READPARMS: finished reading data.cal
(PID.TID 0000.0001) 
(PID.TID 0000.0001) // =======================================================
(PID.TID 0000.0001) // Calendar configuration >>> START <<<
(PID.TID 0000.0001) // =======================================================
(PID.TID 0000.0001) 
(PID.TID 0000.0001) Calendar version: 0.2.0
(PID.TID 0000.0001) 
(PID.TID 0000.0001) startTime =   /* Start time of the model integration [s] */
(PID.TID 0000.0001)                 0.000000000000000E+00
(PID.TID 0000.0001)     ;
(PID.TID 0000.0001) endTime =   /* End time of the model integration [s] */
(PID.TID 0000.0001)                 3.600000000000000E+04
(PID.TID 0000.0001)     ;
(PID.TID 0000.0001) deltatclock =   /* Time interval for a model forward step [s] */
(PID.TID 0000.0001)                 3.600000000000000E+03
(PID.TID 0000.0001)     ;
(PID.TID 0000.0001) usingGregorianCalendar =  /* Calendar Type: Gregorian Calendar */
(PID.TID 0000.0001)                   T
(PID.TID 0000.0001)     ;
(PID.TID 0000.0001) usingJulianCalendar =  /* Calendar Type: Julian Calendar */
(PID.TID 0000.0001)                   F
(PID.TID 0000.0001)     ;
(PID.TID 0000.0001) usingModelCalendar =  /* Calendar Type: Model Calendar */
(PID.TID 0000.0001)                   F
(PID.TID 0000.0001)     ;
(PID.TID 0000.0001) usingNoCalendar =  /* Calendar Type: No Calendar */
(PID.TID 0000.0001)                   F
(PID.TID 0000.0001)     ;
(PID.TID 0000.0001) modelstartdate (YYYYMMDD) =   /* Model start date YYYY-MM-DD  */
(PID.TID 0000.0001)                19790101
(PID.TID 0000.0001)     ;
(PID.TID 0000.0001) modelstartdate (HHMMSS) =   /* Model start date HH-MM-SS  */
(PID.TID 0000.0001)                       0
(PID.TID 0000.0001)     ;
(PID.TID 0000.0001) modelenddate (YYYYMMDD) =   /* Model end date YYYY-MM-DD  */
(PID.TID 0000.0001)                19790101
(PID.TID 0000.0001)     ;
(PID.TID 0000.0001) modelenddate (HHMMSS) =   /* Model end date HH-MM-SS  */
(PID.TID 0000.0001)                  100000
(PID.TID 0000.0001)     ;
(PID.TID 0000.0001) intyears =   /* Number of calendar years affected by the integration  */
(PID.TID 0000.0001)                       1
(PID.TID 0000.0001)     ;
(PID.TID 0000.0001) intmonths =   /* Number of calendar months affected by the integration  */
(PID.TID 0000.0001)                       1
(PID.TID 0000.0001)     ;
(PID.TID 0000.0001) intdays =   /* Number of calendar days affected by the integration  */
(PID.TID 0000.0001)                       1
(PID.TID 0000.0001)     ;
(PID.TID 0000.0001) nIter0 =   /* Base timestep number  */
(PID.TID 0000.0001)                       0
(PID.TID 0000.0001)     ;
(PID.TID 0000.0001) nEndIter =   /* Final timestep number  */
(PID.TID 0000.0001)                      10
(PID.TID 0000.0001)     ;
(PID.TID 0000.0001) nTimeSteps =   /* Number of model timesteps  */
(PID.TID 0000.0001)                      10
(PID.TID 0000.0001)     ;
(PID.TID 0000.0001) 
(PID.TID 0000.0001) // =======================================================
(PID.TID 0000.0001) // Calendar configuration  >>> END <<<
(PID.TID 0000.0001) // =======================================================
(PID.TID 0000.0001) 
(PID.TID 0000.0001)  GM_READPARMS: opening data.gmredi
(PID.TID 0000.0001)  OPEN_COPY_DATA_FILE: opening file data.gmredi
(PID.TID 0000.0001) // =======================================================
(PID.TID 0000.0001) // Parameter file "data.gmredi"
(PID.TID 0000.0001) // =======================================================
(PID.TID 0000.0001) ># GMREDI parameters
(PID.TID 0000.0001) > &GM_PARM01
(PID.TID 0000.0001) >  GM_background_K = 571.0
(PID.TID 0000.0001) >  GM_taper_scheme = 'ldd97'
(PID.TID 0000.0001) > &
(PID.TID 0000.0001) 
(PID.TID 0000.0001)  GM_READPARMS: finished reading data.gmredi
(PID.TID 0000.0001)  KPP_INIT: opening data.kpp
(PID.TID 0000.0001)  OPEN_COPY_DATA_FILE: opening file data.kpp
(PID.TID 0000.0001) // =======================================================
(PID.TID 0000.0001) // Parameter file "data.kpp"
(PID.TID 0000.0001) // =======================================================
(PID.TID 0000.0001) ># KPP parameters
(PID.TID 0000.0001) > &KPP_PARM01
(PID.TID 0000.0001) > KPPmixingMaps   = .FALSE.,
(PID.TID 0000.0001) > KPPwriteState   = .TRUE.,
(PID.TID 0000.0001) > KPP_ghatUseTotalDiffus=.TRUE.,
(PID.TID 0000.0001) > &
(PID.TID 0000.0001) 
(PID.TID 0000.0001)  KPP_INIT: finished reading data.kpp
(PID.TID 0000.0001) 
(PID.TID 0000.0001)  SEAICE_READPARMS: opening data.seaice
(PID.TID 0000.0001)  OPEN_COPY_DATA_FILE: opening file data.seaice
(PID.TID 0000.0001) // =======================================================
(PID.TID 0000.0001) // Parameter file "data.seaice"
(PID.TID 0000.0001) // =======================================================
(PID.TID 0000.0001) ># SEAICE parameters
(PID.TID 0000.0001) > &SEAICE_PARM01
(PID.TID 0000.0001) >      SEAICEwriteState   = .TRUE.,
(PID.TID 0000.0001) >      SEAICE_initialHEFF = 1.0,
(PID.TID 0000.0001) >      SEAICE_deltaTtherm = 3600.,
(PID.TID 0000.0001) >      SEAICE_deltaTdyn   = 3600.,
(PID.TID 0000.0001) >#     SEAICEuseDYNAMICS  =.FALSE.,
(PID.TID 0000.0001) >      LSR_ERROR          = 1.E-12,
(PID.TID 0000.0001) >#     SEAICEuseEVP       = .TRUE.,
(PID.TID 0000.0001) >#     SEAICE_deltaTevp   = 60.,
(PID.TID 0000.0001) >#     SEAICE_tave_mnc    = .FALSE.,
(PID.TID 0000.0001) >#     SEAICE_dump_mnc    = .FALSE.,
(PID.TID 0000.0001) >#     SEAICE_mon_mnc     = .FALSE.,
(PID.TID 0000.0001) > &
(PID.TID 0000.0001) 
(PID.TID 0000.0001)  SEAICE_READPARMS: finished reading data.seaice
(PID.TID 0000.0001) 
(PID.TID 0000.0001) // =======================================================
(PID.TID 0000.0001) // Seaice configuration (SEAICE_PARM01) >>> START <<<
(PID.TID 0000.0001) // =======================================================
(PID.TID 0000.0001) 
(PID.TID 0000.0001) SEAICEwriteState  = /* write sea ice state to file */
(PID.TID 0000.0001)                   T
(PID.TID 0000.0001)     ;
(PID.TID 0000.0001) SEAICEuseDYNAMICS = /* use dynamics */
(PID.TID 0000.0001)                   T
(PID.TID 0000.0001)     ;
(PID.TID 0000.0001) SEAICEuseEVP      = /* use EVP solver */
(PID.TID 0000.0001)                   F
(PID.TID 0000.0001)     ;
(PID.TID 0000.0001) SEAICE_no_slip    = /* no slip boundary conditions */
(PID.TID 0000.0001)                   F
(PID.TID 0000.0001)     ;
(PID.TID 0000.0001) SEAICE_maskRHS    = /* mask RHS of solver */
(PID.TID 0000.0001)                   F
(PID.TID 0000.0001)     ;
(PID.TID 0000.0001) SEAICE_clipVeloctities = /* impose max. vels. */
(PID.TID 0000.0001)                   T
(PID.TID 0000.0001)     ;
(PID.TID 0000.0001) useHB87stressCoupling  = /* altern. ice-ocean stress */
(PID.TID 0000.0001)                   F
(PID.TID 0000.0001)     ;
(PID.TID 0000.0001) usePW79thermodynamics  = /* default 0-layer TD */
(PID.TID 0000.0001)                   T
(PID.TID 0000.0001)     ;
(PID.TID 0000.0001) SEAICEadvHeff = /* advect effective ice thickness */
(PID.TID 0000.0001)                   T
(PID.TID 0000.0001)     ;
(PID.TID 0000.0001) SEAICEadvArea = /* advect fractional ice area */
(PID.TID 0000.0001)                   T
(PID.TID 0000.0001)     ;
(PID.TID 0000.0001) SEAICEadvSnow = /* advect snow layer together with ice */
(PID.TID 0000.0001)                   F
(PID.TID 0000.0001)     ;
(PID.TID 0000.0001) SEAICEuseFlooding = /* turn submerged snow into ice */
(PID.TID 0000.0001)                   F
(PID.TID 0000.0001)     ;
(PID.TID 0000.0001) LAD               = /* time stepping scheme */
(PID.TID 0000.0001)                       2
(PID.TID 0000.0001)     ;
(PID.TID 0000.0001) IMAX_TICE         = /* iterations for ice heat budget */
(PID.TID 0000.0001)                      10
(PID.TID 0000.0001)     ;
(PID.TID 0000.0001) SEAICEadvScheme   = /* advection scheme for thickness */
(PID.TID 0000.0001)                       2
(PID.TID 0000.0001)     ;
(PID.TID 0000.0001) SEAICEuseFluxForm = /* advection in FV flux form */
(PID.TID 0000.0001)                   F
(PID.TID 0000.0001)     ;
(PID.TID 0000.0001) SEAICEadvSchArea   = /* advection scheme for area */
(PID.TID 0000.0001)                       2
(PID.TID 0000.0001)     ;
(PID.TID 0000.0001) SEAICEadvSchHeff   = /* advection scheme for thickness */
(PID.TID 0000.0001)                       2
(PID.TID 0000.0001)     ;
(PID.TID 0000.0001) SEAICE_deltaTtherm= /* thermodynamic timestep */
(PID.TID 0000.0001)                 3.600000000000000E+03
(PID.TID 0000.0001)     ;
(PID.TID 0000.0001) SEAICE_deltaTdyn  = /* dynamic timestep */
(PID.TID 0000.0001)                 3.600000000000000E+03
(PID.TID 0000.0001)     ;
(PID.TID 0000.0001) SEAICE_deltaTevp  = /* EVP timestep */
(PID.TID 0000.0001)                 1.234567000000000E+05
(PID.TID 0000.0001)     ;
(PID.TID 0000.0001) SEAICE_elasticParm= /* EVP elastic parameter */
(PID.TID 0000.0001)                 3.333333333333333E-01
(PID.TID 0000.0001)     ;
(PID.TID 0000.0001) SEAICE_evpTauRelax= /* EVP relaxation timescale */
(PID.TID 0000.0001)                -1.000000000000000E+00
(PID.TID 0000.0001)     ;
(PID.TID 0000.0001) SEAICE_evpDampC   = /* EVP damping parameter */
(PID.TID 0000.0001)                -1.000000000000000E+00
(PID.TID 0000.0001)     ;
(PID.TID 0000.0001) SEAICE_monFreq  = /* monitor frequency */
(PID.TID 0000.0001)                 1.000000000000000E+00
(PID.TID 0000.0001)     ;
(PID.TID 0000.0001) SEAICE_dumpFreq   = /* dump frequency */
(PID.TID 0000.0001)                 0.000000000000000E+00
(PID.TID 0000.0001)     ;
(PID.TID 0000.0001) SEAICE_taveFreq   = /* time-averaging frequency */
(PID.TID 0000.0001)                 3.600000000000000E+04
(PID.TID 0000.0001)     ;
(PID.TID 0000.0001) SEAICE_mon_stdio  = /* write monitor to std-outp */
(PID.TID 0000.0001)                   T
(PID.TID 0000.0001)     ;
(PID.TID 0000.0001) SEAICE_dump_mdsio = /* write snap-shot   using MDSIO */
(PID.TID 0000.0001)                   T
(PID.TID 0000.0001)     ;
(PID.TID 0000.0001) SEAICE_tave_mdsio = /* write TimeAverage using MDSIO */
(PID.TID 0000.0001)                   T
(PID.TID 0000.0001)     ;
(PID.TID 0000.0001) SEAICE_mon_mnc    = /* write monitor to netcdf file */
(PID.TID 0000.0001)                   F
(PID.TID 0000.0001)     ;
(PID.TID 0000.0001) SEAICE_dump_mnc   = /* write snap-shot   using MNC */
(PID.TID 0000.0001)                   F
(PID.TID 0000.0001)     ;
(PID.TID 0000.0001) SEAICE_tave_mnc   = /* write TimeAverage using MNC */
(PID.TID 0000.0001)                   F
(PID.TID 0000.0001)     ;
(PID.TID 0000.0001) SEAICE_initialHEFF= /* initial sea-ice thickness */
(PID.TID 0000.0001)                 1.000000000000000E+00
(PID.TID 0000.0001)     ;
(PID.TID 0000.0001) SEAICE_drag       = /* air-ice drag coefficient */
(PID.TID 0000.0001)                 2.000000000000000E-03
(PID.TID 0000.0001)     ;
(PID.TID 0000.0001) OCEAN_drag        = /* air-ocean drag coefficient */
(PID.TID 0000.0001)                 1.000000000000000E-03
(PID.TID 0000.0001)     ;
(PID.TID 0000.0001) SEAICE_waterDrag  = /* water-ice drag * density */
(PID.TID 0000.0001)                 5.500000000000000E+00
(PID.TID 0000.0001)     ;
(PID.TID 0000.0001) SEAICE_dryIceAlb  = /* winter albedo */
(PID.TID 0000.0001)                 7.500000000000000E-01
(PID.TID 0000.0001)     ;
(PID.TID 0000.0001) SEAICE_wetIceAlb  = /* summer albedo */
(PID.TID 0000.0001)                 6.600000000000000E-01
(PID.TID 0000.0001)     ;
(PID.TID 0000.0001) SEAICE_drySnowAlb = /* dry snow albedo */
(PID.TID 0000.0001)                 8.400000000000000E-01
(PID.TID 0000.0001)     ;
(PID.TID 0000.0001) SEAICE_wetSnowAlb = /* wet snow albedo */
(PID.TID 0000.0001)                 7.000000000000000E-01
(PID.TID 0000.0001)     ;
(PID.TID 0000.0001) SEAICE_waterAlbedo= /* water albedo */
(PID.TID 0000.0001)                 1.000000000000000E-01
(PID.TID 0000.0001)     ;
(PID.TID 0000.0001) SEAICE_strength   = /* sea-ice strength Pstar */
(PID.TID 0000.0001)                 2.750000000000000E+04
(PID.TID 0000.0001)     ;
(PID.TID 0000.0001) SEAICE_sensHeat   = /* sensible heat transfer */
(PID.TID 0000.0001)                 2.284000000000000E+00
(PID.TID 0000.0001)     ;
(PID.TID 0000.0001) SEAICE_latentWater= /* latent heat transfer for water */
(PID.TID 0000.0001)                 5.687500000000000E+03
(PID.TID 0000.0001)     ;
(PID.TID 0000.0001) SEAICE_latentIce  = /* latent heat transfer for ice */
(PID.TID 0000.0001)                 6.447400000000000E+03
(PID.TID 0000.0001)     ;
(PID.TID 0000.0001) SEAICE_iceConduct = /* sea-ice conductivity */
(PID.TID 0000.0001)                 2.165600000000000E+00
(PID.TID 0000.0001)     ;
(PID.TID 0000.0001) SEAICE_snowConduct= /* snow conductivity */
(PID.TID 0000.0001)                 3.100000000000000E-01
(PID.TID 0000.0001)     ;
(PID.TID 0000.0001) SEAICE_emissivity = /* Stefan-Boltzman * emissivity */
(PID.TID 0000.0001)                 5.500000000000000E-08
(PID.TID 0000.0001)     ;
(PID.TID 0000.0001) SEAICE_snowThick  = /* cutoff snow thickness */
(PID.TID 0000.0001)                 1.500000000000000E-01
(PID.TID 0000.0001)     ;
(PID.TID 0000.0001) SEAICE_shortwave  = /* penetration shortwave radiation */
(PID.TID 0000.0001)                 3.000000000000000E-01
(PID.TID 0000.0001)     ;
(PID.TID 0000.0001) SEAICE_freeze     = /* freezing temp. of sea water */
(PID.TID 0000.0001)                -1.960000000000000E+00
(PID.TID 0000.0001)     ;
(PID.TID 0000.0001) Initial sea-ice concentration is read from file:
(PID.TID 0000.0001)    >>    <<
(PID.TID 0000.0001) Initial sea-ice thickness is read from file:
(PID.TID 0000.0001)    >>    <<
(PID.TID 0000.0001)     ;
(PID.TID 0000.0001) LSR_ERROR         = /* sets accuracy of LSR solver */
(PID.TID 0000.0001)                 1.000000000000000E-12
(PID.TID 0000.0001)     ;
(PID.TID 0000.0001) DIFF1             = /* parameter used in advect.F */
(PID.TID 0000.0001)                 4.000000000000000E-03
(PID.TID 0000.0001)     ;
(PID.TID 0000.0001) A22               = /* parameter used in growth.F */
(PID.TID 0000.0001)                 1.500000000000000E-01
(PID.TID 0000.0001)     ;
(PID.TID 0000.0001) HO                = /* demarcation ice thickness */
(PID.TID 0000.0001)                 5.000000000000000E-01
(PID.TID 0000.0001)     ;
(PID.TID 0000.0001) MAX_HEFF          = /* maximum ice thickness */
(PID.TID 0000.0001)                 1.000000000000000E+01
(PID.TID 0000.0001)     ;
(PID.TID 0000.0001) MIN_ATEMP         = /* minimum air temperature */
(PID.TID 0000.0001)                -5.000000000000000E+01
(PID.TID 0000.0001)     ;
(PID.TID 0000.0001) MIN_LWDOWN        = /* minimum downward longwave */
(PID.TID 0000.0001)                 6.000000000000000E+01
(PID.TID 0000.0001)     ;
(PID.TID 0000.0001) MAX_TICE          = /* maximum ice temperature */
(PID.TID 0000.0001)                 3.000000000000000E+01
(PID.TID 0000.0001)     ;
(PID.TID 0000.0001) MIN_TICE          = /* minimum ice temperature */
(PID.TID 0000.0001)                -5.000000000000000E+01
(PID.TID 0000.0001)     ;
(PID.TID 0000.0001) SEAICE_EPS        = /* reduce derivative singularities */
(PID.TID 0000.0001)                 1.000000000000000E-10
(PID.TID 0000.0001)     ;
(PID.TID 0000.0001) // =======================================================
(PID.TID 0000.0001) // Seaice configuration (SEAICE_PARM01) >>> END <<<
(PID.TID 0000.0001) // =======================================================
(PID.TID 0000.0001) EXF_READPARMS: opening data.exf
(PID.TID 0000.0001)  OPEN_COPY_DATA_FILE: opening file data.exf
(PID.TID 0000.0001) // =======================================================
(PID.TID 0000.0001) // Parameter file "data.exf"
(PID.TID 0000.0001) // =======================================================
(PID.TID 0000.0001) ># $Header: /home/jahn/src/cvs2git/MITgcm/20170915-2/gcmpack-all-patch/MITgcm/verification/lab_sea/results/Attic/output.lsr.txt,v 1.9 2007/06/08 15:09:35 heimbach Exp $
(PID.TID 0000.0001) >#
(PID.TID 0000.0001) ># *********************
(PID.TID 0000.0001) ># External Forcing Data
(PID.TID 0000.0001) ># *********************
(PID.TID 0000.0001) > &EXF_NML_01
(PID.TID 0000.0001) >#
(PID.TID 0000.0001) > useExfCheckRange  = .TRUE.,
(PID.TID 0000.0001) > repeatPeriod      = 31622400.0,
(PID.TID 0000.0001) > exf_iprec         = 32,
(PID.TID 0000.0001) > exf_yftype        = 'RL',
(PID.TID 0000.0001) >#
(PID.TID 0000.0001) > &
(PID.TID 0000.0001) >
(PID.TID 0000.0001) ># *********************
(PID.TID 0000.0001) > &EXF_NML_02
(PID.TID 0000.0001) >#
(PID.TID 0000.0001) > hfluxstartdate1   = 19781216,
(PID.TID 0000.0001) > hfluxstartdate2   = 180000,
(PID.TID 0000.0001) > hfluxperiod       = 2635200.0,
(PID.TID 0000.0001) >#
(PID.TID 0000.0001) > sfluxstartdate1   = 19781216,
(PID.TID 0000.0001) > sfluxstartdate2   = 180000,
(PID.TID 0000.0001) > sfluxperiod       = 2635200.0,
(PID.TID 0000.0001) >#
(PID.TID 0000.0001) > ustressstartdate1 = 19781216,
(PID.TID 0000.0001) > ustressstartdate2 = 180000,
(PID.TID 0000.0001) > ustressperiod     = 2635200.0,
(PID.TID 0000.0001) >#
(PID.TID 0000.0001) > vstressstartdate1 = 19781216,
(PID.TID 0000.0001) > vstressstartdate2 = 180000,
(PID.TID 0000.0001) > vstressperiod     = 2635200.0,
(PID.TID 0000.0001) >#
(PID.TID 0000.0001) > atempstartdate1   = 19781216,
(PID.TID 0000.0001) > atempstartdate2   = 180000,
(PID.TID 0000.0001) > atempperiod       = 2635200.0,
(PID.TID 0000.0001) >#
(PID.TID 0000.0001) > aqhstartdate1     = 19781216,
(PID.TID 0000.0001) > aqhstartdate2     = 180000,
(PID.TID 0000.0001) > aqhperiod         = 2635200.0,
(PID.TID 0000.0001) >#
(PID.TID 0000.0001) >#evapstartdate1    = 19781216,
(PID.TID 0000.0001) >#evapstartdate2    = 180000,
(PID.TID 0000.0001) >#evapperiod        = 2635200.0,
(PID.TID 0000.0001) >#
(PID.TID 0000.0001) > precipstartdate1  = 19781216,
(PID.TID 0000.0001) > precipstartdate2  = 180000,
(PID.TID 0000.0001) > precipperiod      = 2635200.0,
(PID.TID 0000.0001) >#
(PID.TID 0000.0001) > uwindstartdate1   = 19781216,
(PID.TID 0000.0001) > uwindstartdate2   = 180000,
(PID.TID 0000.0001) > uwindperiod       = 2635200.0,
(PID.TID 0000.0001) >#
(PID.TID 0000.0001) > vwindstartdate1   = 19781216,
(PID.TID 0000.0001) > vwindstartdate2   = 180000,
(PID.TID 0000.0001) > vwindperiod       = 2635200.0,
(PID.TID 0000.0001) >#
(PID.TID 0000.0001) > swfluxstartdate1  = 19781216,
(PID.TID 0000.0001) > swfluxstartdate2  = 180000,
(PID.TID 0000.0001) > swfluxperiod      = 2635200.0,
(PID.TID 0000.0001) >#
(PID.TID 0000.0001) > lwfluxstartdate1  = 19781216,
(PID.TID 0000.0001) > lwfluxstartdate2  = 180000,
(PID.TID 0000.0001) > lwfluxperiod      = 2635200.0,
(PID.TID 0000.0001) >#
(PID.TID 0000.0001) > swdownstartdate1  = 19781216,
(PID.TID 0000.0001) > swdownstartdate2  = 180000,
(PID.TID 0000.0001) > swdownperiod      = 2635200.0,
(PID.TID 0000.0001) >#
(PID.TID 0000.0001) > lwdownstartdate1  = 19781216,
(PID.TID 0000.0001) > lwdownstartdate2  = 180000,
(PID.TID 0000.0001) > lwdownperiod      = 2635200.0,
(PID.TID 0000.0001) >#
(PID.TID 0000.0001) > climsststartdate1  = 19781216,
(PID.TID 0000.0001) > climsststartdate2  = 180000,
(PID.TID 0000.0001) > climsstperiod      = 2635200.0,
(PID.TID 0000.0001) >#
(PID.TID 0000.0001) > climsssstartdate1  = 19781216,
(PID.TID 0000.0001) > climsssstartdate2  = 180000,
(PID.TID 0000.0001) > climsssperiod      = 2635200.0,
(PID.TID 0000.0001) >#
(PID.TID 0000.0001) > hfluxfile         = ' ',
(PID.TID 0000.0001) > sfluxfile         = ' ',
(PID.TID 0000.0001) > ustressfile       = ' ',
(PID.TID 0000.0001) > vstressfile       = ' ',
(PID.TID 0000.0001) > atempfile         = 'tair.labsea1979',
(PID.TID 0000.0001) > aqhfile           = 'qa.labsea1979',
(PID.TID 0000.0001) > uwindfile         = 'u10m.labsea1979',
(PID.TID 0000.0001) > vwindfile         = 'v10m.labsea1979',
(PID.TID 0000.0001) >#evapfile          = 'evap.labsea1979',
(PID.TID 0000.0001) > precipfile        = 'prate.labsea1979',
(PID.TID 0000.0001) > lwfluxfile        = ' ',
(PID.TID 0000.0001) > swfluxfile        = ' ',
(PID.TID 0000.0001) > lwdownfile        = 'flo.labsea1979',
(PID.TID 0000.0001) > swdownfile        = 'fsh.labsea1979',
(PID.TID 0000.0001) > runoffFile        = ' '
(PID.TID 0000.0001) > climsstfile       = ' ',
(PID.TID 0000.0001) > climsssfile       = 'SSS_monthly.labsea1979',
(PID.TID 0000.0001) >#
(PID.TID 0000.0001) > &
(PID.TID 0000.0001) >
(PID.TID 0000.0001) ># *********************
(PID.TID 0000.0001) > &EXF_NML_03
(PID.TID 0000.0001) > &
(PID.TID 0000.0001) >
(PID.TID 0000.0001) ># *********************
(PID.TID 0000.0001) > &EXF_NML_04
(PID.TID 0000.0001) > &
(PID.TID 0000.0001) 
(PID.TID 0000.0001) EXF_READPARMS: reading EXF_NML_01
(PID.TID 0000.0001) EXF_READPARMS: reading EXF_NML_02
(PID.TID 0000.0001) EXF_READPARMS: reading EXF_NML_03
(PID.TID 0000.0001) EXF_READPARMS: reading EXF_NML_04
(PID.TID 0000.0001) EXF_READPARMS: finished reading data.exf
(PID.TID 0000.0001)  DIAGNOSTICS_READPARMS: opening data.diagnostics
(PID.TID 0000.0001)  OPEN_COPY_DATA_FILE: opening file data.diagnostics
(PID.TID 0000.0001) // =======================================================
(PID.TID 0000.0001) // Parameter file "data.diagnostics"
(PID.TID 0000.0001) // =======================================================
(PID.TID 0000.0001) ># Diagnostic Package Choices
(PID.TID 0000.0001) >#-----------------
(PID.TID 0000.0001) ># for each output-stream:
(PID.TID 0000.0001) >#  filename(n) : prefix of the output file name (only 8.c long) for outp.stream n
(PID.TID 0000.0001) >#  frequency(n):< 0 : write snap-shot output every |frequency| seconds
(PID.TID 0000.0001) >#               > 0 : write time-average output every frequency seconds
(PID.TID 0000.0001) >#  timePhase(n)     : write at time = timePhase + multiple of |frequency|
(PID.TID 0000.0001) >#  levels(:,n) : list of levels to write to file (Notes: declared as REAL)
(PID.TID 0000.0001) >#                 when this entry is missing, select all common levels of this list
(PID.TID 0000.0001) >#  fields(:,n) : list of diagnostics fields (8.c) (see "available_diagnostics" file
(PID.TID 0000.0001) >#                 for the list of all available diag. in this particular config)
(PID.TID 0000.0001) >#-----------------
(PID.TID 0000.0001) ># This example dumps all KPP diagnostics as
(PID.TID 0000.0001) ># a snapshot after ten time steps
(PID.TID 0000.0001) > &diagnostics_list
(PID.TID 0000.0001) >#
(PID.TID 0000.0001) >   dumpatlast  = .TRUE.,
(PID.TID 0000.0001) >#
(PID.TID 0000.0001) >  frequency(1) = -36000.,
(PID.TID 0000.0001) >   fields(1,1) = 'EXFtaux ',
(PID.TID 0000.0001) >   filename(1) = 'EXFtaux ',
(PID.TID 0000.0001) >#
(PID.TID 0000.0001) >  frequency(2) = -36000.,
(PID.TID 0000.0001) >   fields(1,2) = 'EXFtauy ',
(PID.TID 0000.0001) >   filename(2) = 'EXFtauy ',
(PID.TID 0000.0001) >#
(PID.TID 0000.0001) >  frequency(3) = -36000.,
(PID.TID 0000.0001) >   fields(1,3) = 'EXFqnet ',
(PID.TID 0000.0001) >   filename(3) = 'EXFqnet ',
(PID.TID 0000.0001) >#
(PID.TID 0000.0001) >  frequency(4) = -36000.,
(PID.TID 0000.0001) >   fields(1,4) = 'EXFempmr',
(PID.TID 0000.0001) >   filename(4) = 'EXFempmr',
(PID.TID 0000.0001) >#
(PID.TID 0000.0001) >  frequency(5) = -36000.,
(PID.TID 0000.0001) >   fields(1,5) = 'EXFhl   ',
(PID.TID 0000.0001) >   filename(5) = 'EXFhl   ',
(PID.TID 0000.0001) >#
(PID.TID 0000.0001) >  frequency(6) = -36000.,
(PID.TID 0000.0001) >   fields(1,6) = 'EXFhs   ',
(PID.TID 0000.0001) >   filename(6) = 'EXFhs   ',
(PID.TID 0000.0001) >#
(PID.TID 0000.0001) >  frequency(7) = -36000.,
(PID.TID 0000.0001) >   fields(1,7) = 'EXFswnet',
(PID.TID 0000.0001) >   filename(7) = 'EXFswnet',
(PID.TID 0000.0001) >#
(PID.TID 0000.0001) >  frequency(8) = -36000.,
(PID.TID 0000.0001) >   fields(1,8) = 'EXFlwnet',
(PID.TID 0000.0001) >   filename(8) = 'EXFlwnet',
(PID.TID 0000.0001) >#
(PID.TID 0000.0001) >  frequency(9) = -36000.,
(PID.TID 0000.0001) >   fields(1,9) = 'EXFuwind',
(PID.TID 0000.0001) >   filename(9) = 'EXFuwind',
(PID.TID 0000.0001) >#
(PID.TID 0000.0001) >  frequency(10) = -36000.,
(PID.TID 0000.0001) >   fields(1,10) = 'EXFvwind',
(PID.TID 0000.0001) >   filename(10) = 'EXFvwind',
(PID.TID 0000.0001) >#
(PID.TID 0000.0001) >  frequency(11) = -36000.,
(PID.TID 0000.0001) >   fields(1,11) = 'EXFatemp',
(PID.TID 0000.0001) >   filename(11) = 'EXFatemp',
(PID.TID 0000.0001) >#
(PID.TID 0000.0001) >  frequency(12) = 36000.,
(PID.TID 0000.0001) >   fields(1,12) = 'SIarea  ',
(PID.TID 0000.0001) >   filename(12) = 'SIarea  ',
(PID.TID 0000.0001) >#
(PID.TID 0000.0001) >  frequency(13) = 36000.,
(PID.TID 0000.0001) >   fields(1,13) = 'SIheff  ',
(PID.TID 0000.0001) >   filename(13) = 'SIheff  ',
(PID.TID 0000.0001) >#
(PID.TID 0000.0001) >  frequency(14) = 36000.,
(PID.TID 0000.0001) >   fields(1,14) = 'SIhsnow ',
(PID.TID 0000.0001) >   filename(14) = 'SIhsnow ',
(PID.TID 0000.0001) >#
(PID.TID 0000.0001) >  frequency(15) = 36000.,
(PID.TID 0000.0001) >   fields(1,15) = 'SIuice  ',
(PID.TID 0000.0001) >   filename(15) = 'SIuice  ',
(PID.TID 0000.0001) >#
(PID.TID 0000.0001) >  frequency(16) = 36000.,
(PID.TID 0000.0001) >   fields(1,16) = 'SIvice  ',
(PID.TID 0000.0001) >   filename(16) = 'SIvice  ',
(PID.TID 0000.0001) >#
(PID.TID 0000.0001) >  frequency(17) = 36000.,
(PID.TID 0000.0001) >   fields(1,17) = 'KPPhbl  ',
(PID.TID 0000.0001) >   filename(17) = 'KPPhbl  ',
(PID.TID 0000.0001) >#
(PID.TID 0000.0001) >  frequency(18) = 36000.,
(PID.TID 0000.0001) >   fields(1,18) = 'KPPmld  ',
(PID.TID 0000.0001) >   filename(18) = 'KPPmld  ',
(PID.TID 0000.0001) >#
(PID.TID 0000.0001) >  frequency(19) = 36000.,
(PID.TID 0000.0001) >   fields(1,19) = 'KPPghat ',
(PID.TID 0000.0001) >   filename(19) = 'KPPghat ',
(PID.TID 0000.0001) >#
(PID.TID 0000.0001) > &
(PID.TID 0000.0001) >
(PID.TID 0000.0001) ># Parameter for Diagnostics of per level statistics:
(PID.TID 0000.0001) >#-----------------
(PID.TID 0000.0001) ># for each output-stream:
(PID.TID 0000.0001) >#  stat_fname(n) : prefix of the output file name (only 8.c long) for outp.stream n
(PID.TID 0000.0001) >#  stat_freq(n):< 0 : write snap-shot output every |stat_freq| seconds
(PID.TID 0000.0001) >#               > 0 : write time-average output every stat_freq seconds
(PID.TID 0000.0001) >#  stat_phase(n)    : write at time = stat_phase + multiple of |stat_freq|
(PID.TID 0000.0001) >#  stat_region(:,n) : list of "regions" (default: 1 region only=global)
(PID.TID 0000.0001) >#  stat_fields(:,n) : list of diagnostics fields (8.c) (see "available_diagnostics.log"
(PID.TID 0000.0001) >#                 file for the list of all available diag. in this particular config)
(PID.TID 0000.0001) >#-----------------
(PID.TID 0000.0001) > &DIAG_STATIS_PARMS
(PID.TID 0000.0001) >#- an example just to check the agreement with MONITOR output:
(PID.TID 0000.0001) >#stat_fields(1,1)= 'ETAN    ','UVEL    ','VVEL    ','WVEL    ', 'THETA   ',
(PID.TID 0000.0001) >#   stat_fname(1)= 'dynStDiag',
(PID.TID 0000.0001) >#    stat_freq(1)= -36000.,
(PID.TID 0000.0001) >#   stat_phase(1)= 0.,
(PID.TID 0000.0001) > &
(PID.TID 0000.0001) >
(PID.TID 0000.0001) 
(PID.TID 0000.0001) S/R DIAGNOSTICS_READPARMS, read namelist "diagnostics_list": start
(PID.TID 0000.0001) S/R DIAGNOSTICS_READPARMS, read namelist "diagnostics_list": OK
(PID.TID 0000.0001) S/R DIAGNOSTICS_READPARMS, read namelist "DIAG_STATIS_PARMS": start
(PID.TID 0000.0001) S/R DIAGNOSTICS_READPARMS, read namelist "DIAG_STATIS_PARMS": OK
(PID.TID 0000.0001) -----------------------------------------------------
(PID.TID 0000.0001)  DIAGNOSTICS_READPARMS: active diagnostics summary:
(PID.TID 0000.0001) -----------------------------------------------------
(PID.TID 0000.0001) Creating Output Stream: EXFtaux
(PID.TID 0000.0001) Output Frequency:    -36000.000000 ; Phase:      18000.000000
(PID.TID 0000.0001)  Averaging Freq.:         0.000000 , Phase:          0.000000 , Cycle:  1
(PID.TID 0000.0001)  Levels:    will be set later
(PID.TID 0000.0001) Fields:    EXFtaux
(PID.TID 0000.0001) Creating Output Stream: EXFtauy
(PID.TID 0000.0001) Output Frequency:    -36000.000000 ; Phase:      18000.000000
(PID.TID 0000.0001)  Averaging Freq.:         0.000000 , Phase:          0.000000 , Cycle:  1
(PID.TID 0000.0001)  Levels:    will be set later
(PID.TID 0000.0001) Fields:    EXFtauy
(PID.TID 0000.0001) Creating Output Stream: EXFqnet
(PID.TID 0000.0001) Output Frequency:    -36000.000000 ; Phase:      18000.000000
(PID.TID 0000.0001)  Averaging Freq.:         0.000000 , Phase:          0.000000 , Cycle:  1
(PID.TID 0000.0001)  Levels:    will be set later
(PID.TID 0000.0001) Fields:    EXFqnet
(PID.TID 0000.0001) Creating Output Stream: EXFempmr
(PID.TID 0000.0001) Output Frequency:    -36000.000000 ; Phase:      18000.000000
(PID.TID 0000.0001)  Averaging Freq.:         0.000000 , Phase:          0.000000 , Cycle:  1
(PID.TID 0000.0001)  Levels:    will be set later
(PID.TID 0000.0001) Fields:    EXFempmr
(PID.TID 0000.0001) Creating Output Stream: EXFhl
(PID.TID 0000.0001) Output Frequency:    -36000.000000 ; Phase:      18000.000000
(PID.TID 0000.0001)  Averaging Freq.:         0.000000 , Phase:          0.000000 , Cycle:  1
(PID.TID 0000.0001)  Levels:    will be set later
(PID.TID 0000.0001) Fields:    EXFhl
(PID.TID 0000.0001) Creating Output Stream: EXFhs
(PID.TID 0000.0001) Output Frequency:    -36000.000000 ; Phase:      18000.000000
(PID.TID 0000.0001)  Averaging Freq.:         0.000000 , Phase:          0.000000 , Cycle:  1
(PID.TID 0000.0001)  Levels:    will be set later
(PID.TID 0000.0001) Fields:    EXFhs
(PID.TID 0000.0001) Creating Output Stream: EXFswnet
(PID.TID 0000.0001) Output Frequency:    -36000.000000 ; Phase:      18000.000000
(PID.TID 0000.0001)  Averaging Freq.:         0.000000 , Phase:          0.000000 , Cycle:  1
(PID.TID 0000.0001)  Levels:    will be set later
(PID.TID 0000.0001) Fields:    EXFswnet
(PID.TID 0000.0001) Creating Output Stream: EXFlwnet
(PID.TID 0000.0001) Output Frequency:    -36000.000000 ; Phase:      18000.000000
(PID.TID 0000.0001)  Averaging Freq.:         0.000000 , Phase:          0.000000 , Cycle:  1
(PID.TID 0000.0001)  Levels:    will be set later
(PID.TID 0000.0001) Fields:    EXFlwnet
(PID.TID 0000.0001) Creating Output Stream: EXFuwind
(PID.TID 0000.0001) Output Frequency:    -36000.000000 ; Phase:      18000.000000
(PID.TID 0000.0001)  Averaging Freq.:         0.000000 , Phase:          0.000000 , Cycle:  1
(PID.TID 0000.0001)  Levels:    will be set later
(PID.TID 0000.0001) Fields:    EXFuwind
(PID.TID 0000.0001) Creating Output Stream: EXFvwind
(PID.TID 0000.0001) Output Frequency:    -36000.000000 ; Phase:      18000.000000
(PID.TID 0000.0001)  Averaging Freq.:         0.000000 , Phase:          0.000000 , Cycle:  1
(PID.TID 0000.0001)  Levels:    will be set later
(PID.TID 0000.0001) Fields:    EXFvwind
(PID.TID 0000.0001) Creating Output Stream: EXFatemp
(PID.TID 0000.0001) Output Frequency:    -36000.000000 ; Phase:      18000.000000
(PID.TID 0000.0001)  Averaging Freq.:         0.000000 , Phase:          0.000000 , Cycle:  1
(PID.TID 0000.0001)  Levels:    will be set later
(PID.TID 0000.0001) Fields:    EXFatemp
(PID.TID 0000.0001) Creating Output Stream: SIarea
(PID.TID 0000.0001) Output Frequency:     36000.000000 ; Phase:          0.000000
(PID.TID 0000.0001)  Averaging Freq.:     36000.000000 , Phase:          0.000000 , Cycle:  1
(PID.TID 0000.0001)  Levels:    will be set later
(PID.TID 0000.0001) Fields:    SIarea
(PID.TID 0000.0001) Creating Output Stream: SIheff
(PID.TID 0000.0001) Output Frequency:     36000.000000 ; Phase:          0.000000
(PID.TID 0000.0001)  Averaging Freq.:     36000.000000 , Phase:          0.000000 , Cycle:  1
(PID.TID 0000.0001)  Levels:    will be set later
(PID.TID 0000.0001) Fields:    SIheff
(PID.TID 0000.0001) Creating Output Stream: SIhsnow
(PID.TID 0000.0001) Output Frequency:     36000.000000 ; Phase:          0.000000
(PID.TID 0000.0001)  Averaging Freq.:     36000.000000 , Phase:          0.000000 , Cycle:  1
(PID.TID 0000.0001)  Levels:    will be set later
(PID.TID 0000.0001) Fields:    SIhsnow
(PID.TID 0000.0001) Creating Output Stream: SIuice
(PID.TID 0000.0001) Output Frequency:     36000.000000 ; Phase:          0.000000
(PID.TID 0000.0001)  Averaging Freq.:     36000.000000 , Phase:          0.000000 , Cycle:  1
(PID.TID 0000.0001)  Levels:    will be set later
(PID.TID 0000.0001) Fields:    SIuice
(PID.TID 0000.0001) Creating Output Stream: SIvice
(PID.TID 0000.0001) Output Frequency:     36000.000000 ; Phase:          0.000000
(PID.TID 0000.0001)  Averaging Freq.:     36000.000000 , Phase:          0.000000 , Cycle:  1
(PID.TID 0000.0001)  Levels:    will be set later
(PID.TID 0000.0001) Fields:    SIvice
(PID.TID 0000.0001) Creating Output Stream: KPPhbl
(PID.TID 0000.0001) Output Frequency:     36000.000000 ; Phase:          0.000000
(PID.TID 0000.0001)  Averaging Freq.:     36000.000000 , Phase:          0.000000 , Cycle:  1
(PID.TID 0000.0001)  Levels:    will be set later
(PID.TID 0000.0001) Fields:    KPPhbl
(PID.TID 0000.0001) Creating Output Stream: KPPmld
(PID.TID 0000.0001) Output Frequency:     36000.000000 ; Phase:          0.000000
(PID.TID 0000.0001)  Averaging Freq.:     36000.000000 , Phase:          0.000000 , Cycle:  1
(PID.TID 0000.0001)  Levels:    will be set later
(PID.TID 0000.0001) Fields:    KPPmld
(PID.TID 0000.0001) Creating Output Stream: KPPghat
(PID.TID 0000.0001) Output Frequency:     36000.000000 ; Phase:          0.000000
(PID.TID 0000.0001)  Averaging Freq.:     36000.000000 , Phase:          0.000000 , Cycle:  1
(PID.TID 0000.0001)  Levels:    will be set later
(PID.TID 0000.0001) Fields:    KPPghat
(PID.TID 0000.0001) -----------------------------------------------------
(PID.TID 0000.0001)  DIAGNOSTICS_READPARMS: statistics diags. summary:
(PID.TID 0000.0001) -----------------------------------------------------
(PID.TID 0000.0001) 
(PID.TID 0000.0001) SET_PARMS: done
(PID.TID 0000.0001) Enter INI_VERTICAL_GRID: setInterFDr=    T ; setCenterDr=    F
(PID.TID 0000.0001) %MON XC_max                       =   3.1900000000000E+02
(PID.TID 0000.0001) %MON XC_min                       =   2.8100000000000E+02
(PID.TID 0000.0001) %MON XC_mean                      =   3.0000000000000E+02
(PID.TID 0000.0001) %MON XC_sd                        =   1.1532562594671E+01
(PID.TID 0000.0001) %MON XG_max                       =   3.1800000000000E+02
(PID.TID 0000.0001) %MON XG_min                       =   2.8000000000000E+02
(PID.TID 0000.0001) %MON XG_mean                      =   2.9900000000000E+02
(PID.TID 0000.0001) %MON XG_sd                        =   1.1532562594671E+01
(PID.TID 0000.0001) %MON DXC_max                      =   1.5166951523772E+05
(PID.TID 0000.0001) %MON DXC_min                      =   5.0026831972764E+04
(PID.TID 0000.0001) %MON DXC_mean                     =   1.0305926321463E+05
(PID.TID 0000.0001) %MON DXC_sd                       =   3.1375805318756E+04
(PID.TID 0000.0001) %MON DXF_max                      =   1.5166951523772E+05
(PID.TID 0000.0001) %MON DXF_min                      =   5.0026831972764E+04
(PID.TID 0000.0001) %MON DXF_mean                     =   1.0305926321463E+05
(PID.TID 0000.0001) %MON DXF_sd                       =   3.1375805318756E+04
(PID.TID 0000.0001) %MON DXG_max                      =   1.5448497309243E+05
(PID.TID 0000.0001) %MON DXG_min                      =   5.3800974869835E+04
(PID.TID 0000.0001) %MON DXG_mean                     =   1.0642630187324E+05
(PID.TID 0000.0001) %MON DXG_sd                       =   3.1081829200899E+04
(PID.TID 0000.0001) %MON DXV_max                      =   1.5448497309243E+05
(PID.TID 0000.0001) %MON DXV_min                      =   5.3800974869835E+04
(PID.TID 0000.0001) %MON DXV_mean                     =   1.0642630187324E+05
(PID.TID 0000.0001) %MON DXV_sd                       =   3.1081829200899E+04
(PID.TID 0000.0001) %MON YC_max                       =   7.7000000000000E+01
(PID.TID 0000.0001) %MON YC_min                       =   4.7000000000000E+01
(PID.TID 0000.0001) %MON YC_mean                      =   6.2000000000000E+01
(PID.TID 0000.0001) %MON YC_sd                        =   9.2195444572929E+00
(PID.TID 0000.0001) %MON YG_max                       =   7.6000000000000E+01
(PID.TID 0000.0001) %MON YG_min                       =   4.6000000000000E+01
(PID.TID 0000.0001) %MON YG_mean                      =   6.1000000000000E+01
(PID.TID 0000.0001) %MON YG_sd                        =   9.2195444572929E+00
(PID.TID 0000.0001) %MON DYC_max                      =   2.2238985328912E+05
(PID.TID 0000.0001) %MON DYC_min                      =   2.2238985328912E+05
(PID.TID 0000.0001) %MON DYC_mean                     =   2.2238985328912E+05
(PID.TID 0000.0001) %MON DYC_sd                       =   3.7834979593754E-10
(PID.TID 0000.0001) %MON DYF_max                      =   2.2238985328912E+05
(PID.TID 0000.0001) %MON DYF_min                      =   2.2238985328912E+05
(PID.TID 0000.0001) %MON DYF_mean                     =   2.2238985328912E+05
(PID.TID 0000.0001) %MON DYF_sd                       =   3.7834979593754E-10
(PID.TID 0000.0001) %MON DYG_max                      =   2.2238985328912E+05
(PID.TID 0000.0001) %MON DYG_min                      =   2.2238985328912E+05
(PID.TID 0000.0001) %MON DYG_mean                     =   2.2238985328912E+05
(PID.TID 0000.0001) %MON DYG_sd                       =   3.7834979593754E-10
(PID.TID 0000.0001) %MON DYU_max                      =   2.2238985328912E+05
(PID.TID 0000.0001) %MON DYU_min                      =   2.2238985328912E+05
(PID.TID 0000.0001) %MON DYU_mean                     =   2.2238985328912E+05
(PID.TID 0000.0001) %MON DYU_sd                       =   3.7834979593754E-10
(PID.TID 0000.0001) %MON RA_max                       =   3.3728048822756E+10
(PID.TID 0000.0001) %MON RA_min                       =   1.1124894996734E+10
(PID.TID 0000.0001) %MON RA_mean                      =   2.2918170839356E+10
(PID.TID 0000.0001) %MON RA_sd                        =   6.9773064942263E+09
(PID.TID 0000.0001) %MON RAW_max                      =   3.3728048822756E+10
(PID.TID 0000.0001) %MON RAW_min                      =   1.1124894996734E+10
(PID.TID 0000.0001) %MON RAW_mean                     =   2.2918170839356E+10
(PID.TID 0000.0001) %MON RAW_sd                       =   6.9773064942263E+09
(PID.TID 0000.0001) %MON RAS_max                      =   3.4354146294179E+10
(PID.TID 0000.0001) %MON RAS_min                      =   1.1964183470077E+10
(PID.TID 0000.0001) %MON RAS_mean                     =   2.3666928057229E+10
(PID.TID 0000.0001) %MON RAS_sd                       =   6.9119325076329E+09
(PID.TID 0000.0001) %MON RAZ_max                      =   3.4354146294179E+10
(PID.TID 0000.0001) %MON RAZ_min                      =   1.1964183470077E+10
(PID.TID 0000.0001) %MON RAZ_mean                     =   2.3666928057229E+10
(PID.TID 0000.0001) %MON RAZ_sd                       =   6.9119325076329E+09
(PID.TID 0000.0001) %MON AngleCS_max                  =   1.0000000000000E+00
(PID.TID 0000.0001) %MON AngleCS_min                  =   1.0000000000000E+00
(PID.TID 0000.0001) %MON AngleCS_mean                 =   1.0000000000000E+00
(PID.TID 0000.0001) %MON AngleCS_sd                   =   0.0000000000000E+00
(PID.TID 0000.0001) %MON AngleSN_max                  =   0.0000000000000E+00
(PID.TID 0000.0001) %MON AngleSN_min                  =   0.0000000000000E+00
(PID.TID 0000.0001) %MON AngleSN_mean                 =   0.0000000000000E+00
(PID.TID 0000.0001) %MON AngleSN_sd                   =   0.0000000000000E+00
(PID.TID 0000.0001)  MDS_READ_FIELD: opening global file: bathy.labsea1979
(PID.TID 0000.0001) // =======================================================
(PID.TID 0000.0001) // Field Model R_low (ini_masks_etc) at iteration          1
(PID.TID 0000.0001) // CMIN =         -4.200000000000000E+03
(PID.TID 0000.0001) // CMAX =         -5.500000000000000E+01
(PID.TID 0000.0001) // CINT =          1.535185185185185E+02
(PID.TID 0000.0001) // SYMBOLS (CMIN->CMAX): -abcdefghijklmnopqrstuvwxyz+
(PID.TID 0000.0001) //                  0.0: .
(PID.TID 0000.0001) // RANGE I (Lo:Hi:Step):(  -2:  23:   1)
(PID.TID 0000.0001) // RANGE J (Lo:Hi:Step):(  19:  -2:  -1)
(PID.TID 0000.0001) // RANGE K (Lo:Hi:Step):(   1:   1:   1)
(PID.TID 0000.0001) // =======================================================
(PID.TID 0000.0001) K =   1
(PID.TID 0000.0001) //                I=7       I=11      I=21
(PID.TID 0000.0001) // |--J--|210123456|890123890|234567890|23
(PID.TID 0000.0001) //     19 cc-..........+.z...+.zzxmgcc-...
(PID.TID 0000.0001) //     18 jc-.......+zzz..+zzz..zzsmjc-...
(PID.TID 0000.0001) //     17 wc-........++z++.++z+++z+wwc-...
(PID.TID 0000.0001) //     16 ....zyyz......................zy
(PID.TID 0000.0001) //     15 ...yxwwuspxyxz..xyxz.........yxw
(PID.TID 0000.0001) //     14 ....+wwspppsxzz.psxzz.........+w
(PID.TID 0000.0001) //     13 .......zwsppsyz.ppsyz...........
(PID.TID 0000.0001) //     12 .........+ypswzzypswzz+.........
(PID.TID 0000.0001) //     11 ...........+wwy+.+wwy+..........
(PID.TID 0000.0001) //     10 ..........zzzywyzzzywy+.........
(PID.TID 0000.0001) //      9 ..z.......+zxsmm+zxsmmm+....z...
(PID.TID 0000.0001) //      8 ..s.....zzzxumjjzxumjjjjuz..s...
(PID.TID 0000.0001) //      7 pmj......z.+zmjg.+zmjggggjpmj...
(PID.TID 0000.0001) //      6 ggg.........zxmj..zxmjggggggg...
(PID.TID 0000.0001) //      5 ggg..........zzs...zzsjgggggg...
(PID.TID 0000.0001) //      4 ccg............z.....zzmgcccg...
(PID.TID 0000.0001) //      3 cc-..........+.z...+.zzxmgcc-...
(PID.TID 0000.0001) //      2 jc-.......+zzz..+zzz..zzsmjc-...
(PID.TID 0000.0001) //      1 wc-........++z++.++z+++z+wwc-...
(PID.TID 0000.0001) //      0 ....zyyz......................zy
(PID.TID 0000.0001) //     -1 ...yxwwuspxyxz..xyxz.........yxw
(PID.TID 0000.0001) //     -2 ....+wwspppsxzz.psxzz.........+w
(PID.TID 0000.0001) // =======================================================
(PID.TID 0000.0001) // END OF FIELD                                          =
(PID.TID 0000.0001) // =======================================================
(PID.TID 0000.0001) 
(PID.TID 0000.0001) // =======================================================
(PID.TID 0000.0001) // Field Model Ro_surf (ini_masks_etc) at iteration          1
(PID.TID 0000.0001) // CMIN =          1.000000000000000E+32
(PID.TID 0000.0001) // CMAX =         -1.000000000000000E+32
(PID.TID 0000.0001) // CINT =          0.000000000000000E+00
(PID.TID 0000.0001) // SYMBOLS (CMIN->CMAX): -abcdefghijklmnopqrstuvwxyz+
(PID.TID 0000.0001) //                  0.0: .
(PID.TID 0000.0001) // RANGE I (Lo:Hi:Step):(  -2:  23:   1)
(PID.TID 0000.0001) // RANGE J (Lo:Hi:Step):(  19:  -2:  -1)
(PID.TID 0000.0001) // RANGE K (Lo:Hi:Step):(   1:   1:   1)
(PID.TID 0000.0001) // =======================================================
(PID.TID 0000.0001) // =======================================================
(PID.TID 0000.0001) // END OF FIELD                                          =
(PID.TID 0000.0001) // =======================================================
(PID.TID 0000.0001) 
(PID.TID 0000.0001) // =======================================================
(PID.TID 0000.0001) // Field hFacC at iteration          1
(PID.TID 0000.0001) // CMIN =          1.000000000000000E+00
(PID.TID 0000.0001) // CMAX =          1.000000000000000E+00
(PID.TID 0000.0001) // CINT =          0.000000000000000E+00
(PID.TID 0000.0001) // SYMBOLS (CMIN->CMAX): -abcdefghijklmnopqrstuvwxyz+
(PID.TID 0000.0001) //                  0.0: .
(PID.TID 0000.0001) // RANGE I (Lo:Hi:Step):(  -2:  23:   1)
(PID.TID 0000.0001) // RANGE J (Lo:Hi:Step):(  19:  -2:  -1)
(PID.TID 0000.0001) // RANGE K (Lo:Hi:Step):(   1:   1:   1)
(PID.TID 0000.0001) // =======================================================
(PID.TID 0000.0001) // =======================================================
(PID.TID 0000.0001) // END OF FIELD                                          =
(PID.TID 0000.0001) // =======================================================
(PID.TID 0000.0001) 
(PID.TID 0000.0001) // =======================================================
(PID.TID 0000.0001) // Field hFacW at iteration          1
(PID.TID 0000.0001) // CMIN =          1.000000000000000E+00
(PID.TID 0000.0001) // CMAX =          1.000000000000000E+00
(PID.TID 0000.0001) // CINT =          0.000000000000000E+00
(PID.TID 0000.0001) // SYMBOLS (CMIN->CMAX): -abcdefghijklmnopqrstuvwxyz+
(PID.TID 0000.0001) //                  0.0: .
(PID.TID 0000.0001) // RANGE I (Lo:Hi:Step):(  -2:  23:   1)
(PID.TID 0000.0001) // RANGE J (Lo:Hi:Step):(  19:  -2:  -1)
(PID.TID 0000.0001) // RANGE K (Lo:Hi:Step):(   1:   1:   1)
(PID.TID 0000.0001) // =======================================================
(PID.TID 0000.0001) // =======================================================
(PID.TID 0000.0001) // END OF FIELD                                          =
(PID.TID 0000.0001) // =======================================================
(PID.TID 0000.0001) 
(PID.TID 0000.0001) // =======================================================
(PID.TID 0000.0001) // Field hFacS at iteration          1
(PID.TID 0000.0001) // CMIN =          1.000000000000000E+00
(PID.TID 0000.0001) // CMAX =          1.000000000000000E+00
(PID.TID 0000.0001) // CINT =          0.000000000000000E+00
(PID.TID 0000.0001) // SYMBOLS (CMIN->CMAX): -abcdefghijklmnopqrstuvwxyz+
(PID.TID 0000.0001) //                  0.0: .
(PID.TID 0000.0001) // RANGE I (Lo:Hi:Step):(  -2:  23:   1)
(PID.TID 0000.0001) // RANGE J (Lo:Hi:Step):(  19:  -2:  -1)
(PID.TID 0000.0001) // RANGE K (Lo:Hi:Step):(   1:   1:   1)
(PID.TID 0000.0001) // =======================================================
(PID.TID 0000.0001) // =======================================================
(PID.TID 0000.0001) // END OF FIELD                                          =
(PID.TID 0000.0001) // =======================================================
(PID.TID 0000.0001) 
(PID.TID 0000.0001) 
(PID.TID 0000.0001) // ===================================
(PID.TID 0000.0001) // GAD parameters :
(PID.TID 0000.0001) // ===================================
(PID.TID 0000.0001) tempAdvScheme =   /* Temp. Horiz.Advection scheme selector */
(PID.TID 0000.0001)                       2
(PID.TID 0000.0001)     ;
(PID.TID 0000.0001) tempVertAdvScheme =   /* Temp. Vert. Advection scheme selector */
(PID.TID 0000.0001)                       2
(PID.TID 0000.0001)     ;
(PID.TID 0000.0001) tempMultiDimAdvec =   /* use Muti-Dim Advec method for Temp */
(PID.TID 0000.0001)                   F
(PID.TID 0000.0001)     ;
(PID.TID 0000.0001) tempSOM_Advection = /* use 2nd Order Moment Advection for Temp */
(PID.TID 0000.0001)                   F
(PID.TID 0000.0001)     ;
(PID.TID 0000.0001) AdamsBashforthGt = /* apply Adams-Bashforth extrapolation on Gt */
(PID.TID 0000.0001)                   T
(PID.TID 0000.0001)     ;
(PID.TID 0000.0001) AdamsBashforth_T = /* apply Adams-Bashforth extrapolation on Temp */
(PID.TID 0000.0001)                   F
(PID.TID 0000.0001)     ;
(PID.TID 0000.0001) saltAdvScheme =   /* Salt. Horiz.advection scheme selector */
(PID.TID 0000.0001)                       2
(PID.TID 0000.0001)     ;
(PID.TID 0000.0001) saltVertAdvScheme =   /* Salt. Vert. Advection scheme selector */
(PID.TID 0000.0001)                       2
(PID.TID 0000.0001)     ;
(PID.TID 0000.0001) saltMultiDimAdvec =   /* use Muti-Dim Advec method for Salt */
(PID.TID 0000.0001)                   F
(PID.TID 0000.0001)     ;
(PID.TID 0000.0001) saltSOM_Advection = /* use 2nd Order Moment Advection for Salt */
(PID.TID 0000.0001)                   F
(PID.TID 0000.0001)     ;
(PID.TID 0000.0001) AdamsBashforthGs = /* apply Adams-Bashforth extrapolation on Gs */
(PID.TID 0000.0001)                   T
(PID.TID 0000.0001)     ;
(PID.TID 0000.0001) AdamsBashforth_S = /* apply Adams-Bashforth extrapolation on Salt */
(PID.TID 0000.0001)                   F
(PID.TID 0000.0001)     ;
(PID.TID 0000.0001) // ===================================
(PID.TID 0000.0001) 
(PID.TID 0000.0001) // =======================================================
(PID.TID 0000.0001) // External forcing configuration >>> START <<<
(PID.TID 0000.0001) // =======================================================
(PID.TID 0000.0001) 
(PID.TID 0000.0001)  EXF general parameters:
(PID.TID 0000.0001) 
(PID.TID 0000.0001) exf_yftype =  /* ? */
(PID.TID 0000.0001)               'RL'
(PID.TID 0000.0001)     ;
(PID.TID 0000.0001) exf_iprec = /* exf file precision */
(PID.TID 0000.0001)                      32
(PID.TID 0000.0001)     ;
(PID.TID 0000.0001) useExfYearlyFields = /* add extension _YEAR to input file names */
(PID.TID 0000.0001)                   F
(PID.TID 0000.0001)     ;
(PID.TID 0000.0001) twoDigitYear = /* use 2-digit year extension */
(PID.TID 0000.0001)                   F
(PID.TID 0000.0001)     ;
(PID.TID 0000.0001) useExfCheckRange = /* check for fields range */
(PID.TID 0000.0001)                   T
(PID.TID 0000.0001)     ;
(PID.TID 0000.0001) exf_monFreq = /* EXF monitor frequency [ s ] */
(PID.TID 0000.0001)                 1.000000000000000E+00
(PID.TID 0000.0001)     ;
(PID.TID 0000.0001) repeatPeriod = /* period for cycling forcing dataset [ s ] */
(PID.TID 0000.0001)                 3.162240000000000E+07
(PID.TID 0000.0001)     ;
(PID.TID 0000.0001) climTempFreeze= /* Minimum climatological temperature [deg.C] */
(PID.TID 0000.0001)                -1.900000000000000E+00
(PID.TID 0000.0001)     ;
(PID.TID 0000.0001) windStressMax = /* Maximum absolute windstress [ Pa ] */
(PID.TID 0000.0001)                 2.000000000000000E+00
(PID.TID 0000.0001)     ;
(PID.TID 0000.0001) stressIsOnCgrid = /* set u,v_stress on Arakawa C-grid */
(PID.TID 0000.0001)                   F
(PID.TID 0000.0001)     ;
(PID.TID 0000.0001) cen2kel = /* conversion of deg. Centigrade to Kelvin [K] */
(PID.TID 0000.0001)                 2.731500000000000E+02
(PID.TID 0000.0001)     ;
(PID.TID 0000.0001) gravity_mks= /* gravitational acceleration [m/s^2] */
(PID.TID 0000.0001)                 9.810000000000000E+00
(PID.TID 0000.0001)     ;
(PID.TID 0000.0001) atmrho =  /* mean atmospheric density [kg/m^3] */
(PID.TID 0000.0001)                 1.200000000000000E+00
(PID.TID 0000.0001)     ;
(PID.TID 0000.0001) atmcp =  /* mean atmospheric specific heat [J/kg/K] */
(PID.TID 0000.0001)                 1.005000000000000E+03
(PID.TID 0000.0001)     ;
(PID.TID 0000.0001) flamb =  /* latent heat of evaporation [J/kg] */
(PID.TID 0000.0001)                 2.500000000000000E+06
(PID.TID 0000.0001)     ;
(PID.TID 0000.0001) flami =  /* latent heat of pure-ice melting [J/kg] */
(PID.TID 0000.0001)                 3.340000000000000E+05
(PID.TID 0000.0001)     ;
(PID.TID 0000.0001) cvapor_fac = /* const. for Saturation calculation [?] */
(PID.TID 0000.0001)                 6.403800000000000E+05
(PID.TID 0000.0001)     ;
(PID.TID 0000.0001) cvapor_exp = /* const. for Saturation calculation [?] */
(PID.TID 0000.0001)                 5.107400000000000E+03
(PID.TID 0000.0001)     ;
(PID.TID 0000.0001) cvapor_fac_ice= /* const. for Saturation calculation [?] */
(PID.TID 0000.0001)                 1.163780000000000E+07
(PID.TID 0000.0001)     ;
(PID.TID 0000.0001) cvapor_exp_ice= /* const. for Saturation calculation [?] */
(PID.TID 0000.0001)                 5.897800000000000E+03
(PID.TID 0000.0001)     ;
(PID.TID 0000.0001) humid_fac = /* humidity coef. in virtual temp. [(kg/kg)^-1] */
(PID.TID 0000.0001)                 6.060000000000000E-01
(PID.TID 0000.0001)     ;
(PID.TID 0000.0001) gamma_blk = /* adiabatic lapse rate [?] */
(PID.TID 0000.0001)                 1.000000000000000E-02
(PID.TID 0000.0001)     ;
(PID.TID 0000.0001) saltsat = /* reduction of Qsat over salty water [-] */
(PID.TID 0000.0001)                 9.800000000000000E-01
(PID.TID 0000.0001)     ;
(PID.TID 0000.0001) cDrag_1 = /* coef used in drag calculation [?] */
(PID.TID 0000.0001)                 2.700000000000000E-03
(PID.TID 0000.0001)     ;
(PID.TID 0000.0001) cDrag_2 = /* coef used in drag calculation [?] */
(PID.TID 0000.0001)                 1.420000000000000E-04
(PID.TID 0000.0001)     ;
(PID.TID 0000.0001) cDrag_3 = /* coef used in drag calculation [?] */
(PID.TID 0000.0001)                 7.640000000000000E-05
(PID.TID 0000.0001)     ;
(PID.TID 0000.0001) cStanton_1 = /* coef used in Stanton number calculation [?] */
(PID.TID 0000.0001)                 3.270000000000000E-02
(PID.TID 0000.0001)     ;
(PID.TID 0000.0001) cStanton_2 = /* coef used in Stanton number calculation [?] */
(PID.TID 0000.0001)                 1.800000000000000E-02
(PID.TID 0000.0001)     ;
(PID.TID 0000.0001) cDalton = /* coef used in Dalton number calculation [?] */
(PID.TID 0000.0001)                 3.460000000000000E-02
(PID.TID 0000.0001)     ;
(PID.TID 0000.0001) exf_scal_BulkCdn= /* Drag coefficient scaling factor [-] */
(PID.TID 0000.0001)                 1.000000000000000E+00
(PID.TID 0000.0001)     ;
(PID.TID 0000.0001) zolmin = /* minimum stability parameter [?] */
(PID.TID 0000.0001)                -1.000000000000000E+02
(PID.TID 0000.0001)     ;
(PID.TID 0000.0001) psim_fac = /* coef used in turbulent fluxes calculation [-] */
(PID.TID 0000.0001)                 5.000000000000000E+00
(PID.TID 0000.0001)     ;
(PID.TID 0000.0001) zref =  /* reference height [ m ] */
(PID.TID 0000.0001)                 1.000000000000000E+01
(PID.TID 0000.0001)     ;
(PID.TID 0000.0001) hu =  /* height of mean wind [ m ] */
(PID.TID 0000.0001)                 1.000000000000000E+01
(PID.TID 0000.0001)     ;
(PID.TID 0000.0001) ht =  /* height of mean temperature [ m ] */
(PID.TID 0000.0001)                 2.000000000000000E+00
(PID.TID 0000.0001)     ;
(PID.TID 0000.0001) hq =  /* height of mean spec.humidity [ m ] */
(PID.TID 0000.0001)                 2.000000000000000E+00
(PID.TID 0000.0001)     ;
(PID.TID 0000.0001) uMin = /* minimum wind speed [m/s] */
(PID.TID 0000.0001)                 5.000000000000000E-01
(PID.TID 0000.0001)     ;
(PID.TID 0000.0001) useStabilityFct_overIce= /* transfert Coeffs over sea-ice depend on stability */
(PID.TID 0000.0001)                   F
(PID.TID 0000.0001)     ;
(PID.TID 0000.0001) exf_iceCd = /* drag coefficient over sea-ice (fixed) [-] */
(PID.TID 0000.0001)                 1.630000000000000E-03
(PID.TID 0000.0001)     ;
(PID.TID 0000.0001) exf_iceCe = /* transfert coeff. over sea-ice, for Evap (fixed) [-] */
(PID.TID 0000.0001)                 1.630000000000000E-03
(PID.TID 0000.0001)     ;
(PID.TID 0000.0001) exf_iceCh = /* transfert coeff. over sea-ice, Sens.Heat.(fixed)[-] */
(PID.TID 0000.0001)                 1.630000000000000E-03
(PID.TID 0000.0001)     ;
(PID.TID 0000.0001) exf_albedo =  /* Sea-water albedo [-] */
(PID.TID 0000.0001)                 1.000000000000000E-01
(PID.TID 0000.0001)     ;
(PID.TID 0000.0001) ocean_emissivity = /* longwave ocean-surface emissivity [-] */
(PID.TID 0000.0001)                 9.700176366843034E-01
(PID.TID 0000.0001)     ;
(PID.TID 0000.0001) ice_emissivity = /* longwave seaice emissivity [-] */
(PID.TID 0000.0001)                 9.500000000000000E-01
(PID.TID 0000.0001)     ;
(PID.TID 0000.0001) snow_emissivity = /* longwave snow  emissivity [-] */
(PID.TID 0000.0001)                 9.500000000000000E-01
(PID.TID 0000.0001)     ;
(PID.TID 0000.0001) 
(PID.TID 0000.0001)  EXF main CPP flags:
(PID.TID 0000.0001) 
(PID.TID 0000.0001) // ALLOW_ATM_TEMP:                     defined
(PID.TID 0000.0001) // ALLOW_ATM_WIND:                     defined
(PID.TID 0000.0001) // ALLOW_DOWNWARD_RADIATION:           defined
(PID.TID 0000.0001) // ALLOW_BULKFORMULAE:                 defined
(PID.TID 0000.0001) 
(PID.TID 0000.0001)    Net shortwave flux forcing starts at                0.
(PID.TID 0000.0001)    Net shortwave flux forcing period is          2635200.
(PID.TID 0000.0001)    Net shortwave flux forcing is read from file:
(PID.TID 0000.0001)    >>    <<
(PID.TID 0000.0001) 
(PID.TID 0000.0001)    Zonal wind forcing starts at                   -1317600.
(PID.TID 0000.0001)    Zonal wind forcing period is                    2635200.
(PID.TID 0000.0001)    Zonal wind forcing is read from file:
(PID.TID 0000.0001)    >>  u10m.labsea1979  <<
(PID.TID 0000.0001) 
(PID.TID 0000.0001)    Meridional wind forcing starts at              -1317600.
(PID.TID 0000.0001)    Meridional wind forcing period is               2635200.
(PID.TID 0000.0001)    Meridional wind forcing is read from file:
(PID.TID 0000.0001)    >>  v10m.labsea1979  <<
(PID.TID 0000.0001) 
(PID.TID 0000.0001)    Atmospheric temperature starts at              -1317600.
(PID.TID 0000.0001)    Atmospheric temperature period is               2635200.
(PID.TID 0000.0001)    Atmospheric temperature is read from file:
(PID.TID 0000.0001)    >>  tair.labsea1979  <<
(PID.TID 0000.0001) 
(PID.TID 0000.0001)    Atmospheric specific humidity starts at        -1317600.
(PID.TID 0000.0001)    Atmospheric specific humidity period is         2635200.
(PID.TID 0000.0001)    Atmospheric specific humidity is read from file:
(PID.TID 0000.0001)    >>  qa.labsea1979  <<
(PID.TID 0000.0001) 
(PID.TID 0000.0001)    Net longwave flux forcing starts at                 0.
(PID.TID 0000.0001)    Net longwave flux forcing period is           2635200.
(PID.TID 0000.0001)    Net longwave flux forcing is read from file:
(PID.TID 0000.0001)    >>    <<
(PID.TID 0000.0001) 
(PID.TID 0000.0001)    Precipitation data set starts at               -1317600.
(PID.TID 0000.0001)    Precipitation data period is                    2635200.
(PID.TID 0000.0001)    Precipitation data is read from file:
(PID.TID 0000.0001)    >>  prate.labsea1979  <<
(PID.TID 0000.0001) 
(PID.TID 0000.0001) // EXF_READ_EVAP:                  NOT defined
(PID.TID 0000.0001) 
(PID.TID 0000.0001) // ALLOW_RUNOFF:                       defined
(PID.TID 0000.0001)    Runnoff starts at               0.
(PID.TID 0000.0001)    Runoff period is               0.
(PID.TID 0000.0001)    Runoff is read from file:
(PID.TID 0000.0001)    >>    <<
(PID.TID 0000.0001) 
(PID.TID 0000.0001)    Atmospheric pressure forcing starts at                0.
(PID.TID 0000.0001)    Atmospheric pressure forcing period is                0.
(PID.TID 0000.0001)    Atmospheric pressureforcing is read from file:
(PID.TID 0000.0001)    >>    <<
(PID.TID 0000.0001) 
(PID.TID 0000.0001) // =======================================================
(PID.TID 0000.0001) // External forcing configuration  >>> END <<<
(PID.TID 0000.0001) // =======================================================
(PID.TID 0000.0001) 
(PID.TID 0000.0001) 
(PID.TID 0000.0001) // =======================================================
(PID.TID 0000.0001) // External forcing climatology configuration >>> START <<<
(PID.TID 0000.0001) // =======================================================
(PID.TID 0000.0001) 
(PID.TID 0000.0001) // ALLOW_CLIMSST_RELAXATION:           defined
(PID.TID 0000.0001) // ALLOW_CLIMSSS_RELAXATION:           defined
(PID.TID 0000.0001) 
(PID.TID 0000.0001)    Climatological SST starts at                   0.
(PID.TID 0000.0001)    Climatological SST period is             2635200.
(PID.TID 0000.0001)    Climatological SST is read from file:
(PID.TID 0000.0001)    >>    <<
(PID.TID 0000.0001) 
(PID.TID 0000.0001)    Climatological SSS starts at            -1317600.
(PID.TID 0000.0001)    Climatological SSS period is             2635200.
(PID.TID 0000.0001)    Climatological SSS is read from file:
(PID.TID 0000.0001)    >>  SSS_monthly.labsea1979  <<
(PID.TID 0000.0001) 
(PID.TID 0000.0001) // =======================================================
(PID.TID 0000.0001) // External forcing climatology configuration  >>> END <<<
(PID.TID 0000.0001) // =======================================================
(PID.TID 0000.0001) 
(PID.TID 0000.0001) ------------------------------------------------------------
(PID.TID 0000.0001) DIAGNOSTICS_SET_LEVELS: done
(PID.TID 0000.0001)  Total Nb of available Diagnostics: ndiagt= 226
(PID.TID 0000.0001)  write list of available Diagnostics to file: available_diagnostics.log
(PID.TID 0000.0001) SETDIAG: Allocate  1 x  1 Levels for Diagnostic # 176 EXFtaux
(PID.TID 0000.0001) SETDIAG: Allocate  1 x  1 Levels for Diagnostic # 177 EXFtauy
(PID.TID 0000.0001) SETDIAG: Allocate  1 x  1 Levels for Diagnostic # 175 EXFqnet
(PID.TID 0000.0001) SETDIAG: Allocate  1 x  1 Levels for Diagnostic # 186 EXFempmr
(PID.TID 0000.0001) SETDIAG: Allocate  1 x  1 Levels for Diagnostic # 170 EXFhl
(PID.TID 0000.0001) SETDIAG: Allocate  1 x  1 Levels for Diagnostic # 169 EXFhs
(PID.TID 0000.0001) SETDIAG: Allocate  1 x  1 Levels for Diagnostic # 172 EXFswnet
(PID.TID 0000.0001) SETDIAG: Allocate  1 x  1 Levels for Diagnostic # 171 EXFlwnet
(PID.TID 0000.0001) SETDIAG: Allocate  1 x  1 Levels for Diagnostic # 178 EXFuwind
(PID.TID 0000.0001) SETDIAG: Allocate  1 x  1 Levels for Diagnostic # 179 EXFvwind
(PID.TID 0000.0001) SETDIAG: Allocate  1 x  1 Levels for Diagnostic # 181 EXFatemp
(PID.TID 0000.0001) SETDIAG: Allocate  1 x  1 Levels for Diagnostic # 209 SIarea
(PID.TID 0000.0001) SETDIAG: Allocate  1 x  1 Levels for Diagnostic # 210 SIheff
(PID.TID 0000.0001) SETDIAG: Allocate  1 x  1 Levels for Diagnostic # 213 SIhsnow
(PID.TID 0000.0001) SETDIAG: Allocate  1 x  1 Levels for Diagnostic # 211 SIuice
(PID.TID 0000.0001) SETDIAG: Allocate  1 x  1 Levels for Diagnostic # 212 SIvice
(PID.TID 0000.0001) SETDIAG: Allocate  1 x  1 Levels for Diagnostic # 206 KPPhbl
(PID.TID 0000.0001) SETDIAG: Allocate  1 x  1 Levels for Diagnostic # 207 KPPmld
(PID.TID 0000.0001) SETDIAG: Allocate 23 x  1 Levels for Diagnostic # 205 KPPghat
(PID.TID 0000.0001)   space allocated for all diagnostics:    41 levels
(PID.TID 0000.0001) DIAGNOSTICS_SET_POINTERS: Set levels for Outp.Stream: EXFtaux
(PID.TID 0000.0001)  Levels:       1.
(PID.TID 0000.0001) DIAGNOSTICS_SET_POINTERS: Set levels for Outp.Stream: EXFtauy
(PID.TID 0000.0001)  Levels:       1.
(PID.TID 0000.0001) DIAGNOSTICS_SET_POINTERS: Set levels for Outp.Stream: EXFqnet
(PID.TID 0000.0001)  Levels:       1.
(PID.TID 0000.0001) DIAGNOSTICS_SET_POINTERS: Set levels for Outp.Stream: EXFempmr
(PID.TID 0000.0001)  Levels:       1.
(PID.TID 0000.0001) DIAGNOSTICS_SET_POINTERS: Set levels for Outp.Stream: EXFhl
(PID.TID 0000.0001)  Levels:       1.
(PID.TID 0000.0001) DIAGNOSTICS_SET_POINTERS: Set levels for Outp.Stream: EXFhs
(PID.TID 0000.0001)  Levels:       1.
(PID.TID 0000.0001) DIAGNOSTICS_SET_POINTERS: Set levels for Outp.Stream: EXFswnet
(PID.TID 0000.0001)  Levels:       1.
(PID.TID 0000.0001) DIAGNOSTICS_SET_POINTERS: Set levels for Outp.Stream: EXFlwnet
(PID.TID 0000.0001)  Levels:       1.
(PID.TID 0000.0001) DIAGNOSTICS_SET_POINTERS: Set levels for Outp.Stream: EXFuwind
(PID.TID 0000.0001)  Levels:       1.
(PID.TID 0000.0001) DIAGNOSTICS_SET_POINTERS: Set levels for Outp.Stream: EXFvwind
(PID.TID 0000.0001)  Levels:       1.
(PID.TID 0000.0001) DIAGNOSTICS_SET_POINTERS: Set levels for Outp.Stream: EXFatemp
(PID.TID 0000.0001)  Levels:       1.
(PID.TID 0000.0001) DIAGNOSTICS_SET_POINTERS: Set levels for Outp.Stream: SIarea
(PID.TID 0000.0001)  Levels:       1.
(PID.TID 0000.0001) DIAGNOSTICS_SET_POINTERS: Set levels for Outp.Stream: SIheff
(PID.TID 0000.0001)  Levels:       1.
(PID.TID 0000.0001) DIAGNOSTICS_SET_POINTERS: Set levels for Outp.Stream: SIhsnow
(PID.TID 0000.0001)  Levels:       1.
(PID.TID 0000.0001) DIAGNOSTICS_SET_POINTERS: Set levels for Outp.Stream: SIuice
(PID.TID 0000.0001)  Levels:       1.
(PID.TID 0000.0001) DIAGNOSTICS_SET_POINTERS: Set levels for Outp.Stream: SIvice
(PID.TID 0000.0001)  Levels:       1.
(PID.TID 0000.0001) DIAGNOSTICS_SET_POINTERS: Set levels for Outp.Stream: KPPhbl
(PID.TID 0000.0001)  Levels:       1.
(PID.TID 0000.0001) DIAGNOSTICS_SET_POINTERS: Set levels for Outp.Stream: KPPmld
(PID.TID 0000.0001)  Levels:       1.
(PID.TID 0000.0001) DIAGNOSTICS_SET_POINTERS: Set levels for Outp.Stream: KPPghat
(PID.TID 0000.0001)  Levels:       1.   2.   3.   4.   5.   6.   7.   8.   9.  10.  11.  12.  13.  14.  15.  16.  17.  18.  19.  20.
(PID.TID 0000.0001)  Levels:      21.  22.  23.
(PID.TID 0000.0001) DIAGNOSTICS_SET_POINTERS: done
(PID.TID 0000.0001) ------------------------------------------------------------
(PID.TID 0000.0001) DIAGSTATS_SET_REGIONS: define no region
(PID.TID 0000.0001) ------------------------------------------------------------
(PID.TID 0000.0001)   space allocated for all stats-diags:     0 levels
(PID.TID 0000.0001) DIAGSTATS_SET_POINTERS: done
(PID.TID 0000.0001) ------------------------------------------------------------
(PID.TID 0000.0001) GAD_CHECK: #define ALLOW_GENERIC_ADVDIFF
(PID.TID 0000.0001) KPP_CHECK: #define ALLOW_KPP
(PID.TID 0000.0001) GMREDI_CHECK: #define GMREDI
(PID.TID 0000.0001) GM_AdvForm =  /* if FALSE => use SkewFlux Form */
(PID.TID 0000.0001)                   F
(PID.TID 0000.0001)     ;
(PID.TID 0000.0001) GM_AdvSeparate = /* Calc Bolus & Euler Adv. separately */
(PID.TID 0000.0001)                   F
(PID.TID 0000.0001)     ;
(PID.TID 0000.0001) GM_ExtraDiag =  /* Tensor Extra Diag (line 1&2) non 0 */
(PID.TID 0000.0001)                   F
(PID.TID 0000.0001)     ;
(PID.TID 0000.0001) GM_isopycK =   /* Background Isopyc. Diffusivity ( m^2/s ) */
(PID.TID 0000.0001)                 5.710000000000000E+02
(PID.TID 0000.0001)     ;
(PID.TID 0000.0001)  GM_skewflx*K =   /* Background GM_SkewFlx Diffusivity ( m^2/s ) */
(PID.TID 0000.0001)                 5.710000000000000E+02
(PID.TID 0000.0001)     ;
(PID.TID 0000.0001)  GM_advec*K =   /* Backg. GM-Advec(=Bolus) Diffusivity ( m^2/s ) */
(PID.TID 0000.0001)                 0.000000000000000E+00
(PID.TID 0000.0001)     ;
(PID.TID 0000.0001)  GM_Visbeck_alpha =   /* Visbeck alpha coeff. ( ) */
(PID.TID 0000.0001)                 0.000000000000000E+00
(PID.TID 0000.0001)     ;
(PID.TID 0000.0001)  Tapering/Cliping : ldd97
(PID.TID 0000.0001)  GM_Small_Number =  /* epsilon used in slope calc */
(PID.TID 0000.0001)                 1.000000000000000E-12
(PID.TID 0000.0001)     ;
(PID.TID 0000.0001)  GM_slopeSqCutoff =  /* Slope^2 cut-off value */
(PID.TID 0000.0001)                 1.000000000000000E+48
(PID.TID 0000.0001)     ;
(PID.TID 0000.0001) SEAICE_CHECK: #define ALLOW_SEAICE
(PID.TID 0000.0001) %MON fCori_max                    =   1.4210453727344E-04
(PID.TID 0000.0001) %MON fCori_min                    =   1.0666243053630E-04
(PID.TID 0000.0001) %MON fCori_mean                   =   1.2711058365303E-04
(PID.TID 0000.0001) %MON fCori_sd                     =   1.1031533875266E-05
(PID.TID 0000.0001) %MON fCoriG_max                   =   1.4151032568025E-04
(PID.TID 0000.0001) %MON fCoriG_min                   =   1.0491029349513E-04
(PID.TID 0000.0001) %MON fCoriG_mean                  =   1.2591168756569E-04
(PID.TID 0000.0001) %MON fCoriG_sd                    =   1.1383815633153E-05
(PID.TID 0000.0001) %MON fCoriCos_max                 =   9.9464325599212E-05
(PID.TID 0000.0001) %MON fCoriCos_min                 =   3.2807417471054E-05
(PID.TID 0000.0001) %MON fCoriCos_mean                =   6.7585896192312E-05
(PID.TID 0000.0001) %MON fCoriCos_sd                  =   2.0576140902612E-05
(PID.TID 0000.0001) INI_CG2D: CG2D normalisation factor =  1.6094939840939192E-04
(PID.TID 0000.0001) 
(PID.TID 0000.0001) CONFIG_CHECK: OK
(PID.TID 0000.0001) // =======================================================
(PID.TID 0000.0001) // Model configuration
(PID.TID 0000.0001) // =======================================================
(PID.TID 0000.0001) //
(PID.TID 0000.0001) // "Physical" paramters ( PARM01 in namelist )
(PID.TID 0000.0001) //
(PID.TID 0000.0001) buoyancyRelation = /* Type of relation to get Buoyancy */
(PID.TID 0000.0001)               'OCEANIC'
(PID.TID 0000.0001)     ;
(PID.TID 0000.0001) fluidIsAir  =  /* fluid major constituent is Air */
(PID.TID 0000.0001)                   F
(PID.TID 0000.0001)     ;
(PID.TID 0000.0001) fluidIsWater=  /* fluid major constituent is Water */
(PID.TID 0000.0001)                   T
(PID.TID 0000.0001)     ;
(PID.TID 0000.0001) usingPCoords =  /* use p (or p*) vertical coordinate */
(PID.TID 0000.0001)                   F
(PID.TID 0000.0001)     ;
(PID.TID 0000.0001) usingZCoords =  /* use z (or z*) vertical coordinate */
(PID.TID 0000.0001)                   T
(PID.TID 0000.0001)     ;
(PID.TID 0000.0001) tRef =   /* Reference temperature profile ( oC or K ) */
(PID.TID 0000.0001)                 2.400000000000000E+01,      /* K =  1 */
(PID.TID 0000.0001)                 2.300000000000000E+01,      /* K =  2 */
(PID.TID 0000.0001)                 2.200000000000000E+01,      /* K =  3 */
(PID.TID 0000.0001)                 2.100000000000000E+01,      /* K =  4 */
(PID.TID 0000.0001)                 2.000000000000000E+01,      /* K =  5 */
(PID.TID 0000.0001)                 1.900000000000000E+01,      /* K =  6 */
(PID.TID 0000.0001)                 1.800000000000000E+01,      /* K =  7 */
(PID.TID 0000.0001)                 1.700000000000000E+01,      /* K =  8 */
(PID.TID 0000.0001)                 1.600000000000000E+01,      /* K =  9 */
(PID.TID 0000.0001)                 1.500000000000000E+01,      /* K = 10 */
(PID.TID 0000.0001)                 1.400000000000000E+01,      /* K = 11 */
(PID.TID 0000.0001)                 1.300000000000000E+01,      /* K = 12 */
(PID.TID 0000.0001)                 1.200000000000000E+01,      /* K = 13 */
(PID.TID 0000.0001)                 1.100000000000000E+01,      /* K = 14 */
(PID.TID 0000.0001)                 1.000000000000000E+01,      /* K = 15 */
(PID.TID 0000.0001)                 9.000000000000000E+00,      /* K = 16 */
(PID.TID 0000.0001)                 8.000000000000000E+00,      /* K = 17 */
(PID.TID 0000.0001)                 7.000000000000000E+00,      /* K = 18 */
(PID.TID 0000.0001)                 6.000000000000000E+00,      /* K = 19 */
(PID.TID 0000.0001)                 5.000000000000000E+00,      /* K = 20 */
(PID.TID 0000.0001)                 4.000000000000000E+00,      /* K = 21 */
(PID.TID 0000.0001)                 3.000000000000000E+00,      /* K = 22 */
(PID.TID 0000.0001)                 2.000000000000000E+00       /* K = 23 */
(PID.TID 0000.0001)     ;
(PID.TID 0000.0001) sRef =   /* Reference salinity profile ( psu ) */
(PID.TID 0000.0001)                 3.465000000000000E+01,      /* K =  1 */
(PID.TID 0000.0001)                 3.475000000000000E+01,      /* K =  2 */
(PID.TID 0000.0001)                 3.482000000000000E+01,      /* K =  3 */
(PID.TID 0000.0001)                 3.487000000000000E+01,      /* K =  4 */
(PID.TID 0000.0001)     2 @  3.490000000000000E+01,             /* K =  5:  6 */
(PID.TID 0000.0001)                 3.486000000000000E+01,      /* K =  7 */
(PID.TID 0000.0001)                 3.478000000000000E+01,      /* K =  8 */
(PID.TID 0000.0001)                 3.469000000000000E+01,      /* K =  9 */
(PID.TID 0000.0001)                 3.460000000000000E+01,      /* K = 10 */
(PID.TID 0000.0001)                 3.458000000000000E+01,      /* K = 11 */
(PID.TID 0000.0001)                 3.462000000000000E+01,      /* K = 12 */
(PID.TID 0000.0001)                 3.468000000000000E+01,      /* K = 13 */
(PID.TID 0000.0001)                 3.472000000000000E+01,      /* K = 14 */
(PID.TID 0000.0001)                 3.473000000000000E+01,      /* K = 15 */
(PID.TID 0000.0001)                 3.474000000000000E+01,      /* K = 16 */
(PID.TID 0000.0001)     2 @  3.473000000000000E+01,             /* K = 17: 18 */
(PID.TID 0000.0001)     2 @  3.472000000000000E+01,             /* K = 19: 20 */
(PID.TID 0000.0001)                 3.471000000000000E+01,      /* K = 21 */
(PID.TID 0000.0001)                 3.470000000000000E+01,      /* K = 22 */
(PID.TID 0000.0001)                 3.469000000000000E+01       /* K = 23 */
(PID.TID 0000.0001)     ;
(PID.TID 0000.0001) viscAh =   /* Lateral eddy viscosity ( m^2/s ) */
(PID.TID 0000.0001)                 5.000000000000000E+04
(PID.TID 0000.0001)     ;
(PID.TID 0000.0001) viscAhMax =   /* Maximum lateral eddy viscosity ( m^2/s ) */
(PID.TID 0000.0001)                 1.000000000000000E+21
(PID.TID 0000.0001)     ;
(PID.TID 0000.0001) viscAhGrid =   /* Grid dependent lateral eddy viscosity ( non-dim. ) */
(PID.TID 0000.0001)                 0.000000000000000E+00
(PID.TID 0000.0001)     ;
(PID.TID 0000.0001) useFullLeith =   /* Use Full Form of Leith Viscosity on/off flag*/
(PID.TID 0000.0001)                   F
(PID.TID 0000.0001)     ;
(PID.TID 0000.0001) useStrainTensionVisc =   /* Use StrainTension Form of Viscous Operator on/off flag*/
(PID.TID 0000.0001)                   F
(PID.TID 0000.0001)     ;
(PID.TID 0000.0001) useAreaViscLength =   /* Use area for visc length instead of geom. mean*/
(PID.TID 0000.0001)                   F
(PID.TID 0000.0001)     ;
(PID.TID 0000.0001) viscC2leith = /* Leith harmonic visc. factor (on grad(vort),non-dim.) */
(PID.TID 0000.0001)                 0.000000000000000E+00
(PID.TID 0000.0001)     ;
(PID.TID 0000.0001) viscC2leithD = /* Leith harmonic viscosity factor (on grad(div),non-dim.) */
(PID.TID 0000.0001)                 0.000000000000000E+00
(PID.TID 0000.0001)     ;
(PID.TID 0000.0001) viscC2smag =   /* Smagorinsky harmonic viscosity factor (non-dim.) */
(PID.TID 0000.0001)                 0.000000000000000E+00
(PID.TID 0000.0001)     ;
(PID.TID 0000.0001) viscA4 =   /* Lateral biharmonic viscosity ( m^4/s ) */
(PID.TID 0000.0001)                 0.000000000000000E+00
(PID.TID 0000.0001)     ;
(PID.TID 0000.0001) viscA4Max =   /* Maximum biharmonic viscosity ( m^2/s ) */
(PID.TID 0000.0001)                 1.000000000000000E+21
(PID.TID 0000.0001)     ;
(PID.TID 0000.0001) viscA4Grid =   /* Grid dependent biharmonic viscosity ( non-dim. ) */
(PID.TID 0000.0001)                 0.000000000000000E+00
(PID.TID 0000.0001)     ;
(PID.TID 0000.0001) viscC4leith = /* Leith biharm viscosity factor (on grad(vort), non-dim.) */
(PID.TID 0000.0001)                 0.000000000000000E+00
(PID.TID 0000.0001)     ;
(PID.TID 0000.0001) viscC4leithD = /* Leith biharm viscosity factor (on grad(div), non-dim.) */
(PID.TID 0000.0001)                 0.000000000000000E+00
(PID.TID 0000.0001)     ;
(PID.TID 0000.0001) viscC4Smag = /* Smagorinsky biharm viscosity factor (non-dim) */
(PID.TID 0000.0001)                 0.000000000000000E+00
(PID.TID 0000.0001)     ;
(PID.TID 0000.0001) no_slip_sides =  /* Viscous BCs: No-slip sides */
(PID.TID 0000.0001)                   F
(PID.TID 0000.0001)     ;
(PID.TID 0000.0001) sideDragFactor = /* side-drag scaling factor (non-dim) */
(PID.TID 0000.0001)                 2.000000000000000E+00
(PID.TID 0000.0001)     ;
(PID.TID 0000.0001) viscAr =   /* Vertical eddy viscosity ( units of r^2/s ) */
(PID.TID 0000.0001)                 1.930000000000000E-05
(PID.TID 0000.0001)     ;
(PID.TID 0000.0001) no_slip_bottom =  /* Viscous BCs: No-slip bottom */
(PID.TID 0000.0001)                   T
(PID.TID 0000.0001)     ;
(PID.TID 0000.0001) bottomDragLinear = /* linear bottom-drag coefficient ( 1/s ) */
(PID.TID 0000.0001)                 0.000000000000000E+00
(PID.TID 0000.0001)     ;
(PID.TID 0000.0001) bottomDragQuadratic = /* quadratic bottom-drag coeff. ( 1/m ) */
(PID.TID 0000.0001)                 0.000000000000000E+00
(PID.TID 0000.0001)     ;
(PID.TID 0000.0001) diffKhT =   /* Laplacian diffusion of heat laterally ( m^2/s ) */
(PID.TID 0000.0001)                 0.000000000000000E+00
(PID.TID 0000.0001)     ;
(PID.TID 0000.0001) diffK4T =   /* Bihaarmonic diffusion of heat laterally ( m^4/s ) */
(PID.TID 0000.0001)                 0.000000000000000E+00
(PID.TID 0000.0001)     ;
(PID.TID 0000.0001) diffKhS =   /* Laplacian diffusion of salt laterally ( m^2/s ) */
(PID.TID 0000.0001)                 0.000000000000000E+00
(PID.TID 0000.0001)     ;
(PID.TID 0000.0001) diffK4S =   /* Bihaarmonic diffusion of salt laterally ( m^4/s ) */
(PID.TID 0000.0001)                 0.000000000000000E+00
(PID.TID 0000.0001)     ;
(PID.TID 0000.0001) diffKrNrT = /* vertical profile of vertical diffusion of Temp ( m^2/s )*/
(PID.TID 0000.0001)    23 @  1.460000000000000E-05              /* K =  1: 23 */
(PID.TID 0000.0001)     ;
(PID.TID 0000.0001) diffKrNrS = /* vertical profile of vertical diffusion of Salt ( m^2/s )*/
(PID.TID 0000.0001)    23 @  1.460000000000000E-05              /* K =  1: 23 */
(PID.TID 0000.0001)     ;
(PID.TID 0000.0001) diffKrBL79surf =   /* Surface diffusion for Bryan and Lewis 1979 ( m^2/s ) */
(PID.TID 0000.0001)                 0.000000000000000E+00
(PID.TID 0000.0001)     ;
(PID.TID 0000.0001) diffKrBL79deep =   /* Deep diffusion for Bryan and Lewis 1979 ( m^2/s ) */
(PID.TID 0000.0001)                 0.000000000000000E+00
(PID.TID 0000.0001)     ;
(PID.TID 0000.0001) diffKrBL79scl =   /* Depth scale for Bryan and Lewis 1979 ( m ) */
(PID.TID 0000.0001)                 2.000000000000000E+02
(PID.TID 0000.0001)     ;
(PID.TID 0000.0001) diffKrBL79Ho =   /* Turning depth for Bryan and Lewis 1979 ( m ) */
(PID.TID 0000.0001)                -2.000000000000000E+03
(PID.TID 0000.0001)     ;
(PID.TID 0000.0001) ivdc_kappa = /* Implicit Vertical Diffusivity for Convection ( m^2/s ) */
(PID.TID 0000.0001)                 0.000000000000000E+00
(PID.TID 0000.0001)     ;
(PID.TID 0000.0001) hMixCriteria=  /* Criteria for mixed-layer diagnostic */
(PID.TID 0000.0001)                -8.000000000000000E-01
(PID.TID 0000.0001)     ;
(PID.TID 0000.0001) eosType =  /* Type of Equation of State */
(PID.TID 0000.0001)               'JMD95Z'
(PID.TID 0000.0001)     ;
(PID.TID 0000.0001) tAlpha =   /* Linear EOS thermal expansion coefficient ( 1/oC ) */
(PID.TID 0000.0001)                 1.234567000000000E+05
(PID.TID 0000.0001)     ;
(PID.TID 0000.0001) sBeta =   /* Linear EOS haline contraction coefficient ( 1/psu ) */
(PID.TID 0000.0001)                 1.234567000000000E+05
(PID.TID 0000.0001)     ;
(PID.TID 0000.0001) rhonil =   /* Reference density ( kg/m^3 ) */
(PID.TID 0000.0001)                 1.027000000000000E+03
(PID.TID 0000.0001)     ;
(PID.TID 0000.0001) rhoConst =   /* Reference density ( kg/m^3 ) */
(PID.TID 0000.0001)                 1.027000000000000E+03
(PID.TID 0000.0001)     ;
(PID.TID 0000.0001) rhoFacC = /* normalized Reference density @ cell-Center (-) */
(PID.TID 0000.0001)    23 @  1.000000000000000E+00              /* K =  1: 23 */
(PID.TID 0000.0001)     ;
(PID.TID 0000.0001) rhoFacF = /* normalized Reference density @ W-Interface (-) */
(PID.TID 0000.0001)    24 @  1.000000000000000E+00              /* K =  1: 24 */
(PID.TID 0000.0001)     ;
(PID.TID 0000.0001) rhoConstFresh =   /* Reference density ( kg/m^3 ) */
(PID.TID 0000.0001)                 1.027000000000000E+03
(PID.TID 0000.0001)     ;
(PID.TID 0000.0001) gravity =   /* Gravitational acceleration ( m/s^2 ) */
(PID.TID 0000.0001)                 9.815600000000000E+00
(PID.TID 0000.0001)     ;
(PID.TID 0000.0001) gBaro =   /* Barotropic gravity ( m/s^2 ) */
(PID.TID 0000.0001)                 9.815600000000000E+00
(PID.TID 0000.0001)     ;
(PID.TID 0000.0001) rotationPeriod =   /* Rotation Period ( s ) */
(PID.TID 0000.0001)                 8.616400000000000E+04
(PID.TID 0000.0001)     ;
(PID.TID 0000.0001) omega =   /* Angular velocity ( rad/s ) */
(PID.TID 0000.0001)                 7.292123516990375E-05
(PID.TID 0000.0001)     ;
(PID.TID 0000.0001) f0 =   /* Reference coriolis parameter ( 1/s ) */
(PID.TID 0000.0001)                 1.000000000000000E-04
(PID.TID 0000.0001)     ;
(PID.TID 0000.0001) beta =   /* Beta ( 1/(m.s) ) */
(PID.TID 0000.0001)                 9.999999999999999E-12
(PID.TID 0000.0001)     ;
(PID.TID 0000.0001) freeSurfFac =   /* Implicit free surface factor */
(PID.TID 0000.0001)                 1.000000000000000E+00
(PID.TID 0000.0001)     ;
(PID.TID 0000.0001) implicitFreeSurface =   /* Implicit free surface on/off flag */
(PID.TID 0000.0001)                   T
(PID.TID 0000.0001)     ;
(PID.TID 0000.0001) rigidLid =   /* Rigid lid on/off flag */
(PID.TID 0000.0001)                   F
(PID.TID 0000.0001)     ;
(PID.TID 0000.0001) implicSurfPress =   /* Surface Pressure implicit factor (0-1)*/
(PID.TID 0000.0001)                 1.000000000000000E+00
(PID.TID 0000.0001)     ;
(PID.TID 0000.0001) implicDiv2Dflow =   /* Barot. Flow Div. implicit factor (0-1)*/
(PID.TID 0000.0001)                 1.000000000000000E+00
(PID.TID 0000.0001)     ;
(PID.TID 0000.0001) exactConserv =   /* Exact Volume Conservation on/off flag*/
(PID.TID 0000.0001)                   F
(PID.TID 0000.0001)     ;
(PID.TID 0000.0001) linFSConserveTr =   /* Tracer correction for Lin Free Surface on/off flag*/
(PID.TID 0000.0001)                   F
(PID.TID 0000.0001)     ;
(PID.TID 0000.0001) uniformLin_PhiSurf =   /* use uniform Bo_surf on/off flag*/
(PID.TID 0000.0001)                   T
(PID.TID 0000.0001)     ;
(PID.TID 0000.0001) nonlinFreeSurf =   /* Non-linear Free Surf. options (-1,0,1,2,3)*/
(PID.TID 0000.0001)                       0
(PID.TID 0000.0001)     ;
(PID.TID 0000.0001)      -1,0= Off ; 1,2,3= On, 2=+rescale gU,gV, 3=+update cg2d solv.
(PID.TID 0000.0001) hFacInf =   /* lower threshold for hFac (nonlinFreeSurf only)*/
(PID.TID 0000.0001)                 2.000000000000000E-01
(PID.TID 0000.0001)     ;
(PID.TID 0000.0001) hFacSup =   /* upper threshold for hFac (nonlinFreeSurf only)*/
(PID.TID 0000.0001)                 2.000000000000000E+00
(PID.TID 0000.0001)     ;
(PID.TID 0000.0001) select_rStar =   /* r* Coordinate options (not yet implemented)*/
(PID.TID 0000.0001)                       0
(PID.TID 0000.0001)     ;
(PID.TID 0000.0001) useRealFreshWaterFlux =   /* Real Fresh Water Flux on/off flag*/
(PID.TID 0000.0001)                   F
(PID.TID 0000.0001)     ;
(PID.TID 0000.0001) convertFW2Salt = /* convert F.W. Flux to Salt Flux (-1=use local S)(ppt)*/
(PID.TID 0000.0001)                 3.500000000000000E+01
(PID.TID 0000.0001)     ;
(PID.TID 0000.0001) use3Dsolver = /* use 3-D pressure solver on/off flag */
(PID.TID 0000.0001)                   F
(PID.TID 0000.0001)     ;
(PID.TID 0000.0001) nonHydrostatic =  /* Non-Hydrostatic on/off flag */
(PID.TID 0000.0001)                   F
(PID.TID 0000.0001)     ;
(PID.TID 0000.0001) nh_Am2 = /* Non-Hydrostatic terms scaling factor */
(PID.TID 0000.0001)                 1.000000000000000E+00
(PID.TID 0000.0001)     ;
(PID.TID 0000.0001) quasiHydrostatic = /* Quasi-Hydrostatic on/off flag */
(PID.TID 0000.0001)                   F
(PID.TID 0000.0001)     ;
(PID.TID 0000.0001) momStepping =  /* Momentum equation on/off flag */
(PID.TID 0000.0001)                   T
(PID.TID 0000.0001)     ;
(PID.TID 0000.0001) vectorInvariantMomentum= /* Vector-Invariant Momentum on/off */
(PID.TID 0000.0001)                   F
(PID.TID 0000.0001)     ;
(PID.TID 0000.0001) momAdvection =  /* Momentum advection on/off flag */
(PID.TID 0000.0001)                   T
(PID.TID 0000.0001)     ;
(PID.TID 0000.0001) momViscosity =  /* Momentum viscosity on/off flag */
(PID.TID 0000.0001)                   T
(PID.TID 0000.0001)     ;
(PID.TID 0000.0001) momImplVertAdv =/* Momentum implicit vert. advection on/off*/
(PID.TID 0000.0001)                   F
(PID.TID 0000.0001)     ;
(PID.TID 0000.0001) implicitViscosity = /* Implicit viscosity on/off flag */
(PID.TID 0000.0001)                   T
(PID.TID 0000.0001)     ;
(PID.TID 0000.0001) metricTerms =  /* metric-Terms on/off flag */
(PID.TID 0000.0001)                   T
(PID.TID 0000.0001)     ;
(PID.TID 0000.0001) useNHMTerms = /* Non-Hydrostatic Metric-Terms on/off */
(PID.TID 0000.0001)                   F
(PID.TID 0000.0001)     ;
(PID.TID 0000.0001) useConstantF =  /* use Constant f0 Coriolis flag */
(PID.TID 0000.0001)                   F
(PID.TID 0000.0001)     ;
(PID.TID 0000.0001) useBetaPlaneF = /* use Beta-Plane Coriolis flag */
(PID.TID 0000.0001)                   F
(PID.TID 0000.0001)     ;
(PID.TID 0000.0001) useSphereF  =   /* use Spherical Coriolis flag */
(PID.TID 0000.0001)                   T
(PID.TID 0000.0001)     ;
(PID.TID 0000.0001) use3dCoriolis = /* 3-D Coriolis on/off flag */
(PID.TID 0000.0001)                   F
(PID.TID 0000.0001)     ;
(PID.TID 0000.0001) useCoriolis =  /* Coriolis on/off flag */
(PID.TID 0000.0001)                   T
(PID.TID 0000.0001)     ;
(PID.TID 0000.0001) useCDscheme =  /* CD scheme on/off flag */
(PID.TID 0000.0001)                   T
(PID.TID 0000.0001)     ;
(PID.TID 0000.0001) useJamartWetPoints= /* Coriolis WetPoints method flag */
(PID.TID 0000.0001)                   F
(PID.TID 0000.0001)     ;
(PID.TID 0000.0001) useJamartMomAdv= /* V.I. Non-linear terms Jamart flag */
(PID.TID 0000.0001)                   F
(PID.TID 0000.0001)     ;
(PID.TID 0000.0001) SadournyCoriolis= /* Sadourny Coriolis discr. flag */
(PID.TID 0000.0001)                   F
(PID.TID 0000.0001)     ;
(PID.TID 0000.0001) upwindVorticity= /* Upwind bias vorticity flag */
(PID.TID 0000.0001)                   F
(PID.TID 0000.0001)     ;
(PID.TID 0000.0001) useAbsVorticity= /* Work with f+zeta in Coriolis */
(PID.TID 0000.0001)                   F
(PID.TID 0000.0001)     ;
(PID.TID 0000.0001) highOrderVorticity= /* High order interp. of vort. flag */
(PID.TID 0000.0001)                   F
(PID.TID 0000.0001)     ;
(PID.TID 0000.0001) upwindShear= /* Upwind vertical Shear advection flag */
(PID.TID 0000.0001)                   F
(PID.TID 0000.0001)     ;
(PID.TID 0000.0001) selectKEscheme= /* Kinetic Energy scheme selector */
(PID.TID 0000.0001)                       0
(PID.TID 0000.0001)     ;
(PID.TID 0000.0001) momForcing =  /* Momentum forcing on/off flag */
(PID.TID 0000.0001)                   T
(PID.TID 0000.0001)     ;
(PID.TID 0000.0001) momPressureForcing =  /* Momentum pressure term on/off flag */
(PID.TID 0000.0001)                   T
(PID.TID 0000.0001)     ;
(PID.TID 0000.0001) implicitIntGravWave= /* Implicit Internal Gravity Wave flag */
(PID.TID 0000.0001)                   F
(PID.TID 0000.0001)     ;
(PID.TID 0000.0001) staggerTimeStep =   /* Stagger time stepping on/off flag */
(PID.TID 0000.0001)                   F
(PID.TID 0000.0001)     ;
(PID.TID 0000.0001) multiDimAdvection =   /* enable/disable Multi-Dim Advection */
(PID.TID 0000.0001)                   T
(PID.TID 0000.0001)     ;
(PID.TID 0000.0001) useMultiDimAdvec =   /* Multi-Dim Advection is/is-not used */
(PID.TID 0000.0001)                   F
(PID.TID 0000.0001)     ;
(PID.TID 0000.0001) implicitDiffusion =/* Implicit Diffusion on/off flag */
(PID.TID 0000.0001)                   T
(PID.TID 0000.0001)     ;
(PID.TID 0000.0001) tempStepping =  /* Temperature equation on/off flag */
(PID.TID 0000.0001)                   T
(PID.TID 0000.0001)     ;
(PID.TID 0000.0001) tempAdvection=  /* Temperature advection on/off flag */
(PID.TID 0000.0001)                   T
(PID.TID 0000.0001)     ;
(PID.TID 0000.0001) tempImplVertAdv =/* Temp. implicit vert. advection on/off */
(PID.TID 0000.0001)                   F
(PID.TID 0000.0001)     ;
(PID.TID 0000.0001) tempForcing  =  /* Temperature forcing on/off flag */
(PID.TID 0000.0001)                   T
(PID.TID 0000.0001)     ;
(PID.TID 0000.0001) saltStepping =  /* Salinity equation on/off flag */
(PID.TID 0000.0001)                   T
(PID.TID 0000.0001)     ;
(PID.TID 0000.0001) saltAdvection=  /* Salinity advection on/off flag */
(PID.TID 0000.0001)                   T
(PID.TID 0000.0001)     ;
(PID.TID 0000.0001) saltImplVertAdv =/* Sali. implicit vert. advection on/off */
(PID.TID 0000.0001)                   F
(PID.TID 0000.0001)     ;
(PID.TID 0000.0001) saltForcing  =  /* Salinity forcing on/off flag */
(PID.TID 0000.0001)                   T
(PID.TID 0000.0001)     ;
(PID.TID 0000.0001)  readBinaryPrec = /* Precision used for reading binary files */
(PID.TID 0000.0001)                      32
(PID.TID 0000.0001)     ;
(PID.TID 0000.0001) writeBinaryPrec = /* Precision used for writing binary files */
(PID.TID 0000.0001)                      32
(PID.TID 0000.0001)     ;
(PID.TID 0000.0001)  globalFiles = /* write "global" (=not per tile) files */
(PID.TID 0000.0001)                   F
(PID.TID 0000.0001)     ;
(PID.TID 0000.0001)  useSingleCpuIO = /* only master MPI process does I/O */
(PID.TID 0000.0001)                   T
(PID.TID 0000.0001)     ;
(PID.TID 0000.0001)  debugMode  =  /* Debug Mode on/off flag */
(PID.TID 0000.0001)                   F
(PID.TID 0000.0001)     ;
(PID.TID 0000.0001)    debLevA  =  /* 1rst level of debugging */
(PID.TID 0000.0001)                       1
(PID.TID 0000.0001)     ;
(PID.TID 0000.0001)    debLevB  =  /* 2nd  level of debugging */
(PID.TID 0000.0001)                       2
(PID.TID 0000.0001)     ;
(PID.TID 0000.0001)  debugLevel =  /* select debugging level */
(PID.TID 0000.0001)                       1
(PID.TID 0000.0001)     ;
(PID.TID 0000.0001) //
(PID.TID 0000.0001) // Elliptic solver(s) paramters ( PARM02 in namelist )
(PID.TID 0000.0001) //
(PID.TID 0000.0001) cg2dMaxIters =   /* Upper limit on 2d con. grad iterations  */
(PID.TID 0000.0001)                     500
(PID.TID 0000.0001)     ;
(PID.TID 0000.0001) cg2dChkResFreq =   /* 2d con. grad convergence test frequency */
(PID.TID 0000.0001)                       1
(PID.TID 0000.0001)     ;
(PID.TID 0000.0001) cg2dTargetResidual =   /* 2d con. grad target residual  */
(PID.TID 0000.0001)                 1.000000000000000E-12
(PID.TID 0000.0001)     ;
(PID.TID 0000.0001) cg2dTargetResWunit =   /* CG2d target residual [W units] */
(PID.TID 0000.0001)                -1.000000000000000E+00
(PID.TID 0000.0001)     ;
(PID.TID 0000.0001) cg2dPreCondFreq =   /* Freq. for updating cg2d preconditioner */
(PID.TID 0000.0001)                       1
(PID.TID 0000.0001)     ;
(PID.TID 0000.0001) //
(PID.TID 0000.0001) // Time stepping paramters ( PARM03 in namelist )
(PID.TID 0000.0001) //
(PID.TID 0000.0001) nIter0 =   /* Run starting timestep number  */
(PID.TID 0000.0001)                       0
(PID.TID 0000.0001)     ;
(PID.TID 0000.0001) nTimeSteps =   /* Number of timesteps */
(PID.TID 0000.0001)                      10
(PID.TID 0000.0001)     ;
(PID.TID 0000.0001) deltaTmom =   /* Momentum equation timestep ( s ) */
(PID.TID 0000.0001)                 3.600000000000000E+03
(PID.TID 0000.0001)     ;
(PID.TID 0000.0001) deltaTfreesurf =   /* FreeSurface equation timestep ( s ) */
(PID.TID 0000.0001)                 3.600000000000000E+03
(PID.TID 0000.0001)     ;
(PID.TID 0000.0001) dTtracerLev =   /* Tracer equation timestep ( s ) */
(PID.TID 0000.0001)    23 @  3.600000000000000E+03              /* K =  1: 23 */
(PID.TID 0000.0001)     ;
(PID.TID 0000.0001) deltaTClock  =   /* Model clock timestep ( s ) */
(PID.TID 0000.0001)                 3.600000000000000E+03
(PID.TID 0000.0001)     ;
(PID.TID 0000.0001) cAdjFreq =   /* Convective adjustment interval ( s ) */
(PID.TID 0000.0001)                 0.000000000000000E+00
(PID.TID 0000.0001)     ;
(PID.TID 0000.0001) momForcingOutAB = /* =1: take Momentum Forcing out of Adams-Bash. stepping */
(PID.TID 0000.0001)                       1
(PID.TID 0000.0001)     ;
(PID.TID 0000.0001) tracForcingOutAB = /* =1: take T,S,pTr Forcing out of Adams-Bash. stepping */
(PID.TID 0000.0001)                       1
(PID.TID 0000.0001)     ;
(PID.TID 0000.0001) momDissip_In_AB = /* put Dissipation Tendency in Adams-Bash. stepping */
(PID.TID 0000.0001)                   T
(PID.TID 0000.0001)     ;
(PID.TID 0000.0001) doAB_onGtGs = /* apply AB on Tendencies (rather than on T,S)*/
(PID.TID 0000.0001)                   T
(PID.TID 0000.0001)     ;
(PID.TID 0000.0001) abEps =   /* Adams-Bashforth-2 stabilizing weight */
(PID.TID 0000.0001)                 1.000000000000000E-01
(PID.TID 0000.0001)     ;
(PID.TID 0000.0001) tauCD =   /* CD coupling time-scale ( s ) */
(PID.TID 0000.0001)                 1.728000000000000E+05
(PID.TID 0000.0001)     ;
(PID.TID 0000.0001) rCD =   /* Normalised CD coupling parameter */
(PID.TID 0000.0001)                 9.791666666666666E-01
(PID.TID 0000.0001)     ;
(PID.TID 0000.0001) baseTime =   /* Model base time ( s ). */
(PID.TID 0000.0001)                 0.000000000000000E+00
(PID.TID 0000.0001)     ;
(PID.TID 0000.0001) startTime =   /* Run start time ( s ). */
(PID.TID 0000.0001)                 0.000000000000000E+00
(PID.TID 0000.0001)     ;
(PID.TID 0000.0001) endTime =   /* Integration ending time ( s ). */
(PID.TID 0000.0001)                 3.600000000000000E+04
(PID.TID 0000.0001)     ;
(PID.TID 0000.0001) pChkPtFreq =   /* Permanent restart/checkpoint file interval ( s ). */
(PID.TID 0000.0001)                 3.600000000000000E+04
(PID.TID 0000.0001)     ;
(PID.TID 0000.0001) chkPtFreq =   /* Rolling restart/checkpoint file interval ( s ). */
(PID.TID 0000.0001)                 0.000000000000000E+00
(PID.TID 0000.0001)     ;
(PID.TID 0000.0001) pickup_write_mdsio =   /* Model IO flag. */
(PID.TID 0000.0001)                   T
(PID.TID 0000.0001)     ;
(PID.TID 0000.0001) pickup_read_mdsio =   /* Model IO flag. */
(PID.TID 0000.0001)                   T
(PID.TID 0000.0001)     ;
(PID.TID 0000.0001) pickup_write_mnc =   /* Model IO flag. */
(PID.TID 0000.0001)                   F
(PID.TID 0000.0001)     ;
(PID.TID 0000.0001) pickup_read_mnc =   /* Model IO flag. */
(PID.TID 0000.0001)                   F
(PID.TID 0000.0001)     ;
(PID.TID 0000.0001) pickup_write_immed =   /* Model IO flag. */
(PID.TID 0000.0001)                   F
(PID.TID 0000.0001)     ;
(PID.TID 0000.0001) dumpFreq =   /* Model state write out interval ( s ). */
(PID.TID 0000.0001)                 0.000000000000000E+00
(PID.TID 0000.0001)     ;
(PID.TID 0000.0001) dumpInitAndLast= /* write out Initial & Last iter. model state */
(PID.TID 0000.0001)                   T
(PID.TID 0000.0001)     ;
(PID.TID 0000.0001) snapshot_mdsio =   /* Model IO flag. */
(PID.TID 0000.0001)                   T
(PID.TID 0000.0001)     ;
(PID.TID 0000.0001) snapshot_mnc =   /* Model IO flag. */
(PID.TID 0000.0001)                   F
(PID.TID 0000.0001)     ;
(PID.TID 0000.0001) monitorFreq =   /* Monitor output interval ( s ). */
(PID.TID 0000.0001)                 1.000000000000000E+00
(PID.TID 0000.0001)     ;
(PID.TID 0000.0001) monitor_stdio =   /* Model IO flag. */
(PID.TID 0000.0001)                   T
(PID.TID 0000.0001)     ;
(PID.TID 0000.0001) monitor_mnc =   /* Model IO flag. */
(PID.TID 0000.0001)                   F
(PID.TID 0000.0001)     ;
(PID.TID 0000.0001) externForcingPeriod =   /* forcing period (s) */
(PID.TID 0000.0001)                 0.000000000000000E+00
(PID.TID 0000.0001)     ;
(PID.TID 0000.0001) externForcingCycle =   /* period of the cyle (s). */
(PID.TID 0000.0001)                 0.000000000000000E+00
(PID.TID 0000.0001)     ;
(PID.TID 0000.0001) tauThetaClimRelax =   /* relaxation time scale (s) */
(PID.TID 0000.0001)                 0.000000000000000E+00
(PID.TID 0000.0001)     ;
(PID.TID 0000.0001) tauSaltClimRelax =   /* relaxation time scale (s) */
(PID.TID 0000.0001)                 4.142330000000000E+06
(PID.TID 0000.0001)     ;
(PID.TID 0000.0001) latBandClimRelax =   /* max. Lat. where relaxation */
(PID.TID 0000.0001)                 1.800000000000000E+02
(PID.TID 0000.0001)     ;
(PID.TID 0000.0001) //
(PID.TID 0000.0001) // Gridding paramters ( PARM04 in namelist )
(PID.TID 0000.0001) //
(PID.TID 0000.0001) usingCartesianGrid = /* Cartesian coordinates flag ( True/False ) */
(PID.TID 0000.0001)                   F
(PID.TID 0000.0001)     ;
(PID.TID 0000.0001) usingCylindricalGrid = /* Cylindrical coordinates flag ( True/False ) */
(PID.TID 0000.0001)                   F
(PID.TID 0000.0001)     ;
(PID.TID 0000.0001) usingSphericalPolarGrid = /* Spherical coordinates flag ( True/False ) */
(PID.TID 0000.0001)                   T
(PID.TID 0000.0001)     ;
(PID.TID 0000.0001) usingCurvilinearGrid = /* Curvilinear coordinates flag ( True/False ) */
(PID.TID 0000.0001)                   F
(PID.TID 0000.0001)     ;
(PID.TID 0000.0001) Ro_SeaLevel = /* r(1) ( units of r ) */
(PID.TID 0000.0001)                 0.000000000000000E+00
(PID.TID 0000.0001)     ;
(PID.TID 0000.0001) rkSign =   /* index orientation relative to vertical coordinate */
(PID.TID 0000.0001)                -1.000000000000000E+00
(PID.TID 0000.0001)     ;
(PID.TID 0000.0001) gravitySign = /* gravity orientation relative to vertical coordinate */
(PID.TID 0000.0001)                -1.000000000000000E+00
(PID.TID 0000.0001)     ;
(PID.TID 0000.0001) horiVertRatio =   /* Ratio on units : Horiz - Vertical */
(PID.TID 0000.0001)                 1.000000000000000E+00
(PID.TID 0000.0001)     ;
(PID.TID 0000.0001) drC =   /* C spacing ( units of r ) */
(PID.TID 0000.0001)                 5.000000000000000E+00,      /* K =  1 */
(PID.TID 0000.0001)                 1.000000000000000E+01,      /* K =  2 */
(PID.TID 0000.0001)                 1.250000000000000E+01,      /* K =  3 */
(PID.TID 0000.0001)                 1.750000000000000E+01,      /* K =  4 */
(PID.TID 0000.0001)                 2.000000000000000E+01,      /* K =  5 */
(PID.TID 0000.0001)                 2.250000000000000E+01,      /* K =  6 */
(PID.TID 0000.0001)                 3.000000000000000E+01,      /* K =  7 */
(PID.TID 0000.0001)                 4.250000000000000E+01,      /* K =  8 */
(PID.TID 0000.0001)                 6.250000000000000E+01,      /* K =  9 */
(PID.TID 0000.0001)                 8.750000000000000E+01,      /* K = 10 */
(PID.TID 0000.0001)                 1.250000000000000E+02,      /* K = 11 */
(PID.TID 0000.0001)                 1.750000000000000E+02,      /* K = 12 */
(PID.TID 0000.0001)                 2.375000000000000E+02,      /* K = 13 */
(PID.TID 0000.0001)                 3.125000000000000E+02,      /* K = 14 */
(PID.TID 0000.0001)                 3.825000000000000E+02,      /* K = 15 */
(PID.TID 0000.0001)                 4.325000000000000E+02,      /* K = 16 */
(PID.TID 0000.0001)                 4.750000000000000E+02,      /* K = 17 */
(PID.TID 0000.0001)     6 @  5.000000000000000E+02              /* K = 18: 23 */
(PID.TID 0000.0001)     ;
(PID.TID 0000.0001) drF =   /* W spacing ( units of r ) */
(PID.TID 0000.0001)     2 @  1.000000000000000E+01,             /* K =  1:  2 */
(PID.TID 0000.0001)                 1.500000000000000E+01,      /* K =  3 */
(PID.TID 0000.0001)     2 @  2.000000000000000E+01,             /* K =  4:  5 */
(PID.TID 0000.0001)                 2.500000000000000E+01,      /* K =  6 */
(PID.TID 0000.0001)                 3.500000000000000E+01,      /* K =  7 */
(PID.TID 0000.0001)                 5.000000000000000E+01,      /* K =  8 */
(PID.TID 0000.0001)                 7.500000000000000E+01,      /* K =  9 */
(PID.TID 0000.0001)                 1.000000000000000E+02,      /* K = 10 */
(PID.TID 0000.0001)                 1.500000000000000E+02,      /* K = 11 */
(PID.TID 0000.0001)                 2.000000000000000E+02,      /* K = 12 */
(PID.TID 0000.0001)                 2.750000000000000E+02,      /* K = 13 */
(PID.TID 0000.0001)                 3.500000000000000E+02,      /* K = 14 */
(PID.TID 0000.0001)                 4.150000000000000E+02,      /* K = 15 */
(PID.TID 0000.0001)                 4.500000000000000E+02,      /* K = 16 */
(PID.TID 0000.0001)     7 @  5.000000000000000E+02              /* K = 17: 23 */
(PID.TID 0000.0001)     ;
(PID.TID 0000.0001) delX =   /* U spacing ( m - cartesian, degrees - spherical ) */
(PID.TID 0000.0001)    20 @  2.000000000000000E+00              /* I =  1: 20 */
(PID.TID 0000.0001)     ;
(PID.TID 0000.0001) delY =   /* V spacing ( m - cartesian, degrees - spherical ) */
(PID.TID 0000.0001)    16 @  2.000000000000000E+00              /* J =  1: 16 */
(PID.TID 0000.0001)     ;
(PID.TID 0000.0001) phiMin =    /* South edge (ignored - cartesian, degrees - spherical ) */
(PID.TID 0000.0001)                 4.600000000000000E+01
(PID.TID 0000.0001)     ;
(PID.TID 0000.0001) thetaMin =    /* West edge ( ignored - cartesian, degrees - spherical ) */
(PID.TID 0000.0001)                 2.800000000000000E+02
(PID.TID 0000.0001)     ;
(PID.TID 0000.0001) rSphere =  /* Radius ( ignored - cartesian, m - spherical ) */
(PID.TID 0000.0001)                 6.371000000000000E+06
(PID.TID 0000.0001)     ;
(PID.TID 0000.0001) deepAtmosphere = /* Deep/Shallow Atmosphere flag (True/False) */
(PID.TID 0000.0001)                   F
(PID.TID 0000.0001)     ;
(PID.TID 0000.0001) xcoord =   /* P-point X coord ( m - cartesian, degrees - spherical ) */
(PID.TID 0000.0001)                 2.810000000000000E+02,      /* I =  1 */
(PID.TID 0000.0001)                 2.830000000000000E+02,      /* I =  2 */
(PID.TID 0000.0001)                 2.850000000000000E+02,      /* I =  3 */
(PID.TID 0000.0001)                 2.870000000000000E+02,      /* I =  4 */
(PID.TID 0000.0001)                 2.890000000000000E+02,      /* I =  5 */
(PID.TID 0000.0001)                 2.910000000000000E+02,      /* I =  6 */
(PID.TID 0000.0001)                 2.930000000000000E+02,      /* I =  7 */
(PID.TID 0000.0001)                 2.950000000000000E+02,      /* I =  8 */
(PID.TID 0000.0001)                 2.970000000000000E+02,      /* I =  9 */
(PID.TID 0000.0001)                 2.990000000000000E+02,      /* I = 10 */
(PID.TID 0000.0001)                 3.010000000000000E+02,      /* I = 11 */
(PID.TID 0000.0001)                 3.030000000000000E+02,      /* I = 12 */
(PID.TID 0000.0001)                 3.050000000000000E+02,      /* I = 13 */
(PID.TID 0000.0001)                 3.070000000000000E+02,      /* I = 14 */
(PID.TID 0000.0001)                 3.090000000000000E+02,      /* I = 15 */
(PID.TID 0000.0001)                 3.110000000000000E+02,      /* I = 16 */
(PID.TID 0000.0001)                 3.130000000000000E+02,      /* I = 17 */
(PID.TID 0000.0001)                 3.150000000000000E+02,      /* I = 18 */
(PID.TID 0000.0001)                 3.170000000000000E+02,      /* I = 19 */
(PID.TID 0000.0001)                 3.190000000000000E+02       /* I = 20 */
(PID.TID 0000.0001)     ;
(PID.TID 0000.0001) ycoord =   /* P-point Y coord ( m - cartesian, degrees - spherical ) */
(PID.TID 0000.0001)                 4.700000000000000E+01,      /* J =  1 */
(PID.TID 0000.0001)                 4.900000000000000E+01,      /* J =  2 */
(PID.TID 0000.0001)                 5.100000000000000E+01,      /* J =  3 */
(PID.TID 0000.0001)                 5.300000000000000E+01,      /* J =  4 */
(PID.TID 0000.0001)                 5.500000000000000E+01,      /* J =  5 */
(PID.TID 0000.0001)                 5.700000000000000E+01,      /* J =  6 */
(PID.TID 0000.0001)                 5.900000000000000E+01,      /* J =  7 */
(PID.TID 0000.0001)                 6.100000000000000E+01,      /* J =  8 */
(PID.TID 0000.0001)                 6.300000000000000E+01,      /* J =  9 */
(PID.TID 0000.0001)                 6.500000000000000E+01,      /* J = 10 */
(PID.TID 0000.0001)                 6.700000000000000E+01,      /* J = 11 */
(PID.TID 0000.0001)                 6.900000000000000E+01,      /* J = 12 */
(PID.TID 0000.0001)                 7.100000000000000E+01,      /* J = 13 */
(PID.TID 0000.0001)                 7.300000000000000E+01,      /* J = 14 */
(PID.TID 0000.0001)                 7.500000000000000E+01,      /* J = 15 */
(PID.TID 0000.0001)                 7.700000000000000E+01       /* J = 16 */
(PID.TID 0000.0001)     ;
(PID.TID 0000.0001) rcoord =   /* P-point R coordinate (  units of r ) */
(PID.TID 0000.0001)                -5.000000000000000E+00,      /* K =  1 */
(PID.TID 0000.0001)                -1.500000000000000E+01,      /* K =  2 */
(PID.TID 0000.0001)                -2.750000000000000E+01,      /* K =  3 */
(PID.TID 0000.0001)                -4.500000000000000E+01,      /* K =  4 */
(PID.TID 0000.0001)                -6.500000000000000E+01,      /* K =  5 */
(PID.TID 0000.0001)                -8.750000000000000E+01,      /* K =  6 */
(PID.TID 0000.0001)                -1.175000000000000E+02,      /* K =  7 */
(PID.TID 0000.0001)                -1.600000000000000E+02,      /* K =  8 */
(PID.TID 0000.0001)                -2.225000000000000E+02,      /* K =  9 */
(PID.TID 0000.0001)                -3.100000000000000E+02,      /* K = 10 */
(PID.TID 0000.0001)                -4.350000000000000E+02,      /* K = 11 */
(PID.TID 0000.0001)                -6.100000000000000E+02,      /* K = 12 */
(PID.TID 0000.0001)                -8.475000000000000E+02,      /* K = 13 */
(PID.TID 0000.0001)                -1.160000000000000E+03,      /* K = 14 */
(PID.TID 0000.0001)                -1.542500000000000E+03,      /* K = 15 */
(PID.TID 0000.0001)                -1.975000000000000E+03,      /* K = 16 */
(PID.TID 0000.0001)                -2.450000000000000E+03,      /* K = 17 */
(PID.TID 0000.0001)                -2.950000000000000E+03,      /* K = 18 */
(PID.TID 0000.0001)                -3.450000000000000E+03,      /* K = 19 */
(PID.TID 0000.0001)                -3.950000000000000E+03,      /* K = 20 */
(PID.TID 0000.0001)                -4.450000000000000E+03,      /* K = 21 */
(PID.TID 0000.0001)                -4.950000000000000E+03,      /* K = 22 */
(PID.TID 0000.0001)                -5.450000000000000E+03       /* K = 23 */
(PID.TID 0000.0001)     ;
(PID.TID 0000.0001) rF =   /* W-Interf. R coordinate (  units of r ) */
(PID.TID 0000.0001)                 0.000000000000000E+00,      /* K =  1 */
(PID.TID 0000.0001)                -1.000000000000000E+01,      /* K =  2 */
(PID.TID 0000.0001)                -2.000000000000000E+01,      /* K =  3 */
(PID.TID 0000.0001)                -3.500000000000000E+01,      /* K =  4 */
(PID.TID 0000.0001)                -5.500000000000000E+01,      /* K =  5 */
(PID.TID 0000.0001)                -7.500000000000000E+01,      /* K =  6 */
(PID.TID 0000.0001)                -1.000000000000000E+02,      /* K =  7 */
(PID.TID 0000.0001)                -1.350000000000000E+02,      /* K =  8 */
(PID.TID 0000.0001)                -1.850000000000000E+02,      /* K =  9 */
(PID.TID 0000.0001)                -2.600000000000000E+02,      /* K = 10 */
(PID.TID 0000.0001)                -3.600000000000000E+02,      /* K = 11 */
(PID.TID 0000.0001)                -5.100000000000000E+02,      /* K = 12 */
(PID.TID 0000.0001)                -7.100000000000000E+02,      /* K = 13 */
(PID.TID 0000.0001)                -9.850000000000000E+02,      /* K = 14 */
(PID.TID 0000.0001)                -1.335000000000000E+03,      /* K = 15 */
(PID.TID 0000.0001)                -1.750000000000000E+03,      /* K = 16 */
(PID.TID 0000.0001)                -2.200000000000000E+03,      /* K = 17 */
(PID.TID 0000.0001)                -2.700000000000000E+03,      /* K = 18 */
(PID.TID 0000.0001)                -3.200000000000000E+03,      /* K = 19 */
(PID.TID 0000.0001)                -3.700000000000000E+03,      /* K = 20 */
(PID.TID 0000.0001)                -4.200000000000000E+03,      /* K = 21 */
(PID.TID 0000.0001)                -4.700000000000000E+03,      /* K = 22 */
(PID.TID 0000.0001)                -5.200000000000000E+03,      /* K = 23 */
(PID.TID 0000.0001)                -5.700000000000000E+03       /* K = 24 */
(PID.TID 0000.0001)     ;
(PID.TID 0000.0001) deepFacC = /* deep-model grid factor @ cell-Center (-) */
(PID.TID 0000.0001)    23 @  1.000000000000000E+00              /* K =  1: 23 */
(PID.TID 0000.0001)     ;
(PID.TID 0000.0001) deepFacF = /* deep-model grid factor @ W-Interface (-) */
(PID.TID 0000.0001)    24 @  1.000000000000000E+00              /* K =  1: 24 */
(PID.TID 0000.0001)     ;
(PID.TID 0000.0001) rVel2wUnit = /* convert units: rVel -> wSpeed (=1 if z-coord)*/
(PID.TID 0000.0001)    24 @  1.000000000000000E+00              /* K =  1: 24 */
(PID.TID 0000.0001)     ;
(PID.TID 0000.0001) wUnit2rVel = /* convert units: wSpeed -> rVel (=1 if z-coord)*/
(PID.TID 0000.0001)    24 @  1.000000000000000E+00              /* K =  1: 24 */
(PID.TID 0000.0001)     ;
(PID.TID 0000.0001) dBdrRef = /* Vertical gradient of reference boyancy [(m/s/r)^2)] */
(PID.TID 0000.0001)                 0.000000000000000E+00,      /* K =  1 */
(PID.TID 0000.0001)                 3.513461801096672E-04,      /* K =  2 */
(PID.TID 0000.0001)                 2.578462793867026E-04,      /* K =  3 */
(PID.TID 0000.0001)                 1.716535447918954E-04,      /* K =  4 */
(PID.TID 0000.0001)                 1.391849606744939E-04,      /* K =  5 */
(PID.TID 0000.0001)                 1.106038973987551E-04,      /* K =  6 */
(PID.TID 0000.0001)                 7.062448315028799E-05,      /* K =  7 */
(PID.TID 0000.0001)                 4.112152780686669E-05,      /* K =  8 */
(PID.TID 0000.0001)                 2.554455911799560E-05,      /* K =  9 */
(PID.TID 0000.0001)                 1.739274227427603E-05,      /* K = 10 */
(PID.TID 0000.0001)                 1.573008010125636E-05,      /* K = 11 */
(PID.TID 0000.0001)                 1.341763357458043E-05,      /* K = 12 */
(PID.TID 0000.0001)                 1.029886793911016E-05,      /* K = 13 */
(PID.TID 0000.0001)                 7.244777660794312E-06,      /* K = 14 */
(PID.TID 0000.0001)                 5.291061202791868E-06,      /* K = 15 */
(PID.TID 0000.0001)                 4.668992652371521E-06,      /* K = 16 */
(PID.TID 0000.0001)                 3.952349989520169E-06,      /* K = 17 */
(PID.TID 0000.0001)                 3.937600045035830E-06,      /* K = 18 */
(PID.TID 0000.0001)                 3.833348475309353E-06,      /* K = 19 */
(PID.TID 0000.0001)                 4.027570774400333E-06,      /* K = 20 */
(PID.TID 0000.0001)                 3.935806005392895E-06,      /* K = 21 */
(PID.TID 0000.0001)                 3.995673930141529E-06,      /* K = 22 */
(PID.TID 0000.0001)                 4.061338744769299E-06       /* K = 23 */
(PID.TID 0000.0001)     ;
(PID.TID 0000.0001) dxF =  /* dxF(:,1,:,1) ( units: m ) */
(PID.TID 0000.0001)    20 @  1.516695152377178E+05              /* I =  1: 20 */
(PID.TID 0000.0001)     ;
(PID.TID 0000.0001) dxF =  /* dxF(1,:,1,:) ( units: m ) */
(PID.TID 0000.0001)                 1.516695152377178E+05,      /* J =  1 */
(PID.TID 0000.0001)                 1.459008712061998E+05,      /* J =  2 */
(PID.TID 0000.0001)                 1.399544694374234E+05,      /* J =  3 */
(PID.TID 0000.0001)                 1.338375547059709E+05,      /* J =  4 */
(PID.TID 0000.0001)                 1.275575795302040E+05,      /* J =  5 */
(PID.TID 0000.0001)                 1.211221950925184E+05,      /* J =  6 */
(PID.TID 0000.0001)                 1.145392419175564E+05,      /* J =  7 */
(PID.TID 0000.0001)                 1.078167403197357E+05,      /* J =  8 */
(PID.TID 0000.0001)                 1.009628806317309E+05,      /* J =  9 */
(PID.TID 0000.0001)                 9.398601322581600E+04,      /* J = 10 */
(PID.TID 0000.0001)                 8.689463834022089E+04,      /* J = 11 */
(PID.TID 0000.0001)                 7.969739572290120E+04,      /* J = 12 */
(PID.TID 0000.0001)                 7.240305410533583E+04,      /* J = 13 */
(PID.TID 0000.0001)                 6.502050051917860E+04,      /* J = 14 */
(PID.TID 0000.0001)                 5.755872946877906E+04,      /* J = 15 */
(PID.TID 0000.0001)                 5.002683197276441E+04       /* J = 16 */
(PID.TID 0000.0001)     ;
(PID.TID 0000.0001) dyF =  /* dyF(:,1,:,1) ( units: m ) */
(PID.TID 0000.0001)    20 @  2.223898532891175E+05              /* I =  1: 20 */
(PID.TID 0000.0001)     ;
(PID.TID 0000.0001) dyF =  /* dyF(1,:,1,:) ( units: m ) */
(PID.TID 0000.0001)    16 @  2.223898532891175E+05              /* J =  1: 16 */
(PID.TID 0000.0001)     ;
(PID.TID 0000.0001) dxG =  /* dxG(:,1,:,1) ( units: m ) */
(PID.TID 0000.0001)    20 @  1.544849730924338E+05              /* I =  1: 20 */
(PID.TID 0000.0001)     ;
(PID.TID 0000.0001) dxG =  /* dxG(1,:,1,:) ( units: m ) */
(PID.TID 0000.0001)                 1.544849730924338E+05,      /* J =  1 */
(PID.TID 0000.0001)                 1.488078573794047E+05,      /* J =  2 */
(PID.TID 0000.0001)                 1.429494422142520E+05,      /* J =  3 */
(PID.TID 0000.0001)                 1.369168651734348E+05,      /* J =  4 */
(PID.TID 0000.0001)                 1.307174760228300E+05,      /* J =  5 */
(PID.TID 0000.0001)                 1.243588277631750E+05,      /* J =  6 */
(PID.TID 0000.0001)                 1.178486674278995E+05,      /* J =  7 */
(PID.TID 0000.0001)                 1.111949266445588E+05,      /* J =  8 */
(PID.TID 0000.0001)                 1.044057119713670E+05,      /* J =  9 */
(PID.TID 0000.0001)                 9.748929502060512E+04,      /* J = 10 */
(PID.TID 0000.0001)                 9.045410238093534E+04,      /* J = 11 */
(PID.TID 0000.0001)                 8.330870535090075E+04,      /* J = 12 */
(PID.TID 0000.0001)                 7.606180949611843E+04,      /* J = 13 */
(PID.TID 0000.0001)                 6.872224404288860E+04,      /* J = 14 */
(PID.TID 0000.0001)                 6.129895112114271E+04,      /* J = 15 */
(PID.TID 0000.0001)                 5.380097486983529E+04       /* J = 16 */
(PID.TID 0000.0001)     ;
(PID.TID 0000.0001) dyG =  /* dyG(:,1,:,1) ( units: m ) */
(PID.TID 0000.0001)    20 @  2.223898532891175E+05              /* I =  1: 20 */
(PID.TID 0000.0001)     ;
(PID.TID 0000.0001) dyG =  /* dyG(1,:,1,:) ( units: m ) */
(PID.TID 0000.0001)    16 @  2.223898532891175E+05              /* J =  1: 16 */
(PID.TID 0000.0001)     ;
(PID.TID 0000.0001) dxC =  /* dxC(:,1,:,1) ( units: m ) */
(PID.TID 0000.0001)    20 @  1.516695152377178E+05              /* I =  1: 20 */
(PID.TID 0000.0001)     ;
(PID.TID 0000.0001) dxC =  /* dxC(1,:,1,:) ( units: m ) */
(PID.TID 0000.0001)                 1.516695152377178E+05,      /* J =  1 */
(PID.TID 0000.0001)                 1.459008712061998E+05,      /* J =  2 */
(PID.TID 0000.0001)                 1.399544694374234E+05,      /* J =  3 */
(PID.TID 0000.0001)                 1.338375547059709E+05,      /* J =  4 */
(PID.TID 0000.0001)                 1.275575795302040E+05,      /* J =  5 */
(PID.TID 0000.0001)                 1.211221950925184E+05,      /* J =  6 */
(PID.TID 0000.0001)                 1.145392419175564E+05,      /* J =  7 */
(PID.TID 0000.0001)                 1.078167403197357E+05,      /* J =  8 */
(PID.TID 0000.0001)                 1.009628806317309E+05,      /* J =  9 */
(PID.TID 0000.0001)                 9.398601322581600E+04,      /* J = 10 */
(PID.TID 0000.0001)                 8.689463834022089E+04,      /* J = 11 */
(PID.TID 0000.0001)                 7.969739572290120E+04,      /* J = 12 */
(PID.TID 0000.0001)                 7.240305410533583E+04,      /* J = 13 */
(PID.TID 0000.0001)                 6.502050051917860E+04,      /* J = 14 */
(PID.TID 0000.0001)                 5.755872946877906E+04,      /* J = 15 */
(PID.TID 0000.0001)                 5.002683197276441E+04       /* J = 16 */
(PID.TID 0000.0001)     ;
(PID.TID 0000.0001) dyC =  /* dyC(:,1,:,1) ( units: m ) */
(PID.TID 0000.0001)    20 @  2.223898532891175E+05              /* I =  1: 20 */
(PID.TID 0000.0001)     ;
(PID.TID 0000.0001) dyC =  /* dyC(1,:,1,:) ( units: m ) */
(PID.TID 0000.0001)    16 @  2.223898532891175E+05              /* J =  1: 16 */
(PID.TID 0000.0001)     ;
(PID.TID 0000.0001) dxV =  /* dxV(:,1,:,1) ( units: m ) */
(PID.TID 0000.0001)    20 @  1.544849730924338E+05              /* I =  1: 20 */
(PID.TID 0000.0001)     ;
(PID.TID 0000.0001) dxV =  /* dxV(1,:,1,:) ( units: m ) */
(PID.TID 0000.0001)                 1.544849730924338E+05,      /* J =  1 */
(PID.TID 0000.0001)                 1.488078573794047E+05,      /* J =  2 */
(PID.TID 0000.0001)                 1.429494422142520E+05,      /* J =  3 */
(PID.TID 0000.0001)                 1.369168651734348E+05,      /* J =  4 */
(PID.TID 0000.0001)                 1.307174760228300E+05,      /* J =  5 */
(PID.TID 0000.0001)                 1.243588277631750E+05,      /* J =  6 */
(PID.TID 0000.0001)                 1.178486674278995E+05,      /* J =  7 */
(PID.TID 0000.0001)                 1.111949266445588E+05,      /* J =  8 */
(PID.TID 0000.0001)                 1.044057119713670E+05,      /* J =  9 */
(PID.TID 0000.0001)                 9.748929502060512E+04,      /* J = 10 */
(PID.TID 0000.0001)                 9.045410238093534E+04,      /* J = 11 */
(PID.TID 0000.0001)                 8.330870535090075E+04,      /* J = 12 */
(PID.TID 0000.0001)                 7.606180949611843E+04,      /* J = 13 */
(PID.TID 0000.0001)                 6.872224404288860E+04,      /* J = 14 */
(PID.TID 0000.0001)                 6.129895112114271E+04,      /* J = 15 */
(PID.TID 0000.0001)                 5.380097486983529E+04       /* J = 16 */
(PID.TID 0000.0001)     ;
(PID.TID 0000.0001) dyU =  /* dyU(:,1,:,1) ( units: m ) */
(PID.TID 0000.0001)    20 @  2.223898532891175E+05              /* I =  1: 20 */
(PID.TID 0000.0001)     ;
(PID.TID 0000.0001) dyU =  /* dyU(1,:,1,:) ( units: m ) */
(PID.TID 0000.0001)    16 @  2.223898532891175E+05              /* J =  1: 16 */
(PID.TID 0000.0001)     ;
(PID.TID 0000.0001) rA  =  /* rA (:,1,:,1) ( units: m^2 ) */
(PID.TID 0000.0001)    20 @  3.372804882275630E+10              /* I =  1: 20 */
(PID.TID 0000.0001)     ;
(PID.TID 0000.0001) rA  =  /* rA (1,:,1,:) ( units: m^2 ) */
(PID.TID 0000.0001)                 3.372804882275630E+10,      /* J =  1 */
(PID.TID 0000.0001)                 3.244522605358471E+10,      /* J =  2 */
(PID.TID 0000.0001)                 3.112287377427108E+10,      /* J =  3 */
(PID.TID 0000.0001)                 2.976260306737437E+10,      /* J =  4 */
(PID.TID 0000.0001)                 2.836607121321784E+10,      /* J =  5 */
(PID.TID 0000.0001)                 2.693497967074614E+10,      /* J =  6 */
(PID.TID 0000.0001)                 2.547107200456132E+10,      /* J =  7 */
(PID.TID 0000.0001)                 2.397613176065682E+10,      /* J =  8 */
(PID.TID 0000.0001)                 2.245198029344207E+10,      /* J =  9 */
(PID.TID 0000.0001)                 2.090047454670177E+10,      /* J = 10 */
(PID.TID 0000.0001)                 1.932350479119805E+10,      /* J = 11 */
(PID.TID 0000.0001)                 1.772299232166360E+10,      /* J = 12 */
(PID.TID 0000.0001)                 1.610088711600326E+10,      /* J = 13 */
(PID.TID 0000.0001)                 1.445916545954351E+10,      /* J = 14 */
(PID.TID 0000.0001)                 1.279982753723478E+10,      /* J = 15 */
(PID.TID 0000.0001)                 1.112489499673432E+10       /* J = 16 */
(PID.TID 0000.0001)     ;
(PID.TID 0000.0001) rAw =  /* rAw(:,1,:,1) ( units: m^2 ) */
(PID.TID 0000.0001)    20 @  3.372804882275630E+10              /* I =  1: 20 */
(PID.TID 0000.0001)     ;
(PID.TID 0000.0001) rAw =  /* rAw(1,:,1,:) ( units: m^2 ) */
(PID.TID 0000.0001)                 3.372804882275630E+10,      /* J =  1 */
(PID.TID 0000.0001)                 3.244522605358471E+10,      /* J =  2 */
(PID.TID 0000.0001)                 3.112287377427108E+10,      /* J =  3 */
(PID.TID 0000.0001)                 2.976260306737437E+10,      /* J =  4 */
(PID.TID 0000.0001)                 2.836607121321784E+10,      /* J =  5 */
(PID.TID 0000.0001)                 2.693497967074614E+10,      /* J =  6 */
(PID.TID 0000.0001)                 2.547107200456132E+10,      /* J =  7 */
(PID.TID 0000.0001)                 2.397613176065682E+10,      /* J =  8 */
(PID.TID 0000.0001)                 2.245198029344207E+10,      /* J =  9 */
(PID.TID 0000.0001)                 2.090047454670177E+10,      /* J = 10 */
(PID.TID 0000.0001)                 1.932350479119805E+10,      /* J = 11 */
(PID.TID 0000.0001)                 1.772299232166360E+10,      /* J = 12 */
(PID.TID 0000.0001)                 1.610088711600326E+10,      /* J = 13 */
(PID.TID 0000.0001)                 1.445916545954351E+10,      /* J = 14 */
(PID.TID 0000.0001)                 1.279982753723478E+10,      /* J = 15 */
(PID.TID 0000.0001)                 1.112489499673432E+10       /* J = 16 */
(PID.TID 0000.0001)     ;
(PID.TID 0000.0001) rAs =  /* rAs(:,1,:,1) ( units: m^2 ) */
(PID.TID 0000.0001)    20 @  3.435414629417918E+10              /* I =  1: 20 */
(PID.TID 0000.0001)     ;
(PID.TID 0000.0001) rAs =  /* rAs(1,:,1,:) ( units: m^2 ) */
(PID.TID 0000.0001)                 3.435414629417918E+10,      /* J =  1 */
(PID.TID 0000.0001)                 3.309167746093097E+10,      /* J =  2 */
(PID.TID 0000.0001)                 3.178889151607872E+10,      /* J =  3 */
(PID.TID 0000.0001)                 3.044737570361747E+10,      /* J =  4 */
(PID.TID 0000.0001)                 2.906876445392020E+10,      /* J =  5 */
(PID.TID 0000.0001)                 2.765473739243563E+10,      /* J =  6 */
(PID.TID 0000.0001)                 2.620701729332415E+10,      /* J =  7 */
(PID.TID 0000.0001)                 2.472736798052209E+10,      /* J =  8 */
(PID.TID 0000.0001)                 2.321759217879512E+10,      /* J =  9 */
(PID.TID 0000.0001)                 2.167952931739416E+10,      /* J = 10 */
(PID.TID 0000.0001)                 2.011505328899539E+10,      /* J = 11 */
(PID.TID 0000.0001)                 1.852607016665020E+10,      /* J = 12 */
(PID.TID 0000.0001)                 1.691451588152944E+10,      /* J = 13 */
(PID.TID 0000.0001)                 1.528235386428863E+10,      /* J = 14 */
(PID.TID 0000.0001)                 1.363157265293026E+10,      /* J = 15 */
(PID.TID 0000.0001)                 1.196418347007692E+10       /* J = 16 */
(PID.TID 0000.0001)     ;
(PID.TID 0000.0001) globalArea = /* Integrated horizontal Area (m^2) */
(PID.TID 0000.0001)                 3.562528105304876E+12
(PID.TID 0000.0001)     ;
(PID.TID 0000.0001) // =======================================================
(PID.TID 0000.0001) // End of Model config. summary
(PID.TID 0000.0001) // =======================================================
(PID.TID 0000.0001) 
(PID.TID 0000.0001)  MDS_READ_FIELD: opening global file: LevCli_temp.labsea1979
(PID.TID 0000.0001) // =======================================================
(PID.TID 0000.0001) // Field Initial Temperature at iteration          1
(PID.TID 0000.0001) // CMIN =          9.205863475799561E-01
(PID.TID 0000.0001) // CMAX =          1.333307647705078E+01
(PID.TID 0000.0001) // CINT =          4.597218566470676E-01
(PID.TID 0000.0001) // SYMBOLS (CMIN->CMAX): -abcdefghijklmnopqrstuvwxyz+
(PID.TID 0000.0001) //                  0.0: .
(PID.TID 0000.0001) // RANGE I (Lo:Hi:Step):(   1:  20:   1)
(PID.TID 0000.0001) // RANGE J (Lo:Hi:Step):(  16:   1:  -1)
(PID.TID 0000.0001) // RANGE K (Lo:Hi:Step):(   1:   1:   1)
(PID.TID 0000.0001) // =======================================================
(PID.TID 0000.0001) K =   1
(PID.TID 0000.0001)                I=10      I=20
(PID.TID 0000.0001) |--J--|123456789|123456789|
(PID.TID 0000.0001)     16 .----...............
(PID.TID 0000.0001)     15 aabaaaaaaaa.........
(PID.TID 0000.0001)     14 .ccccccbbbbc........
(PID.TID 0000.0001)     13 ....dddddddd........
(PID.TID 0000.0001)     12 ......dcdddddd......
(PID.TID 0000.0001)     11 ........cccdd.......
(PID.TID 0000.0001)     10 .......bbcdddd......
(PID.TID 0000.0001)      9 .......cdeeffff....j
(PID.TID 0000.0001)      8 .....ccdefgghhggh..k
(PID.TID 0000.0001)      7 ......d.fghiiiiiijkl
(PID.TID 0000.0001)      6 .........ghhijjjkklm
(PID.TID 0000.0001)      5 ..........hhhijklmnn
(PID.TID 0000.0001)      4 ............ghikmopq
(PID.TID 0000.0001)      3 ..........k.hhiknqsu
(PID.TID 0000.0001)      2 .......oonm..ijknqux
(PID.TID 0000.0001)      1 ........qponlkklosw+
(PID.TID 0000.0001) // =======================================================
(PID.TID 0000.0001) // END OF FIELD                                          =
(PID.TID 0000.0001) // =======================================================
(PID.TID 0000.0001) 
(PID.TID 0000.0001)  MDS_READ_FIELD: opening global file: LevCli_salt.labsea1979
(PID.TID 0000.0001) // =======================================================
(PID.TID 0000.0001) // Field Initial Salinity at iteration          1
(PID.TID 0000.0001) // CMIN =          3.012869834899902E+01
(PID.TID 0000.0001) // CMAX =          3.487366104125977E+01
(PID.TID 0000.0001) // CINT =          1.757393589726201E-01
(PID.TID 0000.0001) // SYMBOLS (CMIN->CMAX): -abcdefghijklmnopqrstuvwxyz+
(PID.TID 0000.0001) //                  0.0: .
(PID.TID 0000.0001) // RANGE I (Lo:Hi:Step):(   1:  20:   1)
(PID.TID 0000.0001) // RANGE J (Lo:Hi:Step):(  16:   1:  -1)
(PID.TID 0000.0001) // RANGE K (Lo:Hi:Step):(   1:   1:   1)
(PID.TID 0000.0001) // =======================================================
(PID.TID 0000.0001) K =   1
(PID.TID 0000.0001)                I=10      I=20
(PID.TID 0000.0001) |--J--|123456789|123456789|
(PID.TID 0000.0001)     16 .nnos...............
(PID.TID 0000.0001)     15 lnoppppppol.........
(PID.TID 0000.0001)     14 .nponmllllmn........
(PID.TID 0000.0001)     13 ....ljhijkmo........
(PID.TID 0000.0001)     12 ......ghjlmors......
(PID.TID 0000.0001)     11 ........jmnpr.......
(PID.TID 0000.0001)     10 .......jlnpqrq......
(PID.TID 0000.0001)      9 .......noqsttts....w
(PID.TID 0000.0001)      8 .....jlnpsuvwwutu..x
(PID.TID 0000.0001)      7 ......j.rruwxyxxwxxy
(PID.TID 0000.0001)      6 .........ppruxyyzzzz
(PID.TID 0000.0001)      5 ..........ijoswyzzzz
(PID.TID 0000.0001)      4 ............iotwyzzz
(PID.TID 0000.0001)      3 ..........g.imquwyzz
(PID.TID 0000.0001)      2 .......-bef..knqtvxz
(PID.TID 0000.0001)      1 ........-cegijlosvy+
(PID.TID 0000.0001) // =======================================================
(PID.TID 0000.0001) // END OF FIELD                                          =
(PID.TID 0000.0001) // =======================================================
(PID.TID 0000.0001) 
(PID.TID 0000.0001) Start initial hydrostatic pressure computation
(PID.TID 0000.0001) Pressure is predetermined for buoyancyRelation OCEANIC
(PID.TID 0000.0001) 
(PID.TID 0000.0001)  write diagnostics summary to file ioUnit:      6
Iter.Nb:         0 ; Time(s):  0.0000000000000E+00
------------------------------------------------------------------------
2D/3D diagnostics: Number of lists:    19
------------------------------------------------------------------------
listId=   1 ; file name: EXFtaux
 nFlds, nActive,       freq     &   phase        , nLev                 
   1  |   1  |    -36000.000000     18000.000000 |   1
 levels:   1
 diag#| name   | ipt  | iMate| kLev| count | mate.C|                    
  176 |EXFtaux |    1 |    0 |   1 |     0 |
------------------------------------------------------------------------
listId=   2 ; file name: EXFtauy
 nFlds, nActive,       freq     &   phase        , nLev                 
   1  |   1  |    -36000.000000     18000.000000 |   1
 levels:   1
 diag#| name   | ipt  | iMate| kLev| count | mate.C|                    
  177 |EXFtauy |    2 |    0 |   1 |     0 |
------------------------------------------------------------------------
listId=   3 ; file name: EXFqnet
 nFlds, nActive,       freq     &   phase        , nLev                 
   1  |   1  |    -36000.000000     18000.000000 |   1
 levels:   1
 diag#| name   | ipt  | iMate| kLev| count | mate.C|                    
  175 |EXFqnet |    3 |    0 |   1 |     0 |
------------------------------------------------------------------------
listId=   4 ; file name: EXFempmr
 nFlds, nActive,       freq     &   phase        , nLev                 
   1  |   1  |    -36000.000000     18000.000000 |   1
 levels:   1
 diag#| name   | ipt  | iMate| kLev| count | mate.C|                    
  186 |EXFempmr|    4 |    0 |   1 |     0 |
------------------------------------------------------------------------
listId=   5 ; file name: EXFhl
 nFlds, nActive,       freq     &   phase        , nLev                 
   1  |   1  |    -36000.000000     18000.000000 |   1
 levels:   1
 diag#| name   | ipt  | iMate| kLev| count | mate.C|                    
  170 |EXFhl   |    5 |    0 |   1 |     0 |
------------------------------------------------------------------------
listId=   6 ; file name: EXFhs
 nFlds, nActive,       freq     &   phase        , nLev                 
   1  |   1  |    -36000.000000     18000.000000 |   1
 levels:   1
 diag#| name   | ipt  | iMate| kLev| count | mate.C|                    
  169 |EXFhs   |    6 |    0 |   1 |     0 |
------------------------------------------------------------------------
listId=   7 ; file name: EXFswnet
 nFlds, nActive,       freq     &   phase        , nLev                 
   1  |   1  |    -36000.000000     18000.000000 |   1
 levels:   1
 diag#| name   | ipt  | iMate| kLev| count | mate.C|                    
  172 |EXFswnet|    7 |    0 |   1 |     0 |
------------------------------------------------------------------------
listId=   8 ; file name: EXFlwnet
 nFlds, nActive,       freq     &   phase        , nLev                 
   1  |   1  |    -36000.000000     18000.000000 |   1
 levels:   1
 diag#| name   | ipt  | iMate| kLev| count | mate.C|                    
  171 |EXFlwnet|    8 |    0 |   1 |     0 |
------------------------------------------------------------------------
listId=   9 ; file name: EXFuwind
 nFlds, nActive,       freq     &   phase        , nLev                 
   1  |   1  |    -36000.000000     18000.000000 |   1
 levels:   1
 diag#| name   | ipt  | iMate| kLev| count | mate.C|                    
  178 |EXFuwind|    9 |    0 |   1 |     0 |
------------------------------------------------------------------------
listId=  10 ; file name: EXFvwind
 nFlds, nActive,       freq     &   phase        , nLev                 
   1  |   1  |    -36000.000000     18000.000000 |   1
 levels:   1
 diag#| name   | ipt  | iMate| kLev| count | mate.C|                    
  179 |EXFvwind|   10 |    0 |   1 |     0 |
------------------------------------------------------------------------
listId=  11 ; file name: EXFatemp
 nFlds, nActive,       freq     &   phase        , nLev                 
   1  |   1  |    -36000.000000     18000.000000 |   1
 levels:   1
 diag#| name   | ipt  | iMate| kLev| count | mate.C|                    
  181 |EXFatemp|   11 |    0 |   1 |     0 |
------------------------------------------------------------------------
listId=  12 ; file name: SIarea
 nFlds, nActive,       freq     &   phase        , nLev                 
   1  |   1  |     36000.000000         0.000000 |   1
 levels:   1
 diag#| name   | ipt  | iMate| kLev| count | mate.C|                    
  209 |SIarea  |   12 |    0 |   1 |     0 |
------------------------------------------------------------------------
listId=  13 ; file name: SIheff
 nFlds, nActive,       freq     &   phase        , nLev                 
   1  |   1  |     36000.000000         0.000000 |   1
 levels:   1
 diag#| name   | ipt  | iMate| kLev| count | mate.C|                    
  210 |SIheff  |   13 |    0 |   1 |     0 |
------------------------------------------------------------------------
listId=  14 ; file name: SIhsnow
 nFlds, nActive,       freq     &   phase        , nLev                 
   1  |   1  |     36000.000000         0.000000 |   1
 levels:   1
 diag#| name   | ipt  | iMate| kLev| count | mate.C|                    
  213 |SIhsnow |   14 |    0 |   1 |     0 |
------------------------------------------------------------------------
listId=  15 ; file name: SIuice
 nFlds, nActive,       freq     &   phase        , nLev                 
   1  |   1  |     36000.000000         0.000000 |   1
 levels:   1
 diag#| name   | ipt  | iMate| kLev| count | mate.C|                    
  211 |SIuice  |   15 |    0 |   1 |     0 |
------------------------------------------------------------------------
listId=  16 ; file name: SIvice
 nFlds, nActive,       freq     &   phase        , nLev                 
   1  |   1  |     36000.000000         0.000000 |   1
 levels:   1
 diag#| name   | ipt  | iMate| kLev| count | mate.C|                    
  212 |SIvice  |   16 |    0 |   1 |     0 |
------------------------------------------------------------------------
listId=  17 ; file name: KPPhbl
 nFlds, nActive,       freq     &   phase        , nLev                 
   1  |   1  |     36000.000000         0.000000 |   1
 levels:   1
 diag#| name   | ipt  | iMate| kLev| count | mate.C|                    
  206 |KPPhbl  |   17 |    0 |   1 |     0 |
------------------------------------------------------------------------
listId=  18 ; file name: KPPmld
 nFlds, nActive,       freq     &   phase        , nLev                 
   1  |   1  |     36000.000000         0.000000 |   1
 levels:   1
 diag#| name   | ipt  | iMate| kLev| count | mate.C|                    
  207 |KPPmld  |   18 |    0 |   1 |     0 |
------------------------------------------------------------------------
listId=  19 ; file name: KPPghat
 nFlds, nActive,       freq     &   phase        , nLev                 
   1  |   1  |     36000.000000         0.000000 |  23
 levels:   1   2   3   4   5   6   7   8   9  10  11  12  13  14  15  16  17  18  19  20  21  22  23
 diag#| name   | ipt  | iMate| kLev| count | mate.C|                    
  205 |KPPghat |   19 |    0 |  23 |     0 |
------------------------------------------------------------------------
Global & Regional Statistics diagnostics: Number of lists:     0
------------------------------------------------------------------------
(PID.TID 0000.0001) // =======================================================
(PID.TID 0000.0001) // Model current state
(PID.TID 0000.0001) // =======================================================
(PID.TID 0000.0001) 
(PID.TID 0000.0001) // =======================================================
(PID.TID 0000.0001) // Begin MONITOR dynamic field statistics
(PID.TID 0000.0001) // =======================================================
(PID.TID 0000.0001) %MON time_tsnumber                =                     0
(PID.TID 0000.0001) %MON time_secondsf                =   0.0000000000000E+00
(PID.TID 0000.0001) %MON dynstat_eta_max              =   0.0000000000000E+00
(PID.TID 0000.0001) %MON dynstat_eta_min              =   0.0000000000000E+00
(PID.TID 0000.0001) %MON dynstat_eta_mean             =   0.0000000000000E+00
(PID.TID 0000.0001) %MON dynstat_eta_sd               =   0.0000000000000E+00
(PID.TID 0000.0001) %MON dynstat_eta_del2             =   0.0000000000000E+00
(PID.TID 0000.0001) %MON dynstat_uvel_max             =   0.0000000000000E+00
(PID.TID 0000.0001) %MON dynstat_uvel_min             =   0.0000000000000E+00
(PID.TID 0000.0001) %MON dynstat_uvel_mean            =   0.0000000000000E+00
(PID.TID 0000.0001) %MON dynstat_uvel_sd              =   0.0000000000000E+00
(PID.TID 0000.0001) %MON dynstat_uvel_del2            =   0.0000000000000E+00
(PID.TID 0000.0001) %MON dynstat_vvel_max             =   0.0000000000000E+00
(PID.TID 0000.0001) %MON dynstat_vvel_min             =   0.0000000000000E+00
(PID.TID 0000.0001) %MON dynstat_vvel_mean            =   0.0000000000000E+00
(PID.TID 0000.0001) %MON dynstat_vvel_sd              =   0.0000000000000E+00
(PID.TID 0000.0001) %MON dynstat_vvel_del2            =   0.0000000000000E+00
(PID.TID 0000.0001) %MON dynstat_wvel_max             =   0.0000000000000E+00
(PID.TID 0000.0001) %MON dynstat_wvel_min             =   0.0000000000000E+00
(PID.TID 0000.0001) %MON dynstat_wvel_mean            =   0.0000000000000E+00
(PID.TID 0000.0001) %MON dynstat_wvel_sd              =   0.0000000000000E+00
(PID.TID 0000.0001) %MON dynstat_wvel_del2            =   0.0000000000000E+00
(PID.TID 0000.0001) %MON dynstat_theta_max            =   1.3333076477051E+01
(PID.TID 0000.0001) %MON dynstat_theta_min            =  -1.4103618860245E+00
(PID.TID 0000.0001) %MON dynstat_theta_mean           =   3.1168426975828E+00
(PID.TID 0000.0001) %MON dynstat_theta_sd             =   1.4047681849177E+00
(PID.TID 0000.0001) %MON dynstat_theta_del2           =   9.7237468258508E-02
(PID.TID 0000.0001) %MON dynstat_salt_max             =   3.5450622558594E+01
(PID.TID 0000.0001) %MON dynstat_salt_min             =   3.0128698348999E+01
(PID.TID 0000.0001) %MON dynstat_salt_mean            =   3.4759355674691E+01
(PID.TID 0000.0001) %MON dynstat_salt_sd              =   4.4306214753982E-01
(PID.TID 0000.0001) %MON dynstat_salt_del2            =   3.8354629598638E-02
(PID.TID 0000.0001) %MON extforcing_qnet_max          =   0.0000000000000E+00
(PID.TID 0000.0001) %MON extforcing_qnet_min          =   0.0000000000000E+00
(PID.TID 0000.0001) %MON extforcing_qnet_mean         =   0.0000000000000E+00
(PID.TID 0000.0001) %MON extforcing_qnet_sd           =   0.0000000000000E+00
(PID.TID 0000.0001) %MON extforcing_qnet_del2         =   0.0000000000000E+00
(PID.TID 0000.0001) %MON extforcing_qsw_max           =   0.0000000000000E+00
(PID.TID 0000.0001) %MON extforcing_qsw_min           =   0.0000000000000E+00
(PID.TID 0000.0001) %MON extforcing_qsw_mean          =   0.0000000000000E+00
(PID.TID 0000.0001) %MON extforcing_qsw_sd            =   0.0000000000000E+00
(PID.TID 0000.0001) %MON extforcing_qsw_del2          =   0.0000000000000E+00
(PID.TID 0000.0001) %MON extforcing_empmr_max         =   0.0000000000000E+00
(PID.TID 0000.0001) %MON extforcing_empmr_min         =   0.0000000000000E+00
(PID.TID 0000.0001) %MON extforcing_empmr_mean        =   0.0000000000000E+00
(PID.TID 0000.0001) %MON extforcing_empmr_sd          =   0.0000000000000E+00
(PID.TID 0000.0001) %MON extforcing_empmr_del2        =   0.0000000000000E+00
(PID.TID 0000.0001) %MON extforcing_fu_max            =   0.0000000000000E+00
(PID.TID 0000.0001) %MON extforcing_fu_min            =   0.0000000000000E+00
(PID.TID 0000.0001) %MON extforcing_fu_mean           =   0.0000000000000E+00
(PID.TID 0000.0001) %MON extforcing_fu_sd             =   0.0000000000000E+00
(PID.TID 0000.0001) %MON extforcing_fu_del2           =   0.0000000000000E+00
(PID.TID 0000.0001) %MON extforcing_fv_max            =   0.0000000000000E+00
(PID.TID 0000.0001) %MON extforcing_fv_min            =   0.0000000000000E+00
(PID.TID 0000.0001) %MON extforcing_fv_mean           =   0.0000000000000E+00
(PID.TID 0000.0001) %MON extforcing_fv_sd             =   0.0000000000000E+00
(PID.TID 0000.0001) %MON extforcing_fv_del2           =   0.0000000000000E+00
(PID.TID 0000.0001) %MON advcfl_uvel_max              =   0.0000000000000E+00
(PID.TID 0000.0001) %MON advcfl_vvel_max              =   0.0000000000000E+00
(PID.TID 0000.0001) %MON advcfl_wvel_max              =   0.0000000000000E+00
(PID.TID 0000.0001) %MON advcfl_W_hf_max              =   0.0000000000000E+00
(PID.TID 0000.0001) %MON pe_b_mean                    =   0.0000000000000E+00
(PID.TID 0000.0001) %MON ke_max                       =   0.0000000000000E+00
(PID.TID 0000.0001) %MON ke_mean                      =   0.0000000000000E+00
(PID.TID 0000.0001) %MON ke_vol                       =   5.3036189546438E+15
(PID.TID 0000.0001) %MON vort_r_min                   =   0.0000000000000E+00
(PID.TID 0000.0001) %MON vort_r_max                   =   0.0000000000000E+00
(PID.TID 0000.0001) %MON vort_a_mean                  =   1.2067278094140E-04
(PID.TID 0000.0001) %MON vort_a_sd                    =   8.8115075987112E-06
(PID.TID 0000.0001) %MON vort_p_mean                  =   1.7734843892147E-04
(PID.TID 0000.0001) %MON vort_p_sd                    =   1.1689234854242E-04
(PID.TID 0000.0001) %MON surfExpan_theta_mean         =   0.0000000000000E+00
(PID.TID 0000.0001) %MON surfExpan_salt_mean          =   0.0000000000000E+00
(PID.TID 0000.0001) // =======================================================
(PID.TID 0000.0001) // End MONITOR dynamic field statistics
(PID.TID 0000.0001) // =======================================================
(PID.TID 0000.0001) // =======================================================
(PID.TID 0000.0001) // Begin MONITOR SEAICE statistics
(PID.TID 0000.0001) // =======================================================
(PID.TID 0000.0001) %MON seaice_tsnumber              =                     0
(PID.TID 0000.0001) %MON seaice_time_sec              =   0.0000000000000E+00
(PID.TID 0000.0001) %MON seaice_uice_max              =   0.0000000000000E+00
(PID.TID 0000.0001) %MON seaice_uice_min              =   0.0000000000000E+00
(PID.TID 0000.0001) %MON seaice_uice_mean             =   0.0000000000000E+00
(PID.TID 0000.0001) %MON seaice_uice_sd               =   0.0000000000000E+00
(PID.TID 0000.0001) %MON seaice_uice_del2             =   0.0000000000000E+00
(PID.TID 0000.0001) %MON seaice_vice_max              =   0.0000000000000E+00
(PID.TID 0000.0001) %MON seaice_vice_min              =   0.0000000000000E+00
(PID.TID 0000.0001) %MON seaice_vice_mean             =   0.0000000000000E+00
(PID.TID 0000.0001) %MON seaice_vice_sd               =   0.0000000000000E+00
(PID.TID 0000.0001) %MON seaice_vice_del2             =   0.0000000000000E+00
(PID.TID 0000.0001) %MON seaice_area_max              =   1.0000000000000E+00
(PID.TID 0000.0001) %MON seaice_area_min              =   1.0000000000000E+00
(PID.TID 0000.0001) %MON seaice_area_mean             =   1.0000000000000E+00
(PID.TID 0000.0001) %MON seaice_area_sd               =   0.0000000000000E+00
(PID.TID 0000.0001) %MON seaice_area_del2             =   0.0000000000000E+00
(PID.TID 0000.0001) %MON seaice_heff_max              =   1.0000000000000E+00
(PID.TID 0000.0001) %MON seaice_heff_min              =   1.0000000000000E+00
(PID.TID 0000.0001) %MON seaice_heff_mean             =   1.0000000000000E+00
(PID.TID 0000.0001) %MON seaice_heff_sd               =   0.0000000000000E+00
(PID.TID 0000.0001) %MON seaice_heff_del2             =   0.0000000000000E+00
(PID.TID 0000.0001) %MON seaice_hsnow_max             =   2.0000000298023E-01
(PID.TID 0000.0001) %MON seaice_hsnow_min             =   2.0000000298023E-01
(PID.TID 0000.0001) %MON seaice_hsnow_mean            =   2.0000000298023E-01
(PID.TID 0000.0001) %MON seaice_hsnow_sd              =   2.7755575615629E-17
(PID.TID 0000.0001) %MON seaice_hsnow_del2            =   0.0000000000000E+00
(PID.TID 0000.0001) // =======================================================
(PID.TID 0000.0001) // End MONITOR SEAICE statistics
(PID.TID 0000.0001) // =======================================================
(PID.TID 0000.0001)  exf_GetFFieldsRec:
(PID.TID 0000.0001)  exf_GetFFieldsRec: first, changed, fac:   T   F   0.50000000E+00
(PID.TID 0000.0001)  exf_GetFFieldsRec: myiter, count0, count1:      0      1      2
(PID.TID 0000.0001)  exf_GetFFieldsRec:
(PID.TID 0000.0001)  MDS_READ_FIELD: opening global file: SSS_monthly.labsea1979
(PID.TID 0000.0001)  MDS_READ_FIELD: opening global file: SSS_monthly.labsea1979
(PID.TID 0000.0001)  exf_GetFFieldsRec:
(PID.TID 0000.0001)  exf_GetFFieldsRec: first, changed, fac:   T   F   0.50000000E+00
(PID.TID 0000.0001)  exf_GetFFieldsRec: myiter, count0, count1:      0      1      2
(PID.TID 0000.0001)  exf_GetFFieldsRec:
(PID.TID 0000.0001)  MDS_READ_FIELD: opening global file: u10m.labsea1979
(PID.TID 0000.0001)  MDS_READ_FIELD: opening global file: u10m.labsea1979
(PID.TID 0000.0001)  exf_GetFFieldsRec:
(PID.TID 0000.0001)  exf_GetFFieldsRec: first, changed, fac:   T   F   0.50000000E+00
(PID.TID 0000.0001)  exf_GetFFieldsRec: myiter, count0, count1:      0      1      2
(PID.TID 0000.0001)  exf_GetFFieldsRec:
(PID.TID 0000.0001)  MDS_READ_FIELD: opening global file: v10m.labsea1979
(PID.TID 0000.0001)  MDS_READ_FIELD: opening global file: v10m.labsea1979
(PID.TID 0000.0001)  exf_GetFFieldsRec:
(PID.TID 0000.0001)  exf_GetFFieldsRec: first, changed, fac:   T   F   0.50000000E+00
(PID.TID 0000.0001)  exf_GetFFieldsRec: myiter, count0, count1:      0      1      2
(PID.TID 0000.0001)  exf_GetFFieldsRec:
(PID.TID 0000.0001)  MDS_READ_FIELD: opening global file: tair.labsea1979
(PID.TID 0000.0001)  MDS_READ_FIELD: opening global file: tair.labsea1979
(PID.TID 0000.0001)  exf_GetFFieldsRec:
(PID.TID 0000.0001)  exf_GetFFieldsRec: first, changed, fac:   T   F   0.50000000E+00
(PID.TID 0000.0001)  exf_GetFFieldsRec: myiter, count0, count1:      0      1      2
(PID.TID 0000.0001)  exf_GetFFieldsRec:
(PID.TID 0000.0001)  MDS_READ_FIELD: opening global file: qa.labsea1979
(PID.TID 0000.0001)  MDS_READ_FIELD: opening global file: qa.labsea1979
(PID.TID 0000.0001)  exf_GetFFieldsRec:
(PID.TID 0000.0001)  exf_GetFFieldsRec: first, changed, fac:   T   F   0.50000000E+00
(PID.TID 0000.0001)  exf_GetFFieldsRec: myiter, count0, count1:      0      1      2
(PID.TID 0000.0001)  exf_GetFFieldsRec:
(PID.TID 0000.0001)  MDS_READ_FIELD: opening global file: prate.labsea1979
(PID.TID 0000.0001)  MDS_READ_FIELD: opening global file: prate.labsea1979
(PID.TID 0000.0001)  exf_GetFFieldsRec:
(PID.TID 0000.0001)  exf_GetFFieldsRec: first, changed, fac:   T   F   0.50000000E+00
(PID.TID 0000.0001)  exf_GetFFieldsRec: myiter, count0, count1:      0      1      2
(PID.TID 0000.0001)  exf_GetFFieldsRec:
(PID.TID 0000.0001)  MDS_READ_FIELD: opening global file: fsh.labsea1979
(PID.TID 0000.0001)  MDS_READ_FIELD: opening global file: fsh.labsea1979
(PID.TID 0000.0001)  exf_GetFFieldsRec:
(PID.TID 0000.0001)  exf_GetFFieldsRec: first, changed, fac:   T   F   0.50000000E+00
(PID.TID 0000.0001)  exf_GetFFieldsRec: myiter, count0, count1:      0      1      2
(PID.TID 0000.0001)  exf_GetFFieldsRec:
(PID.TID 0000.0001)  MDS_READ_FIELD: opening global file: flo.labsea1979
(PID.TID 0000.0001)  MDS_READ_FIELD: opening global file: flo.labsea1979
(PID.TID 0000.0001) // =======================================================
(PID.TID 0000.0001) // Begin MONITOR EXF statistics
(PID.TID 0000.0001) // =======================================================
(PID.TID 0000.0001) %MON exf_tsnumber                 =                     0
(PID.TID 0000.0001) %MON exf_time_sec                 =   0.0000000000000E+00
(PID.TID 0000.0001) %MON exf_ustress_max              =   6.3903775845771E-02
(PID.TID 0000.0001) %MON exf_ustress_min              =  -9.5324050318348E-02
(PID.TID 0000.0001) %MON exf_ustress_mean             =   2.2585162028781E-02
(PID.TID 0000.0001) %MON exf_ustress_sd               =   2.7275779997355E-02
(PID.TID 0000.0001) %MON exf_ustress_del2             =   2.9464928316532E-03
(PID.TID 0000.0001) %MON exf_vstress_max              =   5.4708944127586E-02
(PID.TID 0000.0001) %MON exf_vstress_min              =  -6.2488440618747E-02
(PID.TID 0000.0001) %MON exf_vstress_mean             =  -5.6174743223315E-03
(PID.TID 0000.0001) %MON exf_vstress_sd               =   1.5596129749990E-02
(PID.TID 0000.0001) %MON exf_vstress_del2             =   1.7930354012150E-03
(PID.TID 0000.0001) %MON exf_hflux_max                =   7.3111020636161E+02
(PID.TID 0000.0001) %MON exf_hflux_min                =   1.0991726570245E+02
(PID.TID 0000.0001) %MON exf_hflux_mean               =   2.7655955077737E+02
(PID.TID 0000.0001) %MON exf_hflux_sd                 =   1.5872019352493E+02
(PID.TID 0000.0001) %MON exf_hflux_del2               =   1.9324680413847E+01
(PID.TID 0000.0001) %MON exf_sflux_max                =   5.3473262221640E-08
(PID.TID 0000.0001) %MON exf_sflux_min                =  -6.1385296755754E-08
(PID.TID 0000.0001) %MON exf_sflux_mean               =  -7.3062646151541E-09
(PID.TID 0000.0001) %MON exf_sflux_sd                 =   2.6562207566842E-08
(PID.TID 0000.0001) %MON exf_sflux_del2               =   3.6392856083892E-09
(PID.TID 0000.0001) %MON exf_uwind_max                =   6.4643745422363E+00
(PID.TID 0000.0001) %MON exf_uwind_min                =  -6.8372380733490E+00
(PID.TID 0000.0001) %MON exf_uwind_mean               =   2.7697727336031E+00
(PID.TID 0000.0001) %MON exf_uwind_sd                 =   2.9900402496951E+00
(PID.TID 0000.0001) %MON exf_uwind_del2               =   4.5458566071621E-01
(PID.TID 0000.0001) %MON exf_vwind_max                =   3.9240682125092E+00
(PID.TID 0000.0001) %MON exf_vwind_min                =  -6.0197033882141E+00
(PID.TID 0000.0001) %MON exf_vwind_mean               =  -7.6089868124963E-01
(PID.TID 0000.0001) %MON exf_vwind_sd                 =   1.7293437592941E+00
(PID.TID 0000.0001) %MON exf_vwind_del2               =   2.9136553865392E-01
(PID.TID 0000.0001) %MON exf_wspeed_max               =   7.8832820454477E+00
(PID.TID 0000.0001) %MON exf_wspeed_min               =   4.6035219539401E-01
(PID.TID 0000.0001) %MON exf_wspeed_mean              =   4.1981217095273E+00
(PID.TID 0000.0001) %MON exf_wspeed_sd                =   1.5991724245810E+00
(PID.TID 0000.0001) %MON exf_wspeed_del2              =   5.3992800044448E-01
(PID.TID 0000.0001) %MON exf_atemp_max                =   2.8188281250000E+02
(PID.TID 0000.0001) %MON exf_atemp_min                =   2.3646176910400E+02
(PID.TID 0000.0001) %MON exf_atemp_mean               =   2.6394605784141E+02
(PID.TID 0000.0001) %MON exf_atemp_sd                 =   1.1983417694612E+01
(PID.TID 0000.0001) %MON exf_atemp_del2               =   1.2609291381836E+00
(PID.TID 0000.0001) %MON exf_aqh_max                  =   6.3231729436666E-03
(PID.TID 0000.0001) %MON exf_aqh_min                  =   1.6369274817407E-04
(PID.TID 0000.0001) %MON exf_aqh_mean                 =   2.4803629101886E-03
(PID.TID 0000.0001) %MON exf_aqh_sd                   =   1.4265074770275E-03
(PID.TID 0000.0001) %MON exf_aqh_del2                 =   1.1363974968845E-04
(PID.TID 0000.0001) %MON exf_lwflux_max               =   1.9978966060501E+02
(PID.TID 0000.0001) %MON exf_lwflux_min               =   6.3304595803996E+01
(PID.TID 0000.0001) %MON exf_lwflux_mean              =   1.0410079899302E+02
(PID.TID 0000.0001) %MON exf_lwflux_sd                =   3.6519264181786E+01
(PID.TID 0000.0001) %MON exf_lwflux_del2              =   7.9442489972315E+00
(PID.TID 0000.0001) %MON exf_precip_max               =   1.0498766300771E-07
(PID.TID 0000.0001) %MON exf_precip_min               =   2.7359498694368E-10
(PID.TID 0000.0001) %MON exf_precip_mean              =   3.6390080543085E-08
(PID.TID 0000.0001) %MON exf_precip_sd                =   2.0578148171209E-08
(PID.TID 0000.0001) %MON exf_precip_del2              =   2.9075894847352E-09
(PID.TID 0000.0001) %MON exf_snowprecip_max           =   0.0000000000000E+00
(PID.TID 0000.0001) %MON exf_snowprecip_min           =   0.0000000000000E+00
(PID.TID 0000.0001) %MON exf_snowprecip_mean          =   0.0000000000000E+00
(PID.TID 0000.0001) %MON exf_snowprecip_sd            =   0.0000000000000E+00
(PID.TID 0000.0001) %MON exf_snowprecip_del2          =   0.0000000000000E+00
(PID.TID 0000.0001) %MON exf_swflux_max               =  -8.1205755472183E-02
(PID.TID 0000.0001) %MON exf_swflux_min               =  -6.3973114013672E+01
(PID.TID 0000.0001) %MON exf_swflux_mean              =  -2.6453223022948E+01
(PID.TID 0000.0001) %MON exf_swflux_sd                =   1.9625901079469E+01
(PID.TID 0000.0001) %MON exf_swflux_del2              =   4.7901276555285E-01
(PID.TID 0000.0001) %MON exf_evap_max                 =   5.9797470045733E-08
(PID.TID 0000.0001) %MON exf_evap_min                 =   1.0729148721654E-08
(PID.TID 0000.0001) %MON exf_evap_mean                =   2.9083815927930E-08
(PID.TID 0000.0001) %MON exf_evap_sd                  =   9.2938020844541E-09
(PID.TID 0000.0001) %MON exf_evap_del2                =   3.3158897383952E-09
(PID.TID 0000.0001) %MON exf_swdown_max               =   7.1081237792969E+01
(PID.TID 0000.0001) %MON exf_swdown_min               =   9.0228617191315E-02
(PID.TID 0000.0001) %MON exf_swdown_mean              =   2.9392470025498E+01
(PID.TID 0000.0001) %MON exf_swdown_sd                =   2.1806556754965E+01
(PID.TID 0000.0001) %MON exf_swdown_del2              =   1.1683585167925E+00
(PID.TID 0000.0001) %MON exf_lwdown_max               =   3.0567971801758E+02
(PID.TID 0000.0001) %MON exf_lwdown_min               =   1.1599769210815E+02
(PID.TID 0000.0001) %MON exf_lwdown_mean              =   2.2594931695913E+02
(PID.TID 0000.0001) %MON exf_lwdown_sd                =   4.6277429231296E+01
(PID.TID 0000.0001) %MON exf_lwdown_del2              =   1.0058446947734E+01
(PID.TID 0000.0001) %MON exf_apressure_max            =   0.0000000000000E+00
(PID.TID 0000.0001) %MON exf_apressure_min            =   0.0000000000000E+00
(PID.TID 0000.0001) %MON exf_apressure_mean           =   0.0000000000000E+00
(PID.TID 0000.0001) %MON exf_apressure_sd             =   0.0000000000000E+00
(PID.TID 0000.0001) %MON exf_apressure_del2           =   0.0000000000000E+00
(PID.TID 0000.0001) %MON exf_runoff_max               =   0.0000000000000E+00
(PID.TID 0000.0001) %MON exf_runoff_min               =   0.0000000000000E+00
(PID.TID 0000.0001) %MON exf_runoff_mean              =   0.0000000000000E+00
(PID.TID 0000.0001) %MON exf_runoff_sd                =   0.0000000000000E+00
(PID.TID 0000.0001) %MON exf_runoff_del2              =   0.0000000000000E+00
(PID.TID 0000.0001) %MON exf_climsst_max              =   0.0000000000000E+00
(PID.TID 0000.0001) %MON exf_climsst_min              =   0.0000000000000E+00
(PID.TID 0000.0001) %MON exf_climsst_mean             =   0.0000000000000E+00
(PID.TID 0000.0001) %MON exf_climsst_sd               =   0.0000000000000E+00
(PID.TID 0000.0001) %MON exf_climsst_del2             =   0.0000000000000E+00
(PID.TID 0000.0001) %MON exf_climsss_max              =   3.5040330886841E+01
(PID.TID 0000.0001) %MON exf_climsss_min              =   3.0666313171387E+01
(PID.TID 0000.0001) %MON exf_climsss_mean             =   3.3459319600989E+01
(PID.TID 0000.0001) %MON exf_climsss_sd               =   1.0319548925494E+00
(PID.TID 0000.0001) %MON exf_climsss_del2             =   1.0019396146139E-01
(PID.TID 0000.0001) // =======================================================
(PID.TID 0000.0001) // End MONITOR EXF statistics
(PID.TID 0000.0001) // =======================================================
 cg2d: Sum(rhs),rhsMax =   5.55111512312578E-17  9.91088743083374E-01
(PID.TID 0000.0001)                    cg2d_init_res =    1.59855955448826E+00
(PID.TID 0000.0001)                       cg2d_iters =    44
(PID.TID 0000.0001)                         cg2d_res =    9.58033495539801E-13
(PID.TID 0000.0001) // =======================================================
(PID.TID 0000.0001) // Begin MONITOR dynamic field statistics
(PID.TID 0000.0001) // =======================================================
(PID.TID 0000.0001) %MON time_tsnumber                =                     1
(PID.TID 0000.0001) %MON time_secondsf                =   3.6000000000000E+03
(PID.TID 0000.0001) %MON dynstat_eta_max              =   2.0633096812656E-01
(PID.TID 0000.0001) %MON dynstat_eta_min              =  -7.9191669202394E-02
(PID.TID 0000.0001) %MON dynstat_eta_mean             =  -8.9046378086672E-16
(PID.TID 0000.0001) %MON dynstat_eta_sd               =   4.6881688733215E-02
(PID.TID 0000.0001) %MON dynstat_eta_del2             =   6.3062453574175E-03
(PID.TID 0000.0001) %MON dynstat_uvel_max             =   1.2938082580710E-02
(PID.TID 0000.0001) %MON dynstat_uvel_min             =  -1.9761914057831E-02
(PID.TID 0000.0001) %MON dynstat_uvel_mean            =  -9.4826929734906E-04
(PID.TID 0000.0001) %MON dynstat_uvel_sd              =   2.8472708005797E-03
(PID.TID 0000.0001) %MON dynstat_uvel_del2            =   1.2193414061986E-03
(PID.TID 0000.0001) %MON dynstat_vvel_max             =   2.0323521222551E-02
(PID.TID 0000.0001) %MON dynstat_vvel_min             =  -1.1377847109717E-02
(PID.TID 0000.0001) %MON dynstat_vvel_mean            =  -1.7089067440102E-03
(PID.TID 0000.0001) %MON dynstat_vvel_sd              =   4.3718627195989E-03
(PID.TID 0000.0001) %MON dynstat_vvel_del2            =   9.6143925440241E-04
(PID.TID 0000.0001) %MON dynstat_wvel_max             =   1.1654141867624E-04
(PID.TID 0000.0001) %MON dynstat_wvel_min             =  -4.2712819663418E-05
(PID.TID 0000.0001) %MON dynstat_wvel_mean            =   1.9772004828091E-22
(PID.TID 0000.0001) %MON dynstat_wvel_sd              =   2.4880433664236E-05
(PID.TID 0000.0001) %MON dynstat_wvel_del2            =   4.7928098157963E-06
(PID.TID 0000.0001) %MON dynstat_theta_max            =   1.3250399085630E+01
(PID.TID 0000.0001) %MON dynstat_theta_min            =  -1.9587561702091E+00
(PID.TID 0000.0001) %MON dynstat_theta_mean           =   3.0742210009912E+00
(PID.TID 0000.0001) %MON dynstat_theta_sd             =   1.4274877409879E+00
(PID.TID 0000.0001) %MON dynstat_theta_del2           =   9.5947047175705E-02
(PID.TID 0000.0001) %MON dynstat_salt_max             =   3.5450611041767E+01
(PID.TID 0000.0001) %MON dynstat_salt_min             =   2.6679760819663E+01
(PID.TID 0000.0001) %MON dynstat_salt_mean            =   3.4740313561072E+01
(PID.TID 0000.0001) %MON dynstat_salt_sd              =   5.5664436374020E-01
(PID.TID 0000.0001) %MON dynstat_salt_del2            =   3.9502089045806E-02
(PID.TID 0000.0001) %MON extforcing_qnet_max          =   8.7866060141361E+04
(PID.TID 0000.0001) %MON extforcing_qnet_min          =   3.2755643459314E+04
(PID.TID 0000.0001) %MON extforcing_qnet_mean         =   7.2152267691149E+04
(PID.TID 0000.0001) %MON extforcing_qnet_sd           =   1.7055422722803E+04
(PID.TID 0000.0001) %MON extforcing_qnet_del2         =   8.9730431027089E+02
(PID.TID 0000.0001) %MON extforcing_qsw_max           =   0.0000000000000E+00
(PID.TID 0000.0001) %MON extforcing_qsw_min           =   0.0000000000000E+00
(PID.TID 0000.0001) %MON extforcing_qsw_mean          =   0.0000000000000E+00
(PID.TID 0000.0001) %MON extforcing_qsw_sd            =   0.0000000000000E+00
(PID.TID 0000.0001) %MON extforcing_qsw_del2          =   0.0000000000000E+00
(PID.TID 0000.0001) %MON extforcing_empmr_max         =  -1.0205719721601E-04
(PID.TID 0000.0001) %MON extforcing_empmr_min         =  -2.7396808632578E-04
(PID.TID 0000.0001) %MON extforcing_empmr_mean        =  -2.2499100900699E-04
(PID.TID 0000.0001) %MON extforcing_empmr_sd          =   5.3246572960222E-05
(PID.TID 0000.0001) %MON extforcing_empmr_del2        =   2.7943801478719E-06
(PID.TID 0000.0001) %MON extforcing_fu_max            =   4.2217498317642E-04
(PID.TID 0000.0001) %MON extforcing_fu_min            =  -6.4642087456378E-05
(PID.TID 0000.0001) %MON extforcing_fu_mean           =   3.8122923134112E-05
(PID.TID 0000.0001) %MON extforcing_fu_sd             =   9.4672631872674E-05
(PID.TID 0000.0001) %MON extforcing_fu_del2           =   6.7676582991979E-06
(PID.TID 0000.0001) %MON extforcing_fv_max            =   1.2444752023042E-04
(PID.TID 0000.0001) %MON extforcing_fv_min            =  -3.2517958890710E-04
(PID.TID 0000.0001) %MON extforcing_fv_mean           =  -4.9035284995126E-05
(PID.TID 0000.0001) %MON extforcing_fv_sd             =   1.0558929047286E-04
(PID.TID 0000.0001) %MON extforcing_fv_del2           =   7.3249656978116E-06
(PID.TID 0000.0001) %MON advcfl_uvel_max              =   5.8632024478678E-04
(PID.TID 0000.0001) %MON advcfl_vvel_max              =   3.2899287138819E-04
(PID.TID 0000.0001) %MON advcfl_wvel_max              =   4.1266193625358E-02
(PID.TID 0000.0001) %MON advcfl_W_hf_max              =   4.2338125393226E-02
(PID.TID 0000.0001) %MON pe_b_mean                    =   7.2456830997801E-06
(PID.TID 0000.0001) %MON ke_max                       =   1.5738791284633E-04
(PID.TID 0000.0001) %MON ke_mean                      =   1.2134953475505E-05
(PID.TID 0000.0001) %MON ke_vol                       =   5.3036189546438E+15
(PID.TID 0000.0001) %MON vort_r_min                   =  -1.3658252617558E-07
(PID.TID 0000.0001) %MON vort_r_max                   =   1.1140183018051E-07
(PID.TID 0000.0001) %MON vort_a_mean                  =   1.2067277213565E-04
(PID.TID 0000.0001) %MON vort_a_sd                    =   8.8106494808791E-06
(PID.TID 0000.0001) %MON vort_p_mean                  =   1.7734842597998E-04
(PID.TID 0000.0001) %MON vort_p_sd                    =   1.1691076627160E-04
(PID.TID 0000.0001) %MON surfExpan_theta_mean         =   7.6789312645719E-06
(PID.TID 0000.0001) %MON surfExpan_salt_mean          =  -3.8985060856065E-06
(PID.TID 0000.0001) // =======================================================
(PID.TID 0000.0001) // End MONITOR dynamic field statistics
(PID.TID 0000.0001) // =======================================================
(PID.TID 0000.0001) // =======================================================
(PID.TID 0000.0001) // Begin MONITOR SEAICE statistics
(PID.TID 0000.0001) // =======================================================
(PID.TID 0000.0001) %MON seaice_tsnumber              =                     1
(PID.TID 0000.0001) %MON seaice_time_sec              =   3.6000000000000E+03
(PID.TID 0000.0001) %MON seaice_uice_max              =   1.6886999327057E-03
(PID.TID 0000.0001) %MON seaice_uice_min              =  -2.5856834982551E-04
(PID.TID 0000.0001) %MON seaice_uice_mean             =   1.5249169253645E-04
(PID.TID 0000.0001) %MON seaice_uice_sd               =   3.7869052749070E-04
(PID.TID 0000.0001) %MON seaice_uice_del2             =   2.7070633196791E-05
(PID.TID 0000.0001) %MON seaice_vice_max              =   4.9779008092167E-04
(PID.TID 0000.0001) %MON seaice_vice_min              =  -1.3007183556284E-03
(PID.TID 0000.0001) %MON seaice_vice_mean             =  -1.9614113998050E-04
(PID.TID 0000.0001) %MON seaice_vice_sd               =   4.2235716189143E-04
(PID.TID 0000.0001) %MON seaice_vice_del2             =   2.9299862791246E-05
(PID.TID 0000.0001) %MON seaice_area_max              =   1.0000000000000E+00
(PID.TID 0000.0001) %MON seaice_area_min              =   0.0000000000000E+00
(PID.TID 0000.0001) %MON seaice_area_mean             =   6.3252344049647E-01
(PID.TID 0000.0001) %MON seaice_area_sd               =   4.5176548311169E-01
(PID.TID 0000.0001) %MON seaice_area_del2             =   4.7398155163237E-02
(PID.TID 0000.0001) %MON seaice_heff_max              =   6.0064447500469E-01
(PID.TID 0000.0001) %MON seaice_heff_min              =   0.0000000000000E+00
(PID.TID 0000.0001) %MON seaice_heff_mean             =   1.4898200927564E-01
(PID.TID 0000.0001) %MON seaice_heff_sd               =   1.8290119881935E-01
(PID.TID 0000.0001) %MON seaice_heff_del2             =   1.0123789645360E-02
(PID.TID 0000.0001) %MON seaice_hsnow_max             =   2.0078474686707E-01
(PID.TID 0000.0001) %MON seaice_hsnow_min             =   0.0000000000000E+00
(PID.TID 0000.0001) %MON seaice_hsnow_mean            =   1.1848461913542E-01
(PID.TID 0000.0001) %MON seaice_hsnow_sd              =   9.6623082290043E-02
(PID.TID 0000.0001) %MON seaice_hsnow_del2            =   6.2677508788652E-03
(PID.TID 0000.0001) // =======================================================
(PID.TID 0000.0001) // End MONITOR SEAICE statistics
(PID.TID 0000.0001) // =======================================================
(PID.TID 0000.0001)  exf_GetFFieldsRec:
(PID.TID 0000.0001)  exf_GetFFieldsRec: first, changed, fac:   F   F   0.49863388E+00
(PID.TID 0000.0001)  exf_GetFFieldsRec: myiter, count0, count1:      1      1      2
(PID.TID 0000.0001)  exf_GetFFieldsRec:
(PID.TID 0000.0001)  exf_GetFFieldsRec:
(PID.TID 0000.0001)  exf_GetFFieldsRec: first, changed, fac:   F   F   0.49863388E+00
(PID.TID 0000.0001)  exf_GetFFieldsRec: myiter, count0, count1:      1      1      2
(PID.TID 0000.0001)  exf_GetFFieldsRec:
(PID.TID 0000.0001)  exf_GetFFieldsRec:
(PID.TID 0000.0001)  exf_GetFFieldsRec: first, changed, fac:   F   F   0.49863388E+00
(PID.TID 0000.0001)  exf_GetFFieldsRec: myiter, count0, count1:      1      1      2
(PID.TID 0000.0001)  exf_GetFFieldsRec:
(PID.TID 0000.0001)  exf_GetFFieldsRec:
(PID.TID 0000.0001)  exf_GetFFieldsRec: first, changed, fac:   F   F   0.49863388E+00
(PID.TID 0000.0001)  exf_GetFFieldsRec: myiter, count0, count1:      1      1      2
(PID.TID 0000.0001)  exf_GetFFieldsRec:
(PID.TID 0000.0001)  exf_GetFFieldsRec:
(PID.TID 0000.0001)  exf_GetFFieldsRec: first, changed, fac:   F   F   0.49863388E+00
(PID.TID 0000.0001)  exf_GetFFieldsRec: myiter, count0, count1:      1      1      2
(PID.TID 0000.0001)  exf_GetFFieldsRec:
(PID.TID 0000.0001)  exf_GetFFieldsRec:
(PID.TID 0000.0001)  exf_GetFFieldsRec: first, changed, fac:   F   F   0.49863388E+00
(PID.TID 0000.0001)  exf_GetFFieldsRec: myiter, count0, count1:      1      1      2
(PID.TID 0000.0001)  exf_GetFFieldsRec:
(PID.TID 0000.0001)  exf_GetFFieldsRec:
(PID.TID 0000.0001)  exf_GetFFieldsRec: first, changed, fac:   F   F   0.49863388E+00
(PID.TID 0000.0001)  exf_GetFFieldsRec: myiter, count0, count1:      1      1      2
(PID.TID 0000.0001)  exf_GetFFieldsRec:
(PID.TID 0000.0001)  exf_GetFFieldsRec:
(PID.TID 0000.0001)  exf_GetFFieldsRec: first, changed, fac:   F   F   0.49863388E+00
(PID.TID 0000.0001)  exf_GetFFieldsRec: myiter, count0, count1:      1      1      2
(PID.TID 0000.0001)  exf_GetFFieldsRec:
(PID.TID 0000.0001) // =======================================================
(PID.TID 0000.0001) // Begin MONITOR EXF statistics
(PID.TID 0000.0001) // =======================================================
(PID.TID 0000.0001) %MON exf_tsnumber                 =                     1
(PID.TID 0000.0001) %MON exf_time_sec                 =   3.6000000000000E+03
(PID.TID 0000.0001) %MON exf_ustress_max              =   5.2214165477892E-02
(PID.TID 0000.0001) %MON exf_ustress_min              =  -9.3781474570760E-02
(PID.TID 0000.0001) %MON exf_ustress_mean             =   1.7825444563281E-02
(PID.TID 0000.0001) %MON exf_ustress_sd               =   2.3652227242494E-02
(PID.TID 0000.0001) %MON exf_ustress_del2             =   2.8125132757375E-03
(PID.TID 0000.0001) %MON exf_vstress_max              =   5.3823823047163E-02
(PID.TID 0000.0001) %MON exf_vstress_min              =  -5.8521095490704E-02
(PID.TID 0000.0001) %MON exf_vstress_mean             =  -5.4759903595123E-03
(PID.TID 0000.0001) %MON exf_vstress_sd               =   1.4435432519312E-02
(PID.TID 0000.0001) %MON exf_vstress_del2             =   1.6957179825536E-03
(PID.TID 0000.0001) %MON exf_hflux_max                =   6.2467207657211E+02
(PID.TID 0000.0001) %MON exf_hflux_min                =  -5.3858792226581E+01
(PID.TID 0000.0001) %MON exf_hflux_mean               =   1.4651685365869E+02
(PID.TID 0000.0001) %MON exf_hflux_sd                 =   1.8188101342977E+02
(PID.TID 0000.0001) %MON exf_hflux_del2               =   1.6374699471153E+01
(PID.TID 0000.0001) %MON exf_sflux_max                =   3.9008598502336E-08
(PID.TID 0000.0001) %MON exf_sflux_min                =  -8.8902869371839E-08
(PID.TID 0000.0001) %MON exf_sflux_mean               =  -2.5937851674106E-08
(PID.TID 0000.0001) %MON exf_sflux_sd                 =   3.0595209576705E-08
(PID.TID 0000.0001) %MON exf_sflux_del2               =   3.1553400133024E-09
(PID.TID 0000.0001) %MON exf_uwind_max                =   6.4648819946852E+00
(PID.TID 0000.0001) %MON exf_uwind_min                =  -6.8372648550513E+00
(PID.TID 0000.0001) %MON exf_uwind_mean               =   2.7698802859475E+00
(PID.TID 0000.0001) %MON exf_uwind_sd                 =   2.9903162155877E+00
(PID.TID 0000.0001) %MON exf_uwind_del2               =   3.1571128430521E-01
(PID.TID 0000.0001) %MON exf_vwind_max                =   3.9240983933048E+00
(PID.TID 0000.0001) %MON exf_vwind_min                =  -6.0187974783892E+00
(PID.TID 0000.0001) %MON exf_vwind_mean               =  -7.6028090815952E-01
(PID.TID 0000.0001) %MON exf_vwind_sd                 =   1.7294518007626E+00
(PID.TID 0000.0001) %MON exf_vwind_del2               =   1.9332606060362E-01
(PID.TID 0000.0001) %MON exf_wspeed_max               =   7.8833202965791E+00
(PID.TID 0000.0001) %MON exf_wspeed_min               =   4.6010935417159E-01
(PID.TID 0000.0001) %MON exf_wspeed_mean              =   4.1982241536133E+00
(PID.TID 0000.0001) %MON exf_wspeed_sd                =   1.5994287774633E+00
(PID.TID 0000.0001) %MON exf_wspeed_del2              =   5.3995798799648E-01
(PID.TID 0000.0001) %MON exf_atemp_max                =   2.8188110034713E+02
(PID.TID 0000.0001) %MON exf_atemp_min                =   2.3645730413635E+02
(PID.TID 0000.0001) %MON exf_atemp_mean               =   2.6394141375606E+02
(PID.TID 0000.0001) %MON exf_atemp_sd                 =   1.1984878226631E+01
(PID.TID 0000.0001) %MON exf_atemp_del2               =   6.4942621846017E-01
(PID.TID 0000.0001) %MON exf_aqh_max                  =   6.3224764028055E-03
(PID.TID 0000.0001) %MON exf_aqh_min                  =   1.6359864467567E-04
(PID.TID 0000.0001) %MON exf_aqh_mean                 =   2.4798025537840E-03
(PID.TID 0000.0001) %MON exf_aqh_sd                   =   1.4264043737180E-03
(PID.TID 0000.0001) %MON exf_aqh_del2                 =   6.8126723298319E-05
(PID.TID 0000.0001) %MON exf_lwflux_max               =   1.8380777781491E+02
(PID.TID 0000.0001) %MON exf_lwflux_min               =   2.6546816742257E+01
(PID.TID 0000.0001) %MON exf_lwflux_mean              =   7.5199432387157E+01
(PID.TID 0000.0001) %MON exf_lwflux_sd                =   4.3261174294618E+01
(PID.TID 0000.0001) %MON exf_lwflux_del2              =   7.0140167105706E+00
(PID.TID 0000.0001) %MON exf_precip_max               =   1.0498904445033E-07
(PID.TID 0000.0001) %MON exf_precip_min               =   2.7346106047101E-10
(PID.TID 0000.0001) %MON exf_precip_mean              =   3.6390069699050E-08
(PID.TID 0000.0001) %MON exf_precip_sd                =   2.0578598603627E-08
(PID.TID 0000.0001) %MON exf_precip_del2              =   2.5556904838937E-09
(PID.TID 0000.0001) %MON exf_snowprecip_max           =   0.0000000000000E+00
(PID.TID 0000.0001) %MON exf_snowprecip_min           =   0.0000000000000E+00
(PID.TID 0000.0001) %MON exf_snowprecip_mean          =   0.0000000000000E+00
(PID.TID 0000.0001) %MON exf_snowprecip_sd            =   0.0000000000000E+00
(PID.TID 0000.0001) %MON exf_snowprecip_del2          =   0.0000000000000E+00
(PID.TID 0000.0001) %MON exf_swflux_max               =  -8.1206038349965E-02
(PID.TID 0000.0001) %MON exf_swflux_min               =  -6.3991984364244E+01
(PID.TID 0000.0001) %MON exf_swflux_mean              =  -2.6463755238823E+01
(PID.TID 0000.0001) %MON exf_swflux_sd                =   1.9629736696482E+01
(PID.TID 0000.0001) %MON exf_swflux_del2              =   4.7911963949881E-01
(PID.TID 0000.0001) %MON exf_evap_max                 =   4.5332143615499E-08
(PID.TID 0000.0001) %MON exf_evap_min                 =  -4.7042218679235E-09
(PID.TID 0000.0001) %MON exf_evap_mean                =   1.0452218024944E-08
(PID.TID 0000.0001) %MON exf_evap_sd                  =   1.1326541924713E-08
(PID.TID 0000.0001) %MON exf_evap_del2                =   1.6667472516791E-09
(PID.TID 0000.0001) %MON exf_swdown_max               =   7.1102204849160E+01
(PID.TID 0000.0001) %MON exf_swdown_min               =   9.0228931499961E-02
(PID.TID 0000.0001) %MON exf_swdown_mean              =   2.9404172487581E+01
(PID.TID 0000.0001) %MON exf_swdown_sd                =   2.1810818551646E+01
(PID.TID 0000.0001) %MON exf_swdown_del2              =   5.3222534124205E-01
(PID.TID 0000.0001) %MON exf_lwdown_max               =   3.0567089193375E+02
(PID.TID 0000.0001) %MON exf_lwdown_min               =   1.1598258522951E+02
(PID.TID 0000.0001) %MON exf_lwdown_mean              =   2.2593360963007E+02
(PID.TID 0000.0001) %MON exf_lwdown_sd                =   4.6281398610271E+01
(PID.TID 0000.0001) %MON exf_lwdown_del2              =   3.2440001725369E+00
(PID.TID 0000.0001) %MON exf_apressure_max            =   0.0000000000000E+00
(PID.TID 0000.0001) %MON exf_apressure_min            =   0.0000000000000E+00
(PID.TID 0000.0001) %MON exf_apressure_mean           =   0.0000000000000E+00
(PID.TID 0000.0001) %MON exf_apressure_sd             =   0.0000000000000E+00
(PID.TID 0000.0001) %MON exf_apressure_del2           =   0.0000000000000E+00
(PID.TID 0000.0001) %MON exf_runoff_max               =   0.0000000000000E+00
(PID.TID 0000.0001) %MON exf_runoff_min               =   0.0000000000000E+00
(PID.TID 0000.0001) %MON exf_runoff_mean              =   0.0000000000000E+00
(PID.TID 0000.0001) %MON exf_runoff_sd                =   0.0000000000000E+00
(PID.TID 0000.0001) %MON exf_runoff_del2              =   0.0000000000000E+00
(PID.TID 0000.0001) %MON exf_climsst_max              =   0.0000000000000E+00
(PID.TID 0000.0001) %MON exf_climsst_min              =   0.0000000000000E+00
(PID.TID 0000.0001) %MON exf_climsst_mean             =   0.0000000000000E+00
(PID.TID 0000.0001) %MON exf_climsst_sd               =   0.0000000000000E+00
(PID.TID 0000.0001) %MON exf_climsst_del2             =   0.0000000000000E+00
(PID.TID 0000.0001) %MON exf_climsss_max              =   3.5040515633880E+01
(PID.TID 0000.0001) %MON exf_climsss_min              =   3.0667072499385E+01
(PID.TID 0000.0001) %MON exf_climsss_mean             =   3.3459840934468E+01
(PID.TID 0000.0001) %MON exf_climsss_sd               =   1.0318832207269E+00
(PID.TID 0000.0001) %MON exf_climsss_del2             =   1.0017673217099E-01
(PID.TID 0000.0001) // =======================================================
(PID.TID 0000.0001) // End MONITOR EXF statistics
(PID.TID 0000.0001) // =======================================================
 cg2d: Sum(rhs),rhsMax =   3.21409565628983E-14  1.19099129645088E+00
(PID.TID 0000.0001)                    cg2d_init_res =    3.41566135881434E-01
(PID.TID 0000.0001)                       cg2d_iters =    43
(PID.TID 0000.0001)                         cg2d_res =    5.64213949492791E-13
(PID.TID 0000.0001) // =======================================================
(PID.TID 0000.0001) // Begin MONITOR dynamic field statistics
(PID.TID 0000.0001) // =======================================================
(PID.TID 0000.0001) %MON time_tsnumber                =                     2
(PID.TID 0000.0001) %MON time_secondsf                =   7.2000000000000E+03
(PID.TID 0000.0001) %MON dynstat_eta_max              =   2.8874910455310E-01
(PID.TID 0000.0001) %MON dynstat_eta_min              =  -1.2942874585885E-01
(PID.TID 0000.0001) %MON dynstat_eta_mean             =  -1.5213695765457E-15
(PID.TID 0000.0001) %MON dynstat_eta_sd               =   7.5316173243742E-02
(PID.TID 0000.0001) %MON dynstat_eta_del2             =   7.7271498354964E-03
(PID.TID 0000.0001) %MON dynstat_uvel_max             =   3.8944939452216E-02
(PID.TID 0000.0001) %MON dynstat_uvel_min             =  -4.2438583464716E-02
(PID.TID 0000.0001) %MON dynstat_uvel_mean            =  -8.3376580486601E-04
(PID.TID 0000.0001) %MON dynstat_uvel_sd              =   4.7242884334250E-03
(PID.TID 0000.0001) %MON dynstat_uvel_del2            =   2.0632125690769E-03
(PID.TID 0000.0001) %MON dynstat_vvel_max             =   4.4251085238056E-02
(PID.TID 0000.0001) %MON dynstat_vvel_min             =  -2.7702311748609E-02
(PID.TID 0000.0001) %MON dynstat_vvel_mean            =  -1.5377325432980E-03
(PID.TID 0000.0001) %MON dynstat_vvel_sd              =   7.1817535087380E-03
(PID.TID 0000.0001) %MON dynstat_vvel_del2            =   1.5333745487119E-03
(PID.TID 0000.0001) %MON dynstat_wvel_max             =   1.7613801546108E-04
(PID.TID 0000.0001) %MON dynstat_wvel_min             =  -6.8789790962248E-05
(PID.TID 0000.0001) %MON dynstat_wvel_mean            =   1.4829003621068E-21
(PID.TID 0000.0001) %MON dynstat_wvel_sd              =   3.2717491645626E-05
(PID.TID 0000.0001) %MON dynstat_wvel_del2            =   5.5499671130979E-06
(PID.TID 0000.0001) %MON dynstat_theta_max            =   1.3368970963111E+01
(PID.TID 0000.0001) %MON dynstat_theta_min            =  -2.0030123535556E+00
(PID.TID 0000.0001) %MON dynstat_theta_mean           =   3.0738597443833E+00
(PID.TID 0000.0001) %MON dynstat_theta_sd             =   1.4284485657122E+00
(PID.TID 0000.0001) %MON dynstat_theta_del2           =   9.3580950919532E-02
(PID.TID 0000.0001) %MON dynstat_salt_max             =   3.5450873061739E+01
(PID.TID 0000.0001) %MON dynstat_salt_min             =   2.6685786387457E+01
(PID.TID 0000.0001) %MON dynstat_salt_mean            =   3.4740190008713E+01
(PID.TID 0000.0001) %MON dynstat_salt_sd              =   5.5722709100468E-01
(PID.TID 0000.0001) %MON dynstat_salt_del2            =   3.8505716071697E-02
(PID.TID 0000.0001) %MON extforcing_qnet_max          =   2.0963758742124E+04
(PID.TID 0000.0001) %MON extforcing_qnet_min          =  -5.3858792226581E+01
(PID.TID 0000.0001) %MON extforcing_qnet_mean         =   5.6125891177967E+02
(PID.TID 0000.0001) %MON extforcing_qnet_sd           =   2.7607157107192E+03
(PID.TID 0000.0001) %MON extforcing_qnet_del2         =   3.5339479775790E+02
(PID.TID 0000.0001) %MON extforcing_qsw_max           =   0.0000000000000E+00
(PID.TID 0000.0001) %MON extforcing_qsw_min           =  -5.6885480722834E+01
(PID.TID 0000.0001) %MON extforcing_qsw_mean          =  -1.5638031180837E+01
(PID.TID 0000.0001) %MON extforcing_qsw_sd            =   2.0421788709393E+01
(PID.TID 0000.0001) %MON extforcing_qsw_del2          =   1.6733482311872E+00
(PID.TID 0000.0001) %MON extforcing_empmr_max         =   2.6355974171696E-07
(PID.TID 0000.0001) %MON extforcing_empmr_min         =  -6.5304607237127E-05
(PID.TID 0000.0001) %MON extforcing_empmr_mean        =  -1.7297658517751E-06
(PID.TID 0000.0001) %MON extforcing_empmr_sd          =   8.5936046086754E-06
(PID.TID 0000.0001) %MON extforcing_empmr_del2        =   1.1025008020442E-06
(PID.TID 0000.0001) %MON extforcing_fu_max            =   4.8592195034156E-02
(PID.TID 0000.0001) %MON extforcing_fu_min            =  -2.3620417364202E-03
(PID.TID 0000.0001) %MON extforcing_fu_mean           =   4.5536997210532E-03
(PID.TID 0000.0001) %MON extforcing_fu_sd             =   1.2574172606493E-02
(PID.TID 0000.0001) %MON extforcing_fu_del2           =   6.3910354500636E-04
(PID.TID 0000.0001) %MON extforcing_fv_max            =   1.0852178006854E-02
(PID.TID 0000.0001) %MON extforcing_fv_min            =  -5.8520535811117E-02
(PID.TID 0000.0001) %MON extforcing_fv_mean           =  -1.7768693999539E-03
(PID.TID 0000.0001) %MON extforcing_fv_sd             =   8.1137362018521E-03
(PID.TID 0000.0001) %MON extforcing_fv_del2           =   1.3737891602561E-03
(PID.TID 0000.0001) %MON advcfl_uvel_max              =   1.0475518798590E-03
(PID.TID 0000.0001) %MON advcfl_vvel_max              =   7.1632722671884E-04
(PID.TID 0000.0001) %MON advcfl_wvel_max              =   1.6483627285364E-02
(PID.TID 0000.0001) %MON advcfl_W_hf_max              =   1.7746795165384E-02
(PID.TID 0000.0001) %MON pe_b_mean                    =   1.8700332688901E-05
(PID.TID 0000.0001) %MON ke_max                       =   8.7564406437929E-04
(PID.TID 0000.0001) %MON ke_mean                      =   3.0089744714665E-05
(PID.TID 0000.0001) %MON ke_vol                       =   5.3036189546438E+15
(PID.TID 0000.0001) %MON vort_r_min                   =  -2.9738572079322E-07
(PID.TID 0000.0001) %MON vort_r_max                   =   2.6534676800677E-07
(PID.TID 0000.0001) %MON vort_a_mean                  =   1.2067277968616E-04
(PID.TID 0000.0001) %MON vort_a_sd                    =   8.8106984968098E-06
(PID.TID 0000.0001) %MON vort_p_mean                  =   1.7734843707669E-04
(PID.TID 0000.0001) %MON vort_p_sd                    =   1.1691624311175E-04
(PID.TID 0000.0001) %MON surfExpan_theta_mean         =   5.3669847957968E-06
(PID.TID 0000.0001) %MON surfExpan_salt_mean          =  -3.2986739801832E-06
(PID.TID 0000.0001) // =======================================================
(PID.TID 0000.0001) // End MONITOR dynamic field statistics
(PID.TID 0000.0001) // =======================================================
(PID.TID 0000.0001) // =======================================================
(PID.TID 0000.0001) // Begin MONITOR SEAICE statistics
(PID.TID 0000.0001) // =======================================================
(PID.TID 0000.0001) %MON seaice_tsnumber              =                     2
(PID.TID 0000.0001) %MON seaice_time_sec              =   7.2000000000000E+03
(PID.TID 0000.0001) %MON seaice_uice_max              =   1.2947432700817E-01
(PID.TID 0000.0001) %MON seaice_uice_min              =  -7.9271053179264E-04
(PID.TID 0000.0001) %MON seaice_uice_mean             =   1.3433211333775E-02
(PID.TID 0000.0001) %MON seaice_uice_sd               =   3.3079744405101E-02
(PID.TID 0000.0001) %MON seaice_uice_del2             =   1.6179254790315E-03
(PID.TID 0000.0001) %MON seaice_vice_max              =   6.2915978489886E-02
(PID.TID 0000.0001) %MON seaice_vice_min              =  -1.7393855215605E-01
(PID.TID 0000.0001) %MON seaice_vice_mean             =  -5.5019196882664E-03
(PID.TID 0000.0001) %MON seaice_vice_sd               =   2.6886699128861E-02
(PID.TID 0000.0001) %MON seaice_vice_del2             =   4.4430801413358E-03
(PID.TID 0000.0001) %MON seaice_area_max              =   1.0000000000000E+00
(PID.TID 0000.0001) %MON seaice_area_min              =   0.0000000000000E+00
(PID.TID 0000.0001) %MON seaice_area_mean             =   6.2539369100523E-01
(PID.TID 0000.0001) %MON seaice_area_sd               =   4.5937686745090E-01
(PID.TID 0000.0001) %MON seaice_area_del2             =   5.3175501253964E-02
(PID.TID 0000.0001) %MON seaice_heff_max              =   5.5891759848847E-01
(PID.TID 0000.0001) %MON seaice_heff_min              =   0.0000000000000E+00
(PID.TID 0000.0001) %MON seaice_heff_mean             =   1.4244358693353E-01
(PID.TID 0000.0001) %MON seaice_heff_sd               =   1.7480445473260E-01
(PID.TID 0000.0001) %MON seaice_heff_del2             =   1.3300788092131E-02
(PID.TID 0000.0001) %MON seaice_hsnow_max             =   2.0156961451394E-01
(PID.TID 0000.0001) %MON seaice_hsnow_min             =   0.0000000000000E+00
(PID.TID 0000.0001) %MON seaice_hsnow_mean            =   1.1823799440164E-01
(PID.TID 0000.0001) %MON seaice_hsnow_sd              =   9.6702637932744E-02
(PID.TID 0000.0001) %MON seaice_hsnow_del2            =   6.3247483827153E-03
(PID.TID 0000.0001) // =======================================================
(PID.TID 0000.0001) // End MONITOR SEAICE statistics
(PID.TID 0000.0001) // =======================================================
(PID.TID 0000.0001)  exf_GetFFieldsRec:
(PID.TID 0000.0001)  exf_GetFFieldsRec: first, changed, fac:   F   F   0.49726776E+00
(PID.TID 0000.0001)  exf_GetFFieldsRec: myiter, count0, count1:      2      1      2
(PID.TID 0000.0001)  exf_GetFFieldsRec:
(PID.TID 0000.0001)  exf_GetFFieldsRec:
(PID.TID 0000.0001)  exf_GetFFieldsRec: first, changed, fac:   F   F   0.49726776E+00
(PID.TID 0000.0001)  exf_GetFFieldsRec: myiter, count0, count1:      2      1      2
(PID.TID 0000.0001)  exf_GetFFieldsRec:
(PID.TID 0000.0001)  exf_GetFFieldsRec:
(PID.TID 0000.0001)  exf_GetFFieldsRec: first, changed, fac:   F   F   0.49726776E+00
(PID.TID 0000.0001)  exf_GetFFieldsRec: myiter, count0, count1:      2      1      2
(PID.TID 0000.0001)  exf_GetFFieldsRec:
(PID.TID 0000.0001)  exf_GetFFieldsRec:
(PID.TID 0000.0001)  exf_GetFFieldsRec: first, changed, fac:   F   F   0.49726776E+00
(PID.TID 0000.0001)  exf_GetFFieldsRec: myiter, count0, count1:      2      1      2
(PID.TID 0000.0001)  exf_GetFFieldsRec:
(PID.TID 0000.0001)  exf_GetFFieldsRec:
(PID.TID 0000.0001)  exf_GetFFieldsRec: first, changed, fac:   F   F   0.49726776E+00
(PID.TID 0000.0001)  exf_GetFFieldsRec: myiter, count0, count1:      2      1      2
(PID.TID 0000.0001)  exf_GetFFieldsRec:
(PID.TID 0000.0001)  exf_GetFFieldsRec:
(PID.TID 0000.0001)  exf_GetFFieldsRec: first, changed, fac:   F   F   0.49726776E+00
(PID.TID 0000.0001)  exf_GetFFieldsRec: myiter, count0, count1:      2      1      2
(PID.TID 0000.0001)  exf_GetFFieldsRec:
(PID.TID 0000.0001)  exf_GetFFieldsRec:
(PID.TID 0000.0001)  exf_GetFFieldsRec: first, changed, fac:   F   F   0.49726776E+00
(PID.TID 0000.0001)  exf_GetFFieldsRec: myiter, count0, count1:      2      1      2
(PID.TID 0000.0001)  exf_GetFFieldsRec:
(PID.TID 0000.0001)  exf_GetFFieldsRec:
(PID.TID 0000.0001)  exf_GetFFieldsRec: first, changed, fac:   F   F   0.49726776E+00
(PID.TID 0000.0001)  exf_GetFFieldsRec: myiter, count0, count1:      2      1      2
(PID.TID 0000.0001)  exf_GetFFieldsRec:
(PID.TID 0000.0001) // =======================================================
(PID.TID 0000.0001) // Begin MONITOR EXF statistics
(PID.TID 0000.0001) // =======================================================
(PID.TID 0000.0001) %MON exf_tsnumber                 =                     2
(PID.TID 0000.0001) %MON exf_time_sec                 =   7.2000000000000E+03
(PID.TID 0000.0001) %MON exf_ustress_max              =   5.2234405755890E-02
(PID.TID 0000.0001) %MON exf_ustress_min              =  -9.3783882601642E-02
(PID.TID 0000.0001) %MON exf_ustress_mean             =   1.7832417076317E-02
(PID.TID 0000.0001) %MON exf_ustress_sd               =   2.3666201697233E-02
(PID.TID 0000.0001) %MON exf_ustress_del2             =   2.8115591482655E-03
(PID.TID 0000.0001) %MON exf_vstress_max              =   5.3825408225809E-02
(PID.TID 0000.0001) %MON exf_vstress_min              =  -5.8501868988994E-02
(PID.TID 0000.0001) %MON exf_vstress_mean             =  -5.4633725167011E-03
(PID.TID 0000.0001) %MON exf_vstress_sd               =   1.4434672907019E-02
(PID.TID 0000.0001) %MON exf_vstress_del2             =   1.6953061082183E-03
(PID.TID 0000.0001) %MON exf_hflux_max                =   6.2473729290881E+02
(PID.TID 0000.0001) %MON exf_hflux_min                =  -5.1552768534623E+01
(PID.TID 0000.0001) %MON exf_hflux_mean               =   1.4566077716533E+02
(PID.TID 0000.0001) %MON exf_hflux_sd                 =   1.8037245494261E+02
(PID.TID 0000.0001) %MON exf_hflux_del2               =   1.6100504975964E+01
(PID.TID 0000.0001) %MON exf_sflux_max                =   3.9010246308265E-08
(PID.TID 0000.0001) %MON exf_sflux_min                =  -8.8920961305795E-08
(PID.TID 0000.0001) %MON exf_sflux_mean               =  -2.6036658850126E-08
(PID.TID 0000.0001) %MON exf_sflux_sd                 =   3.0431543583764E-08
(PID.TID 0000.0001) %MON exf_sflux_del2               =   3.1546397624484E-09
(PID.TID 0000.0001) %MON exf_uwind_max                =   6.4653894471340E+00
(PID.TID 0000.0001) %MON exf_uwind_min                =  -6.8372916367536E+00
(PID.TID 0000.0001) %MON exf_uwind_mean               =   2.7699878382919E+00
(PID.TID 0000.0001) %MON exf_uwind_sd                 =   2.9905922217476E+00
(PID.TID 0000.0001) %MON exf_uwind_del2               =   3.1571918852777E-01
(PID.TID 0000.0001) %MON exf_vwind_max                =   3.9241285741003E+00
(PID.TID 0000.0001) %MON exf_vwind_min                =  -6.0178915685643E+00
(PID.TID 0000.0001) %MON exf_vwind_mean               =  -7.5966313506940E-01
(PID.TID 0000.0001) %MON exf_vwind_sd                 =   1.7295599554900E+00
(PID.TID 0000.0001) %MON exf_vwind_del2               =   1.9331918926169E-01
(PID.TID 0000.0001) %MON exf_wspeed_max               =   7.8833585477315E+00
(PID.TID 0000.0001) %MON exf_wspeed_min               =   4.5986651533145E-01
(PID.TID 0000.0001) %MON exf_wspeed_mean              =   4.1983267266652E+00
(PID.TID 0000.0001) %MON exf_wspeed_sd                =   1.5996852426804E+00
(PID.TID 0000.0001) %MON exf_wspeed_del2              =   5.3998796993322E-01
(PID.TID 0000.0001) %MON exf_atemp_max                =   2.8187938819427E+02
(PID.TID 0000.0001) %MON exf_atemp_min                =   2.3645283916869E+02
(PID.TID 0000.0001) %MON exf_atemp_mean               =   2.6393676967070E+02
(PID.TID 0000.0001) %MON exf_atemp_sd                 =   1.1986339246462E+01
(PID.TID 0000.0001) %MON exf_atemp_del2               =   6.4944576186995E-01
(PID.TID 0000.0001) %MON exf_aqh_max                  =   6.3217798619445E-03
(PID.TID 0000.0001) %MON exf_aqh_min                  =   1.6350454117726E-04
(PID.TID 0000.0001) %MON exf_aqh_mean                 =   2.4792421973794E-03
(PID.TID 0000.0001) %MON exf_aqh_sd                   =   1.4263013062694E-03
(PID.TID 0000.0001) %MON exf_aqh_del2                 =   6.8113055737172E-05
(PID.TID 0000.0001) %MON exf_lwflux_max               =   1.8153308512935E+02
(PID.TID 0000.0001) %MON exf_lwflux_min               =   2.7006069556330E+01
(PID.TID 0000.0001) %MON exf_lwflux_mean              =   7.5006639432862E+01
(PID.TID 0000.0001) %MON exf_lwflux_sd                =   4.2928165350629E+01
(PID.TID 0000.0001) %MON exf_lwflux_del2              =   7.0088376517006E+00
(PID.TID 0000.0001) %MON exf_precip_max               =   1.0499042589295E-07
(PID.TID 0000.0001) %MON exf_precip_min               =   2.7332713399833E-10
(PID.TID 0000.0001) %MON exf_precip_mean              =   3.6390058855016E-08
(PID.TID 0000.0001) %MON exf_precip_sd                =   2.0579049691733E-08
(PID.TID 0000.0001) %MON exf_precip_del2              =   2.5562181770834E-09
(PID.TID 0000.0001) %MON exf_snowprecip_max           =   0.0000000000000E+00
(PID.TID 0000.0001) %MON exf_snowprecip_min           =   0.0000000000000E+00
(PID.TID 0000.0001) %MON exf_snowprecip_mean          =   0.0000000000000E+00
(PID.TID 0000.0001) %MON exf_snowprecip_sd            =   0.0000000000000E+00
(PID.TID 0000.0001) %MON exf_snowprecip_del2          =   0.0000000000000E+00
(PID.TID 0000.0001) %MON exf_swflux_max               =  -8.1206321227746E-02
(PID.TID 0000.0001) %MON exf_swflux_min               =  -6.4010854714816E+01
(PID.TID 0000.0001) %MON exf_swflux_mean              =  -2.6474287454698E+01
(PID.TID 0000.0001) %MON exf_swflux_sd                =   1.9633572905820E+01
(PID.TID 0000.0001) %MON exf_swflux_del2              =   4.7922651344477E-01
(PID.TID 0000.0001) %MON exf_evap_max                 =   4.5333128710498E-08
(PID.TID 0000.0001) %MON exf_evap_min                 =  -4.2689828424032E-09
(PID.TID 0000.0001) %MON exf_evap_mean                =   1.0353400004890E-08
(PID.TID 0000.0001) %MON exf_evap_sd                  =   1.1153282972625E-08
(PID.TID 0000.0001) %MON exf_evap_del2                =   1.3065669574472E-09
(PID.TID 0000.0001) %MON exf_swdown_max               =   7.1123171905351E+01
(PID.TID 0000.0001) %MON exf_swdown_min               =   9.0229245808607E-02
(PID.TID 0000.0001) %MON exf_swdown_mean              =   2.9415874949665E+01
(PID.TID 0000.0001) %MON exf_swdown_sd                =   2.1815081006466E+01
(PID.TID 0000.0001) %MON exf_swdown_del2              =   5.3234409007089E-01
(PID.TID 0000.0001) %MON exf_lwdown_max               =   3.0566206584993E+02
(PID.TID 0000.0001) %MON exf_lwdown_min               =   1.1596747835086E+02
(PID.TID 0000.0001) %MON exf_lwdown_mean              =   2.2591790230100E+02
(PID.TID 0000.0001) %MON exf_lwdown_sd                =   4.6285369157135E+01
(PID.TID 0000.0001) %MON exf_lwdown_del2              =   3.2440118126096E+00
(PID.TID 0000.0001) %MON exf_apressure_max            =   0.0000000000000E+00
(PID.TID 0000.0001) %MON exf_apressure_min            =   0.0000000000000E+00
(PID.TID 0000.0001) %MON exf_apressure_mean           =   0.0000000000000E+00
(PID.TID 0000.0001) %MON exf_apressure_sd             =   0.0000000000000E+00
(PID.TID 0000.0001) %MON exf_apressure_del2           =   0.0000000000000E+00
(PID.TID 0000.0001) %MON exf_runoff_max               =   0.0000000000000E+00
(PID.TID 0000.0001) %MON exf_runoff_min               =   0.0000000000000E+00
(PID.TID 0000.0001) %MON exf_runoff_mean              =   0.0000000000000E+00
(PID.TID 0000.0001) %MON exf_runoff_sd                =   0.0000000000000E+00
(PID.TID 0000.0001) %MON exf_runoff_del2              =   0.0000000000000E+00
(PID.TID 0000.0001) %MON exf_climsst_max              =   0.0000000000000E+00
(PID.TID 0000.0001) %MON exf_climsst_min              =   0.0000000000000E+00
(PID.TID 0000.0001) %MON exf_climsst_mean             =   0.0000000000000E+00
(PID.TID 0000.0001) %MON exf_climsst_sd               =   0.0000000000000E+00
(PID.TID 0000.0001) %MON exf_climsst_del2             =   0.0000000000000E+00
(PID.TID 0000.0001) %MON exf_climsss_max              =   3.5040700380919E+01
(PID.TID 0000.0001) %MON exf_climsss_min              =   3.0667831827383E+01
(PID.TID 0000.0001) %MON exf_climsss_mean             =   3.3460362267948E+01
(PID.TID 0000.0001) %MON exf_climsss_sd               =   1.0318117788237E+00
(PID.TID 0000.0001) %MON exf_climsss_del2             =   1.0015950288060E-01
(PID.TID 0000.0001) // =======================================================
(PID.TID 0000.0001) // End MONITOR EXF statistics
(PID.TID 0000.0001) // =======================================================
 cg2d: Sum(rhs),rhsMax =   5.51780843238703E-14  1.21247287513868E+00
(PID.TID 0000.0001)                    cg2d_init_res =    1.85675366608095E-01
(PID.TID 0000.0001)                       cg2d_iters =    42
(PID.TID 0000.0001)                         cg2d_res =    6.30107857234866E-13
(PID.TID 0000.0001) // =======================================================
(PID.TID 0000.0001) // Begin MONITOR dynamic field statistics
(PID.TID 0000.0001) // =======================================================
(PID.TID 0000.0001) %MON time_tsnumber                =                     3
(PID.TID 0000.0001) %MON time_secondsf                =   1.0800000000000E+04
(PID.TID 0000.0001) %MON dynstat_eta_max              =   3.1440015678987E-01
(PID.TID 0000.0001) %MON dynstat_eta_min              =  -1.4480928003683E-01
(PID.TID 0000.0001) %MON dynstat_eta_mean             =  -4.2608627667447E-15
(PID.TID 0000.0001) %MON dynstat_eta_sd               =   8.6316294084948E-02
(PID.TID 0000.0001) %MON dynstat_eta_del2             =   7.4042399701681E-03
(PID.TID 0000.0001) %MON dynstat_uvel_max             =   6.9091631086690E-02
(PID.TID 0000.0001) %MON dynstat_uvel_min             =  -5.3540035086095E-02
(PID.TID 0000.0001) %MON dynstat_uvel_mean            =  -2.3537047955048E-04
(PID.TID 0000.0001) %MON dynstat_uvel_sd              =   6.2865236634803E-03
(PID.TID 0000.0001) %MON dynstat_uvel_del2            =   2.5767753684593E-03
(PID.TID 0000.0001) %MON dynstat_vvel_max             =   6.0568782500242E-02
(PID.TID 0000.0001) %MON dynstat_vvel_min             =  -4.6016862864882E-02
(PID.TID 0000.0001) %MON dynstat_vvel_mean            =  -1.0236751586326E-03
(PID.TID 0000.0001) %MON dynstat_vvel_sd              =   9.3676955021154E-03
(PID.TID 0000.0001) %MON dynstat_vvel_del2            =   1.8576447853922E-03
(PID.TID 0000.0001) %MON dynstat_wvel_max             =   2.3721857980506E-04
(PID.TID 0000.0001) %MON dynstat_wvel_min             =  -1.0929879045709E-04
(PID.TID 0000.0001) %MON dynstat_wvel_mean            =  -5.9316014484273E-22
(PID.TID 0000.0001) %MON dynstat_wvel_sd              =   4.0853633898497E-05
(PID.TID 0000.0001) %MON dynstat_wvel_del2            =   6.3838396059048E-06
(PID.TID 0000.0001) %MON dynstat_theta_max            =   1.3369902428088E+01
(PID.TID 0000.0001) %MON dynstat_theta_min            =  -1.9783324062103E+00
(PID.TID 0000.0001) %MON dynstat_theta_mean           =   3.0738404811733E+00
(PID.TID 0000.0001) %MON dynstat_theta_sd             =   1.4283992784677E+00
(PID.TID 0000.0001) %MON dynstat_theta_del2           =   9.3478373416242E-02
(PID.TID 0000.0001) %MON dynstat_salt_max             =   3.5451062587917E+01
(PID.TID 0000.0001) %MON dynstat_salt_min             =   2.6688247493015E+01
(PID.TID 0000.0001) %MON dynstat_salt_mean            =   3.4740202345633E+01
(PID.TID 0000.0001) %MON dynstat_salt_sd              =   5.5708583958886E-01
(PID.TID 0000.0001) %MON dynstat_salt_del2            =   3.8436048840470E-02
(PID.TID 0000.0001) %MON extforcing_qnet_max          =   3.5669110274297E+02
(PID.TID 0000.0001) %MON extforcing_qnet_min          =  -4.7643351147198E+02
(PID.TID 0000.0001) %MON extforcing_qnet_mean         =   1.6317917072327E+01
(PID.TID 0000.0001) %MON extforcing_qnet_sd           =   1.3858696825643E+02
(PID.TID 0000.0001) %MON extforcing_qnet_del2         =   3.3720937166813E+01
(PID.TID 0000.0001) %MON extforcing_qsw_max           =   0.0000000000000E+00
(PID.TID 0000.0001) %MON extforcing_qsw_min           =  -5.6896544903614E+01
(PID.TID 0000.0001) %MON extforcing_qsw_mean          =  -1.5897615813758E+01
(PID.TID 0000.0001) %MON extforcing_qsw_sd            =   2.0534593319856E+01
(PID.TID 0000.0001) %MON extforcing_qsw_del2          =   1.8445689773504E+00
(PID.TID 0000.0001) %MON extforcing_empmr_max         =   1.4852858045567E-06
(PID.TID 0000.0001) %MON extforcing_empmr_min         =  -1.0788082499088E-06
(PID.TID 0000.0001) %MON extforcing_empmr_mean        =  -2.9969219044012E-08
(PID.TID 0000.0001) %MON extforcing_empmr_sd          =   4.2217369880290E-07
(PID.TID 0000.0001) %MON extforcing_empmr_del2        =   1.0362388174328E-07
(PID.TID 0000.0001) %MON extforcing_fu_max            =   4.8722451813218E-02
(PID.TID 0000.0001) %MON extforcing_fu_min            =  -4.0060736421103E-03
(PID.TID 0000.0001) %MON extforcing_fu_mean           =   4.7989895340988E-03
(PID.TID 0000.0001) %MON extforcing_fu_sd             =   1.2857488991265E-02
(PID.TID 0000.0001) %MON extforcing_fu_del2           =   8.1356296575972E-04
(PID.TID 0000.0001) %MON extforcing_fv_max            =   1.0925693359574E-02
(PID.TID 0000.0001) %MON extforcing_fv_min            =  -5.8498772330805E-02
(PID.TID 0000.0001) %MON extforcing_fv_mean           =  -4.3024654780594E-03
(PID.TID 0000.0001) %MON extforcing_fv_sd             =   1.0472307808250E-02
(PID.TID 0000.0001) %MON extforcing_fv_del2           =   1.6483397607117E-03
(PID.TID 0000.0001) %MON advcfl_uvel_max              =   2.0376463089289E-03
(PID.TID 0000.0001) %MON advcfl_vvel_max              =   9.8047466543988E-04
(PID.TID 0000.0001) %MON advcfl_wvel_max              =   9.4758913351053E-03
(PID.TID 0000.0001) %MON advcfl_W_hf_max              =   9.0685662137349E-03
(PID.TID 0000.0001) %MON pe_b_mean                    =   2.4561699489038E-05
(PID.TID 0000.0001) %MON ke_max                       =   2.3917473065263E-03
(PID.TID 0000.0001) %MON ke_mean                      =   5.0201774291551E-05
(PID.TID 0000.0001) %MON ke_vol                       =   5.3036189546438E+15
(PID.TID 0000.0001) %MON vort_r_min                   =  -4.4077281151889E-07
(PID.TID 0000.0001) %MON vort_r_max                   =   4.4077281151889E-07
(PID.TID 0000.0001) %MON vort_a_mean                  =   1.2067277939165E-04
(PID.TID 0000.0001) %MON vort_a_sd                    =   8.8112848508540E-06
(PID.TID 0000.0001) %MON vort_p_mean                  =   1.7734843664387E-04
(PID.TID 0000.0001) %MON vort_p_sd                    =   1.1691481731372E-04
(PID.TID 0000.0001) %MON surfExpan_theta_mean         =   3.2344213341407E-06
(PID.TID 0000.0001) %MON surfExpan_salt_mean          =  -1.6557629063685E-06
(PID.TID 0000.0001) // =======================================================
(PID.TID 0000.0001) // End MONITOR dynamic field statistics
(PID.TID 0000.0001) // =======================================================
(PID.TID 0000.0001) // =======================================================
(PID.TID 0000.0001) // Begin MONITOR SEAICE statistics
(PID.TID 0000.0001) // =======================================================
(PID.TID 0000.0001) %MON seaice_tsnumber              =                     3
(PID.TID 0000.0001) %MON seaice_time_sec              =   1.0800000000000E+04
(PID.TID 0000.0001) %MON seaice_uice_max              =   1.5117662507747E-01
(PID.TID 0000.0001) %MON seaice_uice_min              =  -1.5315897283784E-03
(PID.TID 0000.0001) %MON seaice_uice_mean             =   1.7990132872021E-02
(PID.TID 0000.0001) %MON seaice_uice_sd               =   4.0523702380950E-02
(PID.TID 0000.0001) %MON seaice_uice_del2             =   2.1559612869359E-03
(PID.TID 0000.0001) %MON seaice_vice_max              =   9.0881927482920E-02
(PID.TID 0000.0001) %MON seaice_vice_min              =  -1.7217129170334E-01
(PID.TID 0000.0001) %MON seaice_vice_mean             =  -1.3994936242772E-02
(PID.TID 0000.0001) %MON seaice_vice_sd               =   3.8243772362527E-02
(PID.TID 0000.0001) %MON seaice_vice_del2             =   5.2081583384075E-03
(PID.TID 0000.0001) %MON seaice_area_max              =   1.0000000000000E+00
(PID.TID 0000.0001) %MON seaice_area_min              =   0.0000000000000E+00
(PID.TID 0000.0001) %MON seaice_area_mean             =   6.2508787067107E-01
(PID.TID 0000.0001) %MON seaice_area_sd               =   4.5939771643941E-01
(PID.TID 0000.0001) %MON seaice_area_del2             =   5.3285953171017E-02
(PID.TID 0000.0001) %MON seaice_heff_max              =   5.5910608649947E-01
(PID.TID 0000.0001) %MON seaice_heff_min              =   0.0000000000000E+00
(PID.TID 0000.0001) %MON seaice_heff_mean             =   1.4245488570421E-01
(PID.TID 0000.0001) %MON seaice_heff_sd               =   1.7446362624211E-01
(PID.TID 0000.0001) %MON seaice_heff_del2             =   1.3242310575130E-02
(PID.TID 0000.0001) %MON seaice_hsnow_max             =   2.0235460086494E-01
(PID.TID 0000.0001) %MON seaice_hsnow_min             =   0.0000000000000E+00
(PID.TID 0000.0001) %MON seaice_hsnow_mean            =   1.1827452477376E-01
(PID.TID 0000.0001) %MON seaice_hsnow_sd              =   9.6810338915488E-02
(PID.TID 0000.0001) %MON seaice_hsnow_del2            =   6.3233844605274E-03
(PID.TID 0000.0001) // =======================================================
(PID.TID 0000.0001) // End MONITOR SEAICE statistics
(PID.TID 0000.0001) // =======================================================
(PID.TID 0000.0001)  exf_GetFFieldsRec:
(PID.TID 0000.0001)  exf_GetFFieldsRec: first, changed, fac:   F   F   0.49590164E+00
(PID.TID 0000.0001)  exf_GetFFieldsRec: myiter, count0, count1:      3      1      2
(PID.TID 0000.0001)  exf_GetFFieldsRec:
(PID.TID 0000.0001)  exf_GetFFieldsRec:
(PID.TID 0000.0001)  exf_GetFFieldsRec: first, changed, fac:   F   F   0.49590164E+00
(PID.TID 0000.0001)  exf_GetFFieldsRec: myiter, count0, count1:      3      1      2
(PID.TID 0000.0001)  exf_GetFFieldsRec:
(PID.TID 0000.0001)  exf_GetFFieldsRec:
(PID.TID 0000.0001)  exf_GetFFieldsRec: first, changed, fac:   F   F   0.49590164E+00
(PID.TID 0000.0001)  exf_GetFFieldsRec: myiter, count0, count1:      3      1      2
(PID.TID 0000.0001)  exf_GetFFieldsRec:
(PID.TID 0000.0001)  exf_GetFFieldsRec:
(PID.TID 0000.0001)  exf_GetFFieldsRec: first, changed, fac:   F   F   0.49590164E+00
(PID.TID 0000.0001)  exf_GetFFieldsRec: myiter, count0, count1:      3      1      2
(PID.TID 0000.0001)  exf_GetFFieldsRec:
(PID.TID 0000.0001)  exf_GetFFieldsRec:
(PID.TID 0000.0001)  exf_GetFFieldsRec: first, changed, fac:   F   F   0.49590164E+00
(PID.TID 0000.0001)  exf_GetFFieldsRec: myiter, count0, count1:      3      1      2
(PID.TID 0000.0001)  exf_GetFFieldsRec:
(PID.TID 0000.0001)  exf_GetFFieldsRec:
(PID.TID 0000.0001)  exf_GetFFieldsRec: first, changed, fac:   F   F   0.49590164E+00
(PID.TID 0000.0001)  exf_GetFFieldsRec: myiter, count0, count1:      3      1      2
(PID.TID 0000.0001)  exf_GetFFieldsRec:
(PID.TID 0000.0001)  exf_GetFFieldsRec:
(PID.TID 0000.0001)  exf_GetFFieldsRec: first, changed, fac:   F   F   0.49590164E+00
(PID.TID 0000.0001)  exf_GetFFieldsRec: myiter, count0, count1:      3      1      2
(PID.TID 0000.0001)  exf_GetFFieldsRec:
(PID.TID 0000.0001)  exf_GetFFieldsRec:
(PID.TID 0000.0001)  exf_GetFFieldsRec: first, changed, fac:   F   F   0.49590164E+00
(PID.TID 0000.0001)  exf_GetFFieldsRec: myiter, count0, count1:      3      1      2
(PID.TID 0000.0001)  exf_GetFFieldsRec:
(PID.TID 0000.0001) // =======================================================
(PID.TID 0000.0001) // Begin MONITOR EXF statistics
(PID.TID 0000.0001) // =======================================================
(PID.TID 0000.0001) %MON exf_tsnumber                 =                     3
(PID.TID 0000.0001) %MON exf_time_sec                 =   1.0800000000000E+04
(PID.TID 0000.0001) %MON exf_ustress_max              =   5.2220627144483E-02
(PID.TID 0000.0001) %MON exf_ustress_min              =  -9.3786545255084E-02
(PID.TID 0000.0001) %MON exf_ustress_mean             =   1.7845561430279E-02
(PID.TID 0000.0001) %MON exf_ustress_sd               =   2.3677344505910E-02
(PID.TID 0000.0001) %MON exf_ustress_del2             =   2.8098388405232E-03
(PID.TID 0000.0001) %MON exf_vstress_max              =   5.3827139549440E-02
(PID.TID 0000.0001) %MON exf_vstress_min              =  -5.8480082843384E-02
(PID.TID 0000.0001) %MON exf_vstress_mean             =  -5.4593854841572E-03
(PID.TID 0000.0001) %MON exf_vstress_sd               =   1.4436426119655E-02
(PID.TID 0000.0001) %MON exf_vstress_del2             =   1.6944683434246E-03
(PID.TID 0000.0001) %MON exf_hflux_max                =   6.2481867193706E+02
(PID.TID 0000.0001) %MON exf_hflux_min                =  -5.1312458018428E+01
(PID.TID 0000.0001) %MON exf_hflux_mean               =   1.4571459472168E+02
(PID.TID 0000.0001) %MON exf_hflux_sd                 =   1.8033997212742E+02
(PID.TID 0000.0001) %MON exf_hflux_del2               =   1.6106910084275E+01
(PID.TID 0000.0001) %MON exf_sflux_max                =   3.9013954602794E-08
(PID.TID 0000.0001) %MON exf_sflux_min                =  -8.8951196163635E-08
(PID.TID 0000.0001) %MON exf_sflux_mean               =  -2.6029648231708E-08
(PID.TID 0000.0001) %MON exf_sflux_sd                 =   3.0423708055662E-08
(PID.TID 0000.0001) %MON exf_sflux_del2               =   3.1565701853892E-09
(PID.TID 0000.0001) %MON exf_uwind_max                =   6.4658968995829E+00
(PID.TID 0000.0001) %MON exf_uwind_min                =  -6.8373184184559E+00
(PID.TID 0000.0001) %MON exf_uwind_mean               =   2.7700953906363E+00
(PID.TID 0000.0001) %MON exf_uwind_sd                 =   2.9908682681638E+00
(PID.TID 0000.0001) %MON exf_uwind_del2               =   3.1572709275032E-01
(PID.TID 0000.0001) %MON exf_vwind_max                =   3.9241587548959E+00
(PID.TID 0000.0001) %MON exf_vwind_min                =  -6.0169856587394E+00
(PID.TID 0000.0001) %MON exf_vwind_mean               =  -7.5904536197929E-01
(PID.TID 0000.0001) %MON exf_vwind_sd                 =   1.7296682234552E+00
(PID.TID 0000.0001) %MON exf_vwind_del2               =   1.9331231791975E-01
(PID.TID 0000.0001) %MON exf_wspeed_max               =   7.8833967989048E+00
(PID.TID 0000.0001) %MON exf_wspeed_min               =   4.5962367887737E-01
(PID.TID 0000.0001) %MON exf_wspeed_mean              =   4.1984294286706E+00
(PID.TID 0000.0001) %MON exf_wspeed_sd                =   1.5999418201857E+00
(PID.TID 0000.0001) %MON exf_wspeed_del2              =   5.4001794626742E-01
(PID.TID 0000.0001) %MON exf_atemp_max                =   2.8187767604140E+02
(PID.TID 0000.0001) %MON exf_atemp_min                =   2.3644837420104E+02
(PID.TID 0000.0001) %MON exf_atemp_mean               =   2.6393212558534E+02
(PID.TID 0000.0001) %MON exf_atemp_sd                 =   1.1987800753926E+01
(PID.TID 0000.0001) %MON exf_atemp_del2               =   6.4946530527973E-01
(PID.TID 0000.0001) %MON exf_aqh_max                  =   6.3210833210834E-03
(PID.TID 0000.0001) %MON exf_aqh_min                  =   1.6341043767886E-04
(PID.TID 0000.0001) %MON exf_aqh_mean                 =   2.4786818409748E-03
(PID.TID 0000.0001) %MON exf_aqh_sd                   =   1.4261982746893E-03
(PID.TID 0000.0001) %MON exf_aqh_del2                 =   6.8099388176025E-05
(PID.TID 0000.0001) %MON exf_lwflux_max               =   1.8154022121493E+02
(PID.TID 0000.0001) %MON exf_lwflux_min               =   2.7132527416643E+01
(PID.TID 0000.0001) %MON exf_lwflux_mean              =   7.5027178709460E+01
(PID.TID 0000.0001) %MON exf_lwflux_sd                =   4.2915553503403E+01
(PID.TID 0000.0001) %MON exf_lwflux_del2              =   7.0084661465745E+00
(PID.TID 0000.0001) %MON exf_precip_max               =   1.0499180733557E-07
(PID.TID 0000.0001) %MON exf_precip_min               =   2.7319320752566E-10
(PID.TID 0000.0001) %MON exf_precip_mean              =   3.6390048010982E-08
(PID.TID 0000.0001) %MON exf_precip_sd                =   2.0579501435483E-08
(PID.TID 0000.0001) %MON exf_precip_del2              =   2.5567458702731E-09
(PID.TID 0000.0001) %MON exf_snowprecip_max           =   0.0000000000000E+00
(PID.TID 0000.0001) %MON exf_snowprecip_min           =   0.0000000000000E+00
(PID.TID 0000.0001) %MON exf_snowprecip_mean          =   0.0000000000000E+00
(PID.TID 0000.0001) %MON exf_snowprecip_sd            =   0.0000000000000E+00
(PID.TID 0000.0001) %MON exf_snowprecip_del2          =   0.0000000000000E+00
(PID.TID 0000.0001) %MON exf_swflux_max               =  -8.1206604105527E-02
(PID.TID 0000.0001) %MON exf_swflux_min               =  -6.4029725065388E+01
(PID.TID 0000.0001) %MON exf_swflux_mean              =  -2.6484819670573E+01
(PID.TID 0000.0001) %MON exf_swflux_sd                =   1.9637409707136E+01
(PID.TID 0000.0001) %MON exf_swflux_del2              =   4.7933338739073E-01
(PID.TID 0000.0001) %MON exf_evap_max                 =   4.5336174294096E-08
(PID.TID 0000.0001) %MON exf_evap_min                 =  -4.2212113660621E-09
(PID.TID 0000.0001) %MON exf_evap_mean                =   1.0360399779274E-08
(PID.TID 0000.0001) %MON exf_evap_sd                  =   1.1142535695096E-08
(PID.TID 0000.0001) %MON exf_evap_del2                =   1.3051473297159E-09
(PID.TID 0000.0001) %MON exf_swdown_max               =   7.1144138961542E+01
(PID.TID 0000.0001) %MON exf_swdown_min               =   9.0229560117253E-02
(PID.TID 0000.0001) %MON exf_swdown_mean              =   2.9427577411748E+01
(PID.TID 0000.0001) %MON exf_swdown_sd                =   2.1819344119040E+01
(PID.TID 0000.0001) %MON exf_swdown_del2              =   5.3246283889974E-01
(PID.TID 0000.0001) %MON exf_lwdown_max               =   3.0565323976611E+02
(PID.TID 0000.0001) %MON exf_lwdown_min               =   1.1595237147222E+02
(PID.TID 0000.0001) %MON exf_lwdown_mean              =   2.2590219497194E+02
(PID.TID 0000.0001) %MON exf_lwdown_sd                =   4.6289340871590E+01
(PID.TID 0000.0001) %MON exf_lwdown_del2              =   3.2440234526824E+00
(PID.TID 0000.0001) %MON exf_apressure_max            =   0.0000000000000E+00
(PID.TID 0000.0001) %MON exf_apressure_min            =   0.0000000000000E+00
(PID.TID 0000.0001) %MON exf_apressure_mean           =   0.0000000000000E+00
(PID.TID 0000.0001) %MON exf_apressure_sd             =   0.0000000000000E+00
(PID.TID 0000.0001) %MON exf_apressure_del2           =   0.0000000000000E+00
(PID.TID 0000.0001) %MON exf_runoff_max               =   0.0000000000000E+00
(PID.TID 0000.0001) %MON exf_runoff_min               =   0.0000000000000E+00
(PID.TID 0000.0001) %MON exf_runoff_mean              =   0.0000000000000E+00
(PID.TID 0000.0001) %MON exf_runoff_sd                =   0.0000000000000E+00
(PID.TID 0000.0001) %MON exf_runoff_del2              =   0.0000000000000E+00
(PID.TID 0000.0001) %MON exf_climsst_max              =   0.0000000000000E+00
(PID.TID 0000.0001) %MON exf_climsst_min              =   0.0000000000000E+00
(PID.TID 0000.0001) %MON exf_climsst_mean             =   0.0000000000000E+00
(PID.TID 0000.0001) %MON exf_climsst_sd               =   0.0000000000000E+00
(PID.TID 0000.0001) %MON exf_climsst_del2             =   0.0000000000000E+00
(PID.TID 0000.0001) %MON exf_climsss_max              =   3.5040885127959E+01
(PID.TID 0000.0001) %MON exf_climsss_min              =   3.0668591155380E+01
(PID.TID 0000.0001) %MON exf_climsss_mean             =   3.3460883601427E+01
(PID.TID 0000.0001) %MON exf_climsss_sd               =   1.0317405668875E+00
(PID.TID 0000.0001) %MON exf_climsss_del2             =   1.0014227359021E-01
(PID.TID 0000.0001) // =======================================================
(PID.TID 0000.0001) // End MONITOR EXF statistics
(PID.TID 0000.0001) // =======================================================
 cg2d: Sum(rhs),rhsMax =   1.55431223447522E-13  1.20975022194334E+00
(PID.TID 0000.0001)                    cg2d_init_res =    1.38546394209681E-01
(PID.TID 0000.0001)                       cg2d_iters =    42
(PID.TID 0000.0001)                         cg2d_res =    6.52860338776777E-13
(PID.TID 0000.0001) // =======================================================
(PID.TID 0000.0001) // Begin MONITOR dynamic field statistics
(PID.TID 0000.0001) // =======================================================
(PID.TID 0000.0001) %MON time_tsnumber                =                     4
(PID.TID 0000.0001) %MON time_secondsf                =   1.4400000000000E+04
(PID.TID 0000.0001) %MON dynstat_eta_max              =   3.2382531792044E-01
(PID.TID 0000.0001) %MON dynstat_eta_min              =  -1.3499405741399E-01
(PID.TID 0000.0001) %MON dynstat_eta_mean             =  -4.9136125512761E-15
(PID.TID 0000.0001) %MON dynstat_eta_sd               =   8.7435169945692E-02
(PID.TID 0000.0001) %MON dynstat_eta_del2             =   6.7010464674426E-03
(PID.TID 0000.0001) %MON dynstat_uvel_max             =   9.4568558625750E-02
(PID.TID 0000.0001) %MON dynstat_uvel_min             =  -5.2241950182957E-02
(PID.TID 0000.0001) %MON dynstat_uvel_mean            =   2.9182546814898E-04
(PID.TID 0000.0001) %MON dynstat_uvel_sd              =   7.6252069505037E-03
(PID.TID 0000.0001) %MON dynstat_uvel_del2            =   2.9056205426107E-03
(PID.TID 0000.0001) %MON dynstat_vvel_max             =   7.5181399892966E-02
(PID.TID 0000.0001) %MON dynstat_vvel_min             =  -7.8775388180458E-02
(PID.TID 0000.0001) %MON dynstat_vvel_mean            =  -6.4977250242070E-04
(PID.TID 0000.0001) %MON dynstat_vvel_sd              =   1.0831880596188E-02
(PID.TID 0000.0001) %MON dynstat_vvel_del2            =   2.0338111017596E-03
(PID.TID 0000.0001) %MON dynstat_wvel_max             =   3.0079663653887E-04
(PID.TID 0000.0001) %MON dynstat_wvel_min             =  -1.6254424502782E-04
(PID.TID 0000.0001) %MON dynstat_wvel_mean            =   1.8783404586686E-21
(PID.TID 0000.0001) %MON dynstat_wvel_sd              =   4.9864681408791E-05
(PID.TID 0000.0001) %MON dynstat_wvel_del2            =   6.7446188476797E-06
(PID.TID 0000.0001) %MON dynstat_theta_max            =   1.3364985010187E+01
(PID.TID 0000.0001) %MON dynstat_theta_min            =  -1.9729320909812E+00
(PID.TID 0000.0001) %MON dynstat_theta_mean           =   3.0738298558476E+00
(PID.TID 0000.0001) %MON dynstat_theta_sd             =   1.4283367368237E+00
(PID.TID 0000.0001) %MON dynstat_theta_del2           =   9.3425295559212E-02
(PID.TID 0000.0001) %MON dynstat_salt_max             =   3.5451255605054E+01
(PID.TID 0000.0001) %MON dynstat_salt_min             =   2.6690567849779E+01
(PID.TID 0000.0001) %MON dynstat_salt_mean            =   3.4740210875642E+01
(PID.TID 0000.0001) %MON dynstat_salt_sd              =   5.5696703966884E-01
(PID.TID 0000.0001) %MON dynstat_salt_del2            =   3.8420783394881E-02
(PID.TID 0000.0001) %MON extforcing_qnet_max          =   2.3609825359796E+02
(PID.TID 0000.0001) %MON extforcing_qnet_min          =  -1.9012385026661E+02
(PID.TID 0000.0001) %MON extforcing_qnet_mean         =   9.9845615318736E+00
(PID.TID 0000.0001) %MON extforcing_qnet_sd           =   7.0431374194061E+01
(PID.TID 0000.0001) %MON extforcing_qnet_del2         =   1.6733412017188E+01
(PID.TID 0000.0001) %MON extforcing_qsw_max           =   0.0000000000000E+00
(PID.TID 0000.0001) %MON extforcing_qsw_min           =  -5.7112360705472E+01
(PID.TID 0000.0001) %MON extforcing_qsw_mean          =  -1.5931268587303E+01
(PID.TID 0000.0001) %MON extforcing_qsw_sd            =   2.0565024978643E+01
(PID.TID 0000.0001) %MON extforcing_qsw_del2          =   1.8541391506962E+00
(PID.TID 0000.0001) %MON extforcing_empmr_max         =   7.7459505350972E-07
(PID.TID 0000.0001) %MON extforcing_empmr_min         =  -7.2629005340317E-07
(PID.TID 0000.0001) %MON extforcing_empmr_mean        =  -1.0025685801777E-08
(PID.TID 0000.0001) %MON extforcing_empmr_sd          =   2.0999959418625E-07
(PID.TID 0000.0001) %MON extforcing_empmr_del2        =   4.9415200717966E-08
(PID.TID 0000.0001) %MON extforcing_fu_max            =   4.8792591635137E-02
(PID.TID 0000.0001) %MON extforcing_fu_min            =  -5.0596903811197E-03
(PID.TID 0000.0001) %MON extforcing_fu_mean           =   5.4375024592180E-03
(PID.TID 0000.0001) %MON extforcing_fu_sd             =   1.3663932551546E-02
(PID.TID 0000.0001) %MON extforcing_fu_del2           =   8.4943101936162E-04
(PID.TID 0000.0001) %MON extforcing_fv_max            =   1.0942383101104E-02
(PID.TID 0000.0001) %MON extforcing_fv_min            =  -5.8461587144308E-02
(PID.TID 0000.0001) %MON extforcing_fv_mean           =  -6.7951576775442E-03
(PID.TID 0000.0001) %MON extforcing_fv_sd             =   1.4519459198247E-02
(PID.TID 0000.0001) %MON extforcing_fv_del2           =   2.0928242158976E-03
(PID.TID 0000.0001) %MON advcfl_uvel_max              =   2.5437315542759E-03
(PID.TID 0000.0001) %MON advcfl_vvel_max              =   1.2751993548958E-03
(PID.TID 0000.0001) %MON advcfl_wvel_max              =   6.2932749908220E-03
(PID.TID 0000.0001) %MON advcfl_W_hf_max              =   8.1133449757993E-03
(PID.TID 0000.0001) %MON pe_b_mean                    =   2.5202589080458E-05
(PID.TID 0000.0001) %MON ke_max                       =   5.5501231225849E-03
(PID.TID 0000.0001) %MON ke_mean                      =   6.8838734327250E-05
(PID.TID 0000.0001) %MON ke_vol                       =   5.3036189546438E+15
(PID.TID 0000.0001) %MON vort_r_min                   =  -7.1561211194373E-07
(PID.TID 0000.0001) %MON vort_r_max                   =   4.8236092158259E-07
(PID.TID 0000.0001) %MON vort_a_mean                  =   1.2067277726958E-04
(PID.TID 0000.0001) %MON vort_a_sd                    =   8.8118349863731E-06
(PID.TID 0000.0001) %MON vort_p_mean                  =   1.7734843352514E-04
(PID.TID 0000.0001) %MON vort_p_sd                    =   1.1690987323328E-04
(PID.TID 0000.0001) %MON surfExpan_theta_mean         =   2.0748656529823E-06
(PID.TID 0000.0001) %MON surfExpan_salt_mean          =  -3.0187469703324E-07
(PID.TID 0000.0001) // =======================================================
(PID.TID 0000.0001) // End MONITOR dynamic field statistics
(PID.TID 0000.0001) // =======================================================
(PID.TID 0000.0001) // =======================================================
(PID.TID 0000.0001) // Begin MONITOR SEAICE statistics
(PID.TID 0000.0001) // =======================================================
(PID.TID 0000.0001) %MON seaice_tsnumber              =                     4
(PID.TID 0000.0001) %MON seaice_time_sec              =   1.4400000000000E+04
(PID.TID 0000.0001) %MON seaice_uice_max              =   1.9182925024893E-01
(PID.TID 0000.0001) %MON seaice_uice_min              =  -7.0615308934978E-03
(PID.TID 0000.0001) %MON seaice_uice_mean             =   2.2966610795406E-02
(PID.TID 0000.0001) %MON seaice_uice_sd               =   4.9667759902851E-02
(PID.TID 0000.0001) %MON seaice_uice_del2             =   2.7082898894108E-03
(PID.TID 0000.0001) %MON seaice_vice_max              =   1.0989502803865E-01
(PID.TID 0000.0001) %MON seaice_vice_min              =  -1.8989507192243E-01
(PID.TID 0000.0001) %MON seaice_vice_mean             =  -1.9489110140199E-02
(PID.TID 0000.0001) %MON seaice_vice_sd               =   4.7818871612219E-02
(PID.TID 0000.0001) %MON seaice_vice_del2             =   6.3371949556508E-03
(PID.TID 0000.0001) %MON seaice_area_max              =   1.0000000000000E+00
(PID.TID 0000.0001) %MON seaice_area_min              =   0.0000000000000E+00
(PID.TID 0000.0001) %MON seaice_area_mean             =   6.2489358353958E-01
(PID.TID 0000.0001) %MON seaice_area_sd               =   4.5914738417452E-01
(PID.TID 0000.0001) %MON seaice_area_del2             =   5.3311458979934E-02
(PID.TID 0000.0001) %MON seaice_heff_max              =   5.5927340557214E-01
(PID.TID 0000.0001) %MON seaice_heff_min              =   0.0000000000000E+00
(PID.TID 0000.0001) %MON seaice_heff_mean             =   1.4252608732012E-01
(PID.TID 0000.0001) %MON seaice_heff_sd               =   1.7431450323499E-01
(PID.TID 0000.0001) %MON seaice_heff_del2             =   1.3255359734833E-02
(PID.TID 0000.0001) %MON seaice_hsnow_max             =   2.0313971603186E-01
(PID.TID 0000.0001) %MON seaice_hsnow_min             =   0.0000000000000E+00
(PID.TID 0000.0001) %MON seaice_hsnow_mean            =   1.1836148812841E-01
(PID.TID 0000.0001) %MON seaice_hsnow_sd              =   9.6935754371837E-02
(PID.TID 0000.0001) %MON seaice_hsnow_del2            =   6.3919620009679E-03
(PID.TID 0000.0001) // =======================================================
(PID.TID 0000.0001) // End MONITOR SEAICE statistics
(PID.TID 0000.0001) // =======================================================
(PID.TID 0000.0001)  exf_GetFFieldsRec:
(PID.TID 0000.0001)  exf_GetFFieldsRec: first, changed, fac:   F   F   0.49453552E+00
(PID.TID 0000.0001)  exf_GetFFieldsRec: myiter, count0, count1:      4      1      2
(PID.TID 0000.0001)  exf_GetFFieldsRec:
(PID.TID 0000.0001)  exf_GetFFieldsRec:
(PID.TID 0000.0001)  exf_GetFFieldsRec: first, changed, fac:   F   F   0.49453552E+00
(PID.TID 0000.0001)  exf_GetFFieldsRec: myiter, count0, count1:      4      1      2
(PID.TID 0000.0001)  exf_GetFFieldsRec:
(PID.TID 0000.0001)  exf_GetFFieldsRec:
(PID.TID 0000.0001)  exf_GetFFieldsRec: first, changed, fac:   F   F   0.49453552E+00
(PID.TID 0000.0001)  exf_GetFFieldsRec: myiter, count0, count1:      4      1      2
(PID.TID 0000.0001)  exf_GetFFieldsRec:
(PID.TID 0000.0001)  exf_GetFFieldsRec:
(PID.TID 0000.0001)  exf_GetFFieldsRec: first, changed, fac:   F   F   0.49453552E+00
(PID.TID 0000.0001)  exf_GetFFieldsRec: myiter, count0, count1:      4      1      2
(PID.TID 0000.0001)  exf_GetFFieldsRec:
(PID.TID 0000.0001)  exf_GetFFieldsRec:
(PID.TID 0000.0001)  exf_GetFFieldsRec: first, changed, fac:   F   F   0.49453552E+00
(PID.TID 0000.0001)  exf_GetFFieldsRec: myiter, count0, count1:      4      1      2
(PID.TID 0000.0001)  exf_GetFFieldsRec:
(PID.TID 0000.0001)  exf_GetFFieldsRec:
(PID.TID 0000.0001)  exf_GetFFieldsRec: first, changed, fac:   F   F   0.49453552E+00
(PID.TID 0000.0001)  exf_GetFFieldsRec: myiter, count0, count1:      4      1      2
(PID.TID 0000.0001)  exf_GetFFieldsRec:
(PID.TID 0000.0001)  exf_GetFFieldsRec:
(PID.TID 0000.0001)  exf_GetFFieldsRec: first, changed, fac:   F   F   0.49453552E+00
(PID.TID 0000.0001)  exf_GetFFieldsRec: myiter, count0, count1:      4      1      2
(PID.TID 0000.0001)  exf_GetFFieldsRec:
(PID.TID 0000.0001)  exf_GetFFieldsRec:
(PID.TID 0000.0001)  exf_GetFFieldsRec: first, changed, fac:   F   F   0.49453552E+00
(PID.TID 0000.0001)  exf_GetFFieldsRec: myiter, count0, count1:      4      1      2
(PID.TID 0000.0001)  exf_GetFFieldsRec:
(PID.TID 0000.0001) // =======================================================
(PID.TID 0000.0001) // Begin MONITOR EXF statistics
(PID.TID 0000.0001) // =======================================================
(PID.TID 0000.0001) %MON exf_tsnumber                 =                     4
(PID.TID 0000.0001) %MON exf_time_sec                 =   1.4400000000000E+04
(PID.TID 0000.0001) %MON exf_ustress_max              =   5.2223529092631E-02
(PID.TID 0000.0001) %MON exf_ustress_min              =  -9.3790220322883E-02
(PID.TID 0000.0001) %MON exf_ustress_mean             =   1.7856704577719E-02
(PID.TID 0000.0001) %MON exf_ustress_sd               =   2.3685238917306E-02
(PID.TID 0000.0001) %MON exf_ustress_del2             =   2.8103688506980E-03
(PID.TID 0000.0001) %MON exf_vstress_max              =   5.3829451942636E-02
(PID.TID 0000.0001) %MON exf_vstress_min              =  -5.8464125883134E-02
(PID.TID 0000.0001) %MON exf_vstress_mean             =  -5.4556012409826E-03
(PID.TID 0000.0001) %MON exf_vstress_sd               =   1.4438376443096E-02
(PID.TID 0000.0001) %MON exf_vstress_del2             =   1.6946791587840E-03
(PID.TID 0000.0001) %MON exf_hflux_max                =   6.2496431383484E+02
(PID.TID 0000.0001) %MON exf_hflux_min                =  -5.1198144676307E+01
(PID.TID 0000.0001) %MON exf_hflux_mean               =   1.4578522787441E+02
(PID.TID 0000.0001) %MON exf_hflux_sd                 =   1.8032767844331E+02
(PID.TID 0000.0001) %MON exf_hflux_del2               =   1.6102536157049E+01
(PID.TID 0000.0001) %MON exf_sflux_max                =   3.9025856165445E-08
(PID.TID 0000.0001) %MON exf_sflux_min                =  -8.8953802266850E-08
(PID.TID 0000.0001) %MON exf_sflux_mean               =  -2.6021681390752E-08
(PID.TID 0000.0001) %MON exf_sflux_sd                 =   3.0418471070861E-08
(PID.TID 0000.0001) %MON exf_sflux_del2               =   3.1566191444523E-09
(PID.TID 0000.0001) %MON exf_uwind_max                =   6.4664043520318E+00
(PID.TID 0000.0001) %MON exf_uwind_min                =  -6.8373452001582E+00
(PID.TID 0000.0001) %MON exf_uwind_mean               =   2.7702029429808E+00
(PID.TID 0000.0001) %MON exf_uwind_sd                 =   2.9911443548250E+00
(PID.TID 0000.0001) %MON exf_uwind_del2               =   3.1573499697287E-01
(PID.TID 0000.0001) %MON exf_vwind_max                =   3.9241889356915E+00
(PID.TID 0000.0001) %MON exf_vwind_min                =  -6.0160797489145E+00
(PID.TID 0000.0001) %MON exf_vwind_mean               =  -7.5842758888917E-01
(PID.TID 0000.0001) %MON exf_vwind_sd                 =   1.7297766046368E+00
(PID.TID 0000.0001) %MON exf_vwind_del2               =   1.9330544657782E-01
(PID.TID 0000.0001) %MON exf_wspeed_max               =   7.8834350500991E+00
(PID.TID 0000.0001) %MON exf_wspeed_min               =   4.5938084481311E-01
(PID.TID 0000.0001) %MON exf_wspeed_mean              =   4.1985322596174E+00
(PID.TID 0000.0001) %MON exf_wspeed_sd                =   1.6001985099325E+00
(PID.TID 0000.0001) %MON exf_wspeed_del2              =   5.4004791701183E-01
(PID.TID 0000.0001) %MON exf_atemp_max                =   2.8187596388853E+02
(PID.TID 0000.0001) %MON exf_atemp_min                =   2.3644390923339E+02
(PID.TID 0000.0001) %MON exf_atemp_mean               =   2.6392748149999E+02
(PID.TID 0000.0001) %MON exf_atemp_sd                 =   1.1989262748844E+01
(PID.TID 0000.0001) %MON exf_atemp_del2               =   6.4948484868951E-01
(PID.TID 0000.0001) %MON exf_aqh_max                  =   6.3203867802223E-03
(PID.TID 0000.0001) %MON exf_aqh_min                  =   1.6331633418045E-04
(PID.TID 0000.0001) %MON exf_aqh_mean                 =   2.4781214845702E-03
(PID.TID 0000.0001) %MON exf_aqh_sd                   =   1.4260952789855E-03
(PID.TID 0000.0001) %MON exf_aqh_del2                 =   6.8085720614878E-05
(PID.TID 0000.0001) %MON exf_lwflux_max               =   1.8154794496724E+02
(PID.TID 0000.0001) %MON exf_lwflux_min               =   2.7128561737853E+01
(PID.TID 0000.0001) %MON exf_lwflux_mean              =   7.5051048229987E+01
(PID.TID 0000.0001) %MON exf_lwflux_sd                =   4.2906358936642E+01
(PID.TID 0000.0001) %MON exf_lwflux_del2              =   7.0082468152043E+00
(PID.TID 0000.0001) %MON exf_precip_max               =   1.0499318877820E-07
(PID.TID 0000.0001) %MON exf_precip_min               =   2.7305928105298E-10
(PID.TID 0000.0001) %MON exf_precip_mean              =   3.6390037166947E-08
(PID.TID 0000.0001) %MON exf_precip_sd                =   2.0579953834835E-08
(PID.TID 0000.0001) %MON exf_precip_del2              =   2.5572735634628E-09
(PID.TID 0000.0001) %MON exf_snowprecip_max           =   0.0000000000000E+00
(PID.TID 0000.0001) %MON exf_snowprecip_min           =   0.0000000000000E+00
(PID.TID 0000.0001) %MON exf_snowprecip_mean          =   0.0000000000000E+00
(PID.TID 0000.0001) %MON exf_snowprecip_sd            =   0.0000000000000E+00
(PID.TID 0000.0001) %MON exf_snowprecip_del2          =   0.0000000000000E+00
(PID.TID 0000.0001) %MON exf_swflux_max               =  -8.1206886983309E-02
(PID.TID 0000.0001) %MON exf_swflux_min               =  -6.4048595415960E+01
(PID.TID 0000.0001) %MON exf_swflux_mean              =  -2.6495351886448E+01
(PID.TID 0000.0001) %MON exf_swflux_sd                =   1.9641247100083E+01
(PID.TID 0000.0001) %MON exf_swflux_del2              =   4.7944026133668E-01
(PID.TID 0000.0001) %MON exf_evap_max                 =   4.5347413145816E-08
(PID.TID 0000.0001) %MON exf_evap_min                 =  -4.1971723187772E-09
(PID.TID 0000.0001) %MON exf_evap_mean                =   1.0368355776196E-08
(PID.TID 0000.0001) %MON exf_evap_sd                  =   1.1136304177314E-08
(PID.TID 0000.0001) %MON exf_evap_del2                =   1.3049353476592E-09
(PID.TID 0000.0001) %MON exf_swdown_max               =   7.1165106017733E+01
(PID.TID 0000.0001) %MON exf_swdown_min               =   9.0229874425898E-02
(PID.TID 0000.0001) %MON exf_swdown_mean              =   2.9439279873831E+01
(PID.TID 0000.0001) %MON exf_swdown_sd                =   2.1823607888981E+01
(PID.TID 0000.0001) %MON exf_swdown_del2              =   5.3258158772858E-01
(PID.TID 0000.0001) %MON exf_lwdown_max               =   3.0564441368228E+02
(PID.TID 0000.0001) %MON exf_lwdown_min               =   1.1593726459357E+02
(PID.TID 0000.0001) %MON exf_lwdown_mean              =   2.2588648764287E+02
(PID.TID 0000.0001) %MON exf_lwdown_sd                =   4.6293313753333E+01
(PID.TID 0000.0001) %MON exf_lwdown_del2              =   3.2440350927551E+00
(PID.TID 0000.0001) %MON exf_apressure_max            =   0.0000000000000E+00
(PID.TID 0000.0001) %MON exf_apressure_min            =   0.0000000000000E+00
(PID.TID 0000.0001) %MON exf_apressure_mean           =   0.0000000000000E+00
(PID.TID 0000.0001) %MON exf_apressure_sd             =   0.0000000000000E+00
(PID.TID 0000.0001) %MON exf_apressure_del2           =   0.0000000000000E+00
(PID.TID 0000.0001) %MON exf_runoff_max               =   0.0000000000000E+00
(PID.TID 0000.0001) %MON exf_runoff_min               =   0.0000000000000E+00
(PID.TID 0000.0001) %MON exf_runoff_mean              =   0.0000000000000E+00
(PID.TID 0000.0001) %MON exf_runoff_sd                =   0.0000000000000E+00
(PID.TID 0000.0001) %MON exf_runoff_del2              =   0.0000000000000E+00
(PID.TID 0000.0001) %MON exf_climsst_max              =   0.0000000000000E+00
(PID.TID 0000.0001) %MON exf_climsst_min              =   0.0000000000000E+00
(PID.TID 0000.0001) %MON exf_climsst_mean             =   0.0000000000000E+00
(PID.TID 0000.0001) %MON exf_climsst_sd               =   0.0000000000000E+00
(PID.TID 0000.0001) %MON exf_climsst_del2             =   0.0000000000000E+00
(PID.TID 0000.0001) %MON exf_climsss_max              =   3.5041069874998E+01
(PID.TID 0000.0001) %MON exf_climsss_min              =   3.0669350483378E+01
(PID.TID 0000.0001) %MON exf_climsss_mean             =   3.3461404934907E+01
(PID.TID 0000.0001) %MON exf_climsss_sd               =   1.0316695849659E+00
(PID.TID 0000.0001) %MON exf_climsss_del2             =   1.0012504429982E-01
(PID.TID 0000.0001) // =======================================================
(PID.TID 0000.0001) // End MONITOR EXF statistics
(PID.TID 0000.0001) // =======================================================
 cg2d: Sum(rhs),rhsMax =   1.80744308408975E-13  1.20485268788144E+00
(PID.TID 0000.0001)                    cg2d_init_res =    1.08416545300781E-01
(PID.TID 0000.0001)                       cg2d_iters =    41
(PID.TID 0000.0001)                         cg2d_res =    8.97946913332204E-13
(PID.TID 0000.0001) // =======================================================
(PID.TID 0000.0001) // Begin MONITOR dynamic field statistics
(PID.TID 0000.0001) // =======================================================
(PID.TID 0000.0001) %MON time_tsnumber                =                     5
(PID.TID 0000.0001) %MON time_secondsf                =   1.8000000000000E+04
(PID.TID 0000.0001) %MON dynstat_eta_max              =   3.2888339462588E-01
(PID.TID 0000.0001) %MON dynstat_eta_min              =  -1.3141128897237E-01
(PID.TID 0000.0001) %MON dynstat_eta_mean             =  -8.7435919300689E-15
(PID.TID 0000.0001) %MON dynstat_eta_sd               =   8.4324367527895E-02
(PID.TID 0000.0001) %MON dynstat_eta_del2             =   6.6025249222523E-03
(PID.TID 0000.0001) %MON dynstat_uvel_max             =   1.0581862219617E-01
(PID.TID 0000.0001) %MON dynstat_uvel_min             =  -4.4185599825883E-02
(PID.TID 0000.0001) %MON dynstat_uvel_mean            =   5.5980835469310E-04
(PID.TID 0000.0001) %MON dynstat_uvel_sd              =   8.7568463301090E-03
(PID.TID 0000.0001) %MON dynstat_uvel_del2            =   3.0321430333935E-03
(PID.TID 0000.0001) %MON dynstat_vvel_max             =   8.3739071845076E-02
(PID.TID 0000.0001) %MON dynstat_vvel_min             =  -1.2202630726203E-01
(PID.TID 0000.0001) %MON dynstat_vvel_mean            =  -4.4506607936812E-04
(PID.TID 0000.0001) %MON dynstat_vvel_sd              =   1.1524000917052E-02
(PID.TID 0000.0001) %MON dynstat_vvel_del2            =   2.1950773522319E-03
(PID.TID 0000.0001) %MON dynstat_wvel_max             =   3.5469303841298E-04
(PID.TID 0000.0001) %MON dynstat_wvel_min             =  -2.2681889980615E-04
(PID.TID 0000.0001) %MON dynstat_wvel_mean            =   2.7062931608449E-21
(PID.TID 0000.0001) %MON dynstat_wvel_sd              =   5.7853142656454E-05
(PID.TID 0000.0001) %MON dynstat_wvel_del2            =   6.3544738921823E-06
(PID.TID 0000.0001) %MON dynstat_theta_max            =   1.3361240502732E+01
(PID.TID 0000.0001) %MON dynstat_theta_min            =  -1.9659343532547E+00
(PID.TID 0000.0001) %MON dynstat_theta_mean           =   3.0738216604492E+00
(PID.TID 0000.0001) %MON dynstat_theta_sd             =   1.4282682068874E+00
(PID.TID 0000.0001) %MON dynstat_theta_del2           =   9.3405562750309E-02
(PID.TID 0000.0001) %MON dynstat_salt_max             =   3.5451418629081E+01
(PID.TID 0000.0001) %MON dynstat_salt_min             =   2.6692672891459E+01
(PID.TID 0000.0001) %MON dynstat_salt_mean            =   3.4740217012282E+01
(PID.TID 0000.0001) %MON dynstat_salt_sd              =   5.5686216286007E-01
(PID.TID 0000.0001) %MON dynstat_salt_del2            =   3.8413058746041E-02
(PID.TID 0000.0001) %MON extforcing_qnet_max          =   1.6782478085860E+02
(PID.TID 0000.0001) %MON extforcing_qnet_min          =  -1.4565836887685E+02
(PID.TID 0000.0001) %MON extforcing_qnet_mean         =   8.2279588011910E+00
(PID.TID 0000.0001) %MON extforcing_qnet_sd           =   4.4804040469165E+01
(PID.TID 0000.0001) %MON extforcing_qnet_del2         =   8.6886557823573E+00
(PID.TID 0000.0001) %MON extforcing_qsw_max           =   0.0000000000000E+00
(PID.TID 0000.0001) %MON extforcing_qsw_min           =  -5.7171648240049E+01
(PID.TID 0000.0001) %MON extforcing_qsw_mean          =  -1.5895582868340E+01
(PID.TID 0000.0001) %MON extforcing_qsw_sd            =   2.0591323990506E+01
(PID.TID 0000.0001) %MON extforcing_qsw_del2          =   1.8546646020758E+00
(PID.TID 0000.0001) %MON extforcing_empmr_max         =   7.9033148240059E-07
(PID.TID 0000.0001) %MON extforcing_empmr_min         =  -5.1347712623886E-07
(PID.TID 0000.0001) %MON extforcing_empmr_mean        =  -4.4876587975886E-09
(PID.TID 0000.0001) %MON extforcing_empmr_sd          =   1.2977620071214E-07
(PID.TID 0000.0001) %MON extforcing_empmr_del2        =   2.4674726739561E-08
(PID.TID 0000.0001) %MON extforcing_fu_max            =   4.8827004079424E-02
(PID.TID 0000.0001) %MON extforcing_fu_min            =  -6.1388667785684E-03
(PID.TID 0000.0001) %MON extforcing_fu_mean           =   5.8140629530081E-03
(PID.TID 0000.0001) %MON extforcing_fu_sd             =   1.4196198863935E-02
(PID.TID 0000.0001) %MON extforcing_fu_del2           =   9.0437862179885E-04
(PID.TID 0000.0001) %MON extforcing_fv_max            =   1.0951010296035E-02
(PID.TID 0000.0001) %MON extforcing_fv_min            =  -5.8427324421782E-02
(PID.TID 0000.0001) %MON extforcing_fv_mean           =  -7.5686421620925E-03
(PID.TID 0000.0001) %MON extforcing_fv_sd             =   1.5793529674294E-02
(PID.TID 0000.0001) %MON extforcing_fv_del2           =   2.1762321982972E-03
(PID.TID 0000.0001) %MON advcfl_uvel_max              =   2.8463389124460E-03
(PID.TID 0000.0001) %MON advcfl_vvel_max              =   1.9753361030020E-03
(PID.TID 0000.0001) %MON advcfl_wvel_max              =   6.9253458849476E-03
(PID.TID 0000.0001) %MON advcfl_W_hf_max              =   9.3624337909947E-03
(PID.TID 0000.0001) %MON pe_b_mean                    =   2.3441156069367E-05
(PID.TID 0000.0001) %MON ke_max                       =   9.1682788409326E-03
(PID.TID 0000.0001) %MON ke_mean                      =   8.2185742682061E-05
(PID.TID 0000.0001) %MON ke_vol                       =   5.3036189546438E+15
(PID.TID 0000.0001) %MON vort_r_min                   =  -9.7287778812171E-07
(PID.TID 0000.0001) %MON vort_r_max                   =   6.0745221674975E-07
(PID.TID 0000.0001) %MON vort_a_mean                  =   1.2067277447516E-04
(PID.TID 0000.0001) %MON vort_a_sd                    =   8.8121538802203E-06
(PID.TID 0000.0001) %MON vort_p_mean                  =   1.7734842941828E-04
(PID.TID 0000.0001) %MON vort_p_sd                    =   1.1690346917376E-04
(PID.TID 0000.0001) %MON surfExpan_theta_mean         =   1.4576900953494E-06
(PID.TID 0000.0001) %MON surfExpan_salt_mean          =   4.9489570640688E-07
(PID.TID 0000.0001) // =======================================================
(PID.TID 0000.0001) // End MONITOR dynamic field statistics
(PID.TID 0000.0001) // =======================================================
(PID.TID 0000.0001) // =======================================================
(PID.TID 0000.0001) // Begin MONITOR SEAICE statistics
(PID.TID 0000.0001) // =======================================================
(PID.TID 0000.0001) %MON seaice_tsnumber              =                     5
(PID.TID 0000.0001) %MON seaice_time_sec              =   1.8000000000000E+04
(PID.TID 0000.0001) %MON seaice_uice_max              =   2.2883055370577E-01
(PID.TID 0000.0001) %MON seaice_uice_min              =  -2.0297998905382E-02
(PID.TID 0000.0001) %MON seaice_uice_mean             =   2.6118022165211E-02
(PID.TID 0000.0001) %MON seaice_uice_sd               =   5.7363383093039E-02
(PID.TID 0000.0001) %MON seaice_uice_del2             =   3.1428743929466E-03
(PID.TID 0000.0001) %MON seaice_vice_max              =   1.1563821257039E-01
(PID.TID 0000.0001) %MON seaice_vice_min              =  -1.9488082174093E-01
(PID.TID 0000.0001) %MON seaice_vice_mean             =  -2.3648997719409E-02
(PID.TID 0000.0001) %MON seaice_vice_sd               =   5.4301859202131E-02
(PID.TID 0000.0001) %MON seaice_vice_del2             =   6.8861640776609E-03
(PID.TID 0000.0001) %MON seaice_area_max              =   1.0000000000000E+00
(PID.TID 0000.0001) %MON seaice_area_min              =   0.0000000000000E+00
(PID.TID 0000.0001) %MON seaice_area_mean             =   6.2469257120499E-01
(PID.TID 0000.0001) %MON seaice_area_sd               =   4.5884790138519E-01
(PID.TID 0000.0001) %MON seaice_area_del2             =   5.3344605226206E-02
(PID.TID 0000.0001) %MON seaice_heff_max              =   5.5910118904628E-01
(PID.TID 0000.0001) %MON seaice_heff_min              =   0.0000000000000E+00
(PID.TID 0000.0001) %MON seaice_heff_mean             =   1.4260009170124E-01
(PID.TID 0000.0001) %MON seaice_heff_sd               =   1.7429540920418E-01
(PID.TID 0000.0001) %MON seaice_heff_del2             =   1.3266676397600E-02
(PID.TID 0000.0001) %MON seaice_hsnow_max             =   2.0392495495880E-01
(PID.TID 0000.0001) %MON seaice_hsnow_min             =   0.0000000000000E+00
(PID.TID 0000.0001) %MON seaice_hsnow_mean            =   1.1850094396443E-01
(PID.TID 0000.0001) %MON seaice_hsnow_sd              =   9.7060032099183E-02
(PID.TID 0000.0001) %MON seaice_hsnow_del2            =   6.4416654548704E-03
(PID.TID 0000.0001) // =======================================================
(PID.TID 0000.0001) // End MONITOR SEAICE statistics
(PID.TID 0000.0001) // =======================================================
(PID.TID 0000.0001)  exf_GetFFieldsRec:
(PID.TID 0000.0001)  exf_GetFFieldsRec: first, changed, fac:   F   F   0.49316940E+00
(PID.TID 0000.0001)  exf_GetFFieldsRec: myiter, count0, count1:      5      1      2
(PID.TID 0000.0001)  exf_GetFFieldsRec:
(PID.TID 0000.0001)  exf_GetFFieldsRec:
(PID.TID 0000.0001)  exf_GetFFieldsRec: first, changed, fac:   F   F   0.49316940E+00
(PID.TID 0000.0001)  exf_GetFFieldsRec: myiter, count0, count1:      5      1      2
(PID.TID 0000.0001)  exf_GetFFieldsRec:
(PID.TID 0000.0001)  exf_GetFFieldsRec:
(PID.TID 0000.0001)  exf_GetFFieldsRec: first, changed, fac:   F   F   0.49316940E+00
(PID.TID 0000.0001)  exf_GetFFieldsRec: myiter, count0, count1:      5      1      2
(PID.TID 0000.0001)  exf_GetFFieldsRec:
(PID.TID 0000.0001)  exf_GetFFieldsRec:
(PID.TID 0000.0001)  exf_GetFFieldsRec: first, changed, fac:   F   F   0.49316940E+00
(PID.TID 0000.0001)  exf_GetFFieldsRec: myiter, count0, count1:      5      1      2
(PID.TID 0000.0001)  exf_GetFFieldsRec:
(PID.TID 0000.0001)  exf_GetFFieldsRec:
(PID.TID 0000.0001)  exf_GetFFieldsRec: first, changed, fac:   F   F   0.49316940E+00
(PID.TID 0000.0001)  exf_GetFFieldsRec: myiter, count0, count1:      5      1      2
(PID.TID 0000.0001)  exf_GetFFieldsRec:
(PID.TID 0000.0001)  exf_GetFFieldsRec:
(PID.TID 0000.0001)  exf_GetFFieldsRec: first, changed, fac:   F   F   0.49316940E+00
(PID.TID 0000.0001)  exf_GetFFieldsRec: myiter, count0, count1:      5      1      2
(PID.TID 0000.0001)  exf_GetFFieldsRec:
(PID.TID 0000.0001)  exf_GetFFieldsRec:
(PID.TID 0000.0001)  exf_GetFFieldsRec: first, changed, fac:   F   F   0.49316940E+00
(PID.TID 0000.0001)  exf_GetFFieldsRec: myiter, count0, count1:      5      1      2
(PID.TID 0000.0001)  exf_GetFFieldsRec:
(PID.TID 0000.0001)  exf_GetFFieldsRec:
(PID.TID 0000.0001)  exf_GetFFieldsRec: first, changed, fac:   F   F   0.49316940E+00
(PID.TID 0000.0001)  exf_GetFFieldsRec: myiter, count0, count1:      5      1      2
(PID.TID 0000.0001)  exf_GetFFieldsRec:
(PID.TID 0000.0001) // =======================================================
(PID.TID 0000.0001) // Begin MONITOR EXF statistics
(PID.TID 0000.0001) // =======================================================
(PID.TID 0000.0001) %MON exf_tsnumber                 =                     5
(PID.TID 0000.0001) %MON exf_time_sec                 =   1.8000000000000E+04
(PID.TID 0000.0001) %MON exf_ustress_max              =   5.2231176135960E-02
(PID.TID 0000.0001) %MON exf_ustress_min              =  -9.3792971352251E-02
(PID.TID 0000.0001) %MON exf_ustress_mean             =   1.7866363254886E-02
(PID.TID 0000.0001) %MON exf_ustress_sd               =   2.3691668914644E-02
(PID.TID 0000.0001) %MON exf_ustress_del2             =   2.8112650773647E-03
(PID.TID 0000.0001) %MON exf_vstress_max              =   5.3831234010539E-02
(PID.TID 0000.0001) %MON exf_vstress_min              =  -5.8456578223999E-02
(PID.TID 0000.0001) %MON exf_vstress_mean             =  -5.4524170086135E-03
(PID.TID 0000.0001) %MON exf_vstress_sd               =   1.4440667353352E-02
(PID.TID 0000.0001) %MON exf_vstress_del2             =   1.6948187945751E-03
(PID.TID 0000.0001) %MON exf_hflux_max                =   6.2505132466384E+02
(PID.TID 0000.0001) %MON exf_hflux_min                =  -5.1067194535117E+01
(PID.TID 0000.0001) %MON exf_hflux_mean               =   1.4586353005083E+02
(PID.TID 0000.0001) %MON exf_hflux_sd                 =   1.8032770378330E+02
(PID.TID 0000.0001) %MON exf_hflux_del2               =   1.6102917660730E+01
(PID.TID 0000.0001) %MON exf_sflux_max                =   3.9030282040731E-08
(PID.TID 0000.0001) %MON exf_sflux_min                =  -8.8916512379746E-08
(PID.TID 0000.0001) %MON exf_sflux_mean               =  -2.6013296920530E-08
(PID.TID 0000.0001) %MON exf_sflux_sd                 =   3.0414225679744E-08
(PID.TID 0000.0001) %MON exf_sflux_del2               =   3.1569485913398E-09
(PID.TID 0000.0001) %MON exf_uwind_max                =   6.4669118044806E+00
(PID.TID 0000.0001) %MON exf_uwind_min                =  -6.8373719818605E+00
(PID.TID 0000.0001) %MON exf_uwind_mean               =   2.7703104953251E+00
(PID.TID 0000.0001) %MON exf_uwind_sd                 =   2.9914204817202E+00
(PID.TID 0000.0001) %MON exf_uwind_del2               =   3.1574290119542E-01
(PID.TID 0000.0001) %MON exf_vwind_max                =   3.9242191164871E+00
(PID.TID 0000.0001) %MON exf_vwind_min                =  -6.0151738390896E+00
(PID.TID 0000.0001) %MON exf_vwind_mean               =  -7.5780981579906E-01
(PID.TID 0000.0001) %MON exf_vwind_sd                 =   1.7298850990135E+00
(PID.TID 0000.0001) %MON exf_vwind_del2               =   1.9329857523588E-01
(PID.TID 0000.0001) %MON exf_wspeed_max               =   7.8834733013142E+00
(PID.TID 0000.0001) %MON exf_wspeed_min               =   4.5913801314248E-01
(PID.TID 0000.0001) %MON exf_wspeed_mean              =   4.1986352194932E+00
(PID.TID 0000.0001) %MON exf_wspeed_sd                =   1.6004553118739E+00
(PID.TID 0000.0001) %MON exf_wspeed_del2              =   5.4007788217921E-01
(PID.TID 0000.0001) %MON exf_atemp_max                =   2.8187425173567E+02
(PID.TID 0000.0001) %MON exf_atemp_min                =   2.3643944426573E+02
(PID.TID 0000.0001) %MON exf_atemp_mean               =   2.6392283741463E+02
(PID.TID 0000.0001) %MON exf_atemp_sd                 =   1.1990725231039E+01
(PID.TID 0000.0001) %MON exf_atemp_del2               =   6.4950439209929E-01
(PID.TID 0000.0001) %MON exf_aqh_max                  =   6.3196902393613E-03
(PID.TID 0000.0001) %MON exf_aqh_min                  =   1.6322223068205E-04
(PID.TID 0000.0001) %MON exf_aqh_mean                 =   2.4775611281656E-03
(PID.TID 0000.0001) %MON exf_aqh_sd                   =   1.4259923191659E-03
(PID.TID 0000.0001) %MON exf_aqh_del2                 =   6.8072053053731E-05
(PID.TID 0000.0001) %MON exf_lwflux_max               =   1.8156143272359E+02
(PID.TID 0000.0001) %MON exf_lwflux_min               =   2.7107466895912E+01
(PID.TID 0000.0001) %MON exf_lwflux_mean              =   7.5076307580645E+01
(PID.TID 0000.0001) %MON exf_lwflux_sd                =   4.2900119705786E+01
(PID.TID 0000.0001) %MON exf_lwflux_del2              =   7.0089075985671E+00
(PID.TID 0000.0001) %MON exf_precip_max               =   1.0499457022082E-07
(PID.TID 0000.0001) %MON exf_precip_min               =   2.7292535458031E-10
(PID.TID 0000.0001) %MON exf_precip_mean              =   3.6390026322913E-08
(PID.TID 0000.0001) %MON exf_precip_sd                =   2.0580406889746E-08
(PID.TID 0000.0001) %MON exf_precip_del2              =   2.5578012566525E-09
(PID.TID 0000.0001) %MON exf_snowprecip_max           =   0.0000000000000E+00
(PID.TID 0000.0001) %MON exf_snowprecip_min           =   0.0000000000000E+00
(PID.TID 0000.0001) %MON exf_snowprecip_mean          =   0.0000000000000E+00
(PID.TID 0000.0001) %MON exf_snowprecip_sd            =   0.0000000000000E+00
(PID.TID 0000.0001) %MON exf_snowprecip_del2          =   0.0000000000000E+00
(PID.TID 0000.0001) %MON exf_swflux_max               =  -8.1207169861090E-02
(PID.TID 0000.0001) %MON exf_swflux_min               =  -6.4067465766532E+01
(PID.TID 0000.0001) %MON exf_swflux_mean              =  -2.6505884102323E+01
(PID.TID 0000.0001) %MON exf_swflux_sd                =   1.9645085084315E+01
(PID.TID 0000.0001) %MON exf_swflux_del2              =   4.7954713528264E-01
(PID.TID 0000.0001) %MON exf_evap_max                 =   4.5351176310172E-08
(PID.TID 0000.0001) %MON exf_evap_min                 =  -4.1699851151653E-09
(PID.TID 0000.0001) %MON exf_evap_mean                =   1.0376729402383E-08
(PID.TID 0000.0001) %MON exf_evap_sd                  =   1.1132217720466E-08
(PID.TID 0000.0001) %MON exf_evap_del2                =   1.3051469009455E-09
(PID.TID 0000.0001) %MON exf_swdown_max               =   7.1186073073924E+01
(PID.TID 0000.0001) %MON exf_swdown_min               =   9.0230188734544E-02
(PID.TID 0000.0001) %MON exf_swdown_mean              =   2.9450982335914E+01
(PID.TID 0000.0001) %MON exf_swdown_sd                =   2.1827872315905E+01
(PID.TID 0000.0001) %MON exf_swdown_del2              =   5.3270033655742E-01
(PID.TID 0000.0001) %MON exf_lwdown_max               =   3.0563558759846E+02
(PID.TID 0000.0001) %MON exf_lwdown_min               =   1.1592215771493E+02
(PID.TID 0000.0001) %MON exf_lwdown_mean              =   2.2587078031381E+02
(PID.TID 0000.0001) %MON exf_lwdown_sd                =   4.6297287802066E+01
(PID.TID 0000.0001) %MON exf_lwdown_del2              =   3.2440467328278E+00
(PID.TID 0000.0001) %MON exf_apressure_max            =   0.0000000000000E+00
(PID.TID 0000.0001) %MON exf_apressure_min            =   0.0000000000000E+00
(PID.TID 0000.0001) %MON exf_apressure_mean           =   0.0000000000000E+00
(PID.TID 0000.0001) %MON exf_apressure_sd             =   0.0000000000000E+00
(PID.TID 0000.0001) %MON exf_apressure_del2           =   0.0000000000000E+00
(PID.TID 0000.0001) %MON exf_runoff_max               =   0.0000000000000E+00
(PID.TID 0000.0001) %MON exf_runoff_min               =   0.0000000000000E+00
(PID.TID 0000.0001) %MON exf_runoff_mean              =   0.0000000000000E+00
(PID.TID 0000.0001) %MON exf_runoff_sd                =   0.0000000000000E+00
(PID.TID 0000.0001) %MON exf_runoff_del2              =   0.0000000000000E+00
(PID.TID 0000.0001) %MON exf_climsst_max              =   0.0000000000000E+00
(PID.TID 0000.0001) %MON exf_climsst_min              =   0.0000000000000E+00
(PID.TID 0000.0001) %MON exf_climsst_mean             =   0.0000000000000E+00
(PID.TID 0000.0001) %MON exf_climsst_sd               =   0.0000000000000E+00
(PID.TID 0000.0001) %MON exf_climsst_del2             =   0.0000000000000E+00
(PID.TID 0000.0001) %MON exf_climsss_max              =   3.5041254622037E+01
(PID.TID 0000.0001) %MON exf_climsss_min              =   3.0670109811376E+01
(PID.TID 0000.0001) %MON exf_climsss_mean             =   3.3461926268386E+01
(PID.TID 0000.0001) %MON exf_climsss_sd               =   1.0315988331065E+00
(PID.TID 0000.0001) %MON exf_climsss_del2             =   1.0010781500943E-01
(PID.TID 0000.0001) // =======================================================
(PID.TID 0000.0001) // End MONITOR EXF statistics
(PID.TID 0000.0001) // =======================================================
 cg2d: Sum(rhs),rhsMax =   3.22519788653608E-13  1.19974357067987E+00
(PID.TID 0000.0001)                    cg2d_init_res =    8.55404027453205E-02
(PID.TID 0000.0001)                       cg2d_iters =    41
(PID.TID 0000.0001)                         cg2d_res =    9.05302920259489E-13
(PID.TID 0000.0001) // =======================================================
(PID.TID 0000.0001) // Begin MONITOR dynamic field statistics
(PID.TID 0000.0001) // =======================================================
(PID.TID 0000.0001) %MON time_tsnumber                =                     6
(PID.TID 0000.0001) %MON time_secondsf                =   2.1600000000000E+04
(PID.TID 0000.0001) %MON dynstat_eta_max              =   3.3129570212998E-01
(PID.TID 0000.0001) %MON dynstat_eta_min              =  -1.2518300759139E-01
(PID.TID 0000.0001) %MON dynstat_eta_mean             =  -1.1364013965347E-14
(PID.TID 0000.0001) %MON dynstat_eta_sd               =   7.9915083370029E-02
(PID.TID 0000.0001) %MON dynstat_eta_del2             =   6.6641581617286E-03
(PID.TID 0000.0001) %MON dynstat_uvel_max             =   1.1922956471787E-01
(PID.TID 0000.0001) %MON dynstat_uvel_min             =  -4.2752576762220E-02
(PID.TID 0000.0001) %MON dynstat_uvel_mean            =   5.8056057076743E-04
(PID.TID 0000.0001) %MON dynstat_uvel_sd              =   9.6601695812678E-03
(PID.TID 0000.0001) %MON dynstat_uvel_del2            =   2.9833349492402E-03
(PID.TID 0000.0001) %MON dynstat_vvel_max             =   8.4852760445088E-02
(PID.TID 0000.0001) %MON dynstat_vvel_min             =  -1.5484532506367E-01
(PID.TID 0000.0001) %MON dynstat_vvel_mean            =  -3.1026986149789E-04
(PID.TID 0000.0001) %MON dynstat_vvel_sd              =   1.1485099292915E-02
(PID.TID 0000.0001) %MON dynstat_vvel_del2            =   2.3980808565672E-03
(PID.TID 0000.0001) %MON dynstat_wvel_max             =   3.8645705168657E-04
(PID.TID 0000.0001) %MON dynstat_wvel_min             =  -2.8002332631985E-04
(PID.TID 0000.0001) %MON dynstat_wvel_mean            =   1.4829003621068E-21
(PID.TID 0000.0001) %MON dynstat_wvel_sd              =   6.3574832237614E-05
(PID.TID 0000.0001) %MON dynstat_wvel_del2            =   5.5131028749682E-06
(PID.TID 0000.0001) %MON dynstat_theta_max            =   1.3356285660788E+01
(PID.TID 0000.0001) %MON dynstat_theta_min            =  -1.9642335168864E+00
(PID.TID 0000.0001) %MON dynstat_theta_mean           =   3.0738121509983E+00
(PID.TID 0000.0001) %MON dynstat_theta_sd             =   1.4282046503615E+00
(PID.TID 0000.0001) %MON dynstat_theta_del2           =   9.3382897186196E-02
(PID.TID 0000.0001) %MON dynstat_salt_max             =   3.5451515246548E+01
(PID.TID 0000.0001) %MON dynstat_salt_min             =   2.6695005649750E+01
(PID.TID 0000.0001) %MON dynstat_salt_mean            =   3.4740221135785E+01
(PID.TID 0000.0001) %MON dynstat_salt_sd              =   5.5676866619560E-01
(PID.TID 0000.0001) %MON dynstat_salt_del2            =   3.8408786090968E-02
(PID.TID 0000.0001) %MON extforcing_qnet_max          =   1.3426358414574E+02
(PID.TID 0000.0001) %MON extforcing_qnet_min          =  -6.5275779700513E+01
(PID.TID 0000.0001) %MON extforcing_qnet_mean         =   1.1646760496246E+01
(PID.TID 0000.0001) %MON extforcing_qnet_sd           =   3.7363910952418E+01
(PID.TID 0000.0001) %MON extforcing_qnet_del2         =   8.5181717772269E+00
(PID.TID 0000.0001) %MON extforcing_qsw_max           =   0.0000000000000E+00
(PID.TID 0000.0001) %MON extforcing_qsw_min           =  -5.7235449798803E+01
(PID.TID 0000.0001) %MON extforcing_qsw_mean          =  -1.5911485887909E+01
(PID.TID 0000.0001) %MON extforcing_qsw_sd            =   2.0573432184984E+01
(PID.TID 0000.0001) %MON extforcing_qsw_del2          =   1.8704256095006E+00
(PID.TID 0000.0001) %MON extforcing_empmr_max         =   3.3239002361962E-07
(PID.TID 0000.0001) %MON extforcing_empmr_min         =  -3.7527962811373E-07
(PID.TID 0000.0001) %MON extforcing_empmr_mean        =  -1.4959540260688E-08
(PID.TID 0000.0001) %MON extforcing_empmr_sd          =   9.9050579422748E-08
(PID.TID 0000.0001) %MON extforcing_empmr_del2        =   2.5016340149376E-08
(PID.TID 0000.0001) %MON extforcing_fu_max            =   4.8854234971523E-02
(PID.TID 0000.0001) %MON extforcing_fu_min            =  -6.7358644280439E-03
(PID.TID 0000.0001) %MON extforcing_fu_mean           =   6.1023748017330E-03
(PID.TID 0000.0001) %MON extforcing_fu_sd             =   1.4464649091570E-02
(PID.TID 0000.0001) %MON extforcing_fu_del2           =   9.3564892617481E-04
(PID.TID 0000.0001) %MON extforcing_fv_max            =   1.0957490248213E-02
(PID.TID 0000.0001) %MON extforcing_fv_min            =  -5.8411739795509E-02
(PID.TID 0000.0001) %MON extforcing_fv_mean           =  -7.5559298774036E-03
(PID.TID 0000.0001) %MON extforcing_fv_sd             =   1.5856715051902E-02
(PID.TID 0000.0001) %MON extforcing_fv_del2           =   2.1464756828432E-03
(PID.TID 0000.0001) %MON advcfl_uvel_max              =   2.9419045235016E-03
(PID.TID 0000.0001) %MON advcfl_vvel_max              =   2.5066034352949E-03
(PID.TID 0000.0001) %MON advcfl_wvel_max              =   7.3821181538082E-03
(PID.TID 0000.0001) %MON advcfl_W_hf_max              =   1.0025502887192E-02
(PID.TID 0000.0001) %MON pe_b_mean                    =   2.1053793316387E-05
(PID.TID 0000.0001) %MON ke_max                       =   1.2197117301600E-02
(PID.TID 0000.0001) %MON ke_mean                      =   8.8375493799904E-05
(PID.TID 0000.0001) %MON ke_vol                       =   5.3036189546438E+15
(PID.TID 0000.0001) %MON vort_r_min                   =  -1.1476633655341E-06
(PID.TID 0000.0001) %MON vort_r_max                   =   7.0548519676381E-07
(PID.TID 0000.0001) %MON vort_a_mean                  =   1.2067277233897E-04
(PID.TID 0000.0001) %MON vort_a_sd                    =   8.8122341109657E-06
(PID.TID 0000.0001) %MON vort_p_mean                  =   1.7734842627880E-04
(PID.TID 0000.0001) %MON vort_p_sd                    =   1.1689723942488E-04
(PID.TID 0000.0001) %MON surfExpan_theta_mean         =   8.9877272057048E-07
(PID.TID 0000.0001) %MON surfExpan_salt_mean          =   7.8731171640991E-07
(PID.TID 0000.0001) // =======================================================
(PID.TID 0000.0001) // End MONITOR dynamic field statistics
(PID.TID 0000.0001) // =======================================================
(PID.TID 0000.0001) // =======================================================
(PID.TID 0000.0001) // Begin MONITOR SEAICE statistics
(PID.TID 0000.0001) // =======================================================
(PID.TID 0000.0001) %MON seaice_tsnumber              =                     6
(PID.TID 0000.0001) %MON seaice_time_sec              =   2.1600000000000E+04
(PID.TID 0000.0001) %MON seaice_uice_max              =   2.5829067782634E-01
(PID.TID 0000.0001) %MON seaice_uice_min              =  -3.1128067770159E-02
(PID.TID 0000.0001) %MON seaice_uice_mean             =   2.7439339449467E-02
(PID.TID 0000.0001) %MON seaice_uice_sd               =   6.3133013833688E-02
(PID.TID 0000.0001) %MON seaice_uice_del2             =   3.5964220097515E-03
(PID.TID 0000.0001) %MON seaice_vice_max              =   1.0937429159033E-01
(PID.TID 0000.0001) %MON seaice_vice_min              =  -1.8533823927604E-01
(PID.TID 0000.0001) %MON seaice_vice_mean             =  -2.7839571051319E-02
(PID.TID 0000.0001) %MON seaice_vice_sd               =   5.9195269079972E-02
(PID.TID 0000.0001) %MON seaice_vice_del2             =   6.9950154897555E-03
(PID.TID 0000.0001) %MON seaice_area_max              =   1.0000000000000E+00
(PID.TID 0000.0001) %MON seaice_area_min              =   0.0000000000000E+00
(PID.TID 0000.0001) %MON seaice_area_mean             =   6.2456849289282E-01
(PID.TID 0000.0001) %MON seaice_area_sd               =   4.5844001915928E-01
(PID.TID 0000.0001) %MON seaice_area_del2             =   5.3348446305412E-02
(PID.TID 0000.0001) %MON seaice_heff_max              =   5.5877126512034E-01
(PID.TID 0000.0001) %MON seaice_heff_min              =   0.0000000000000E+00
(PID.TID 0000.0001) %MON seaice_heff_mean             =   1.4262552415684E-01
(PID.TID 0000.0001) %MON seaice_heff_sd               =   1.7437215604703E-01
(PID.TID 0000.0001) %MON seaice_heff_del2             =   1.3260031132372E-02
(PID.TID 0000.0001) %MON seaice_hsnow_max             =   2.0471031764577E-01
(PID.TID 0000.0001) %MON seaice_hsnow_min             =   0.0000000000000E+00
(PID.TID 0000.0001) %MON seaice_hsnow_mean            =   1.1866147144295E-01
(PID.TID 0000.0001) %MON seaice_hsnow_sd              =   9.7181112250039E-02
(PID.TID 0000.0001) %MON seaice_hsnow_del2            =   6.4810835311510E-03
(PID.TID 0000.0001) // =======================================================
(PID.TID 0000.0001) // End MONITOR SEAICE statistics
(PID.TID 0000.0001) // =======================================================
 Computing Diagnostic # 176  EXFtaux      Counter:       1   Parms: SU      U1      
 Computing Diagnostic # 177  EXFtauy      Counter:       1   Parms: SV      U1      
 Computing Diagnostic # 175  EXFqnet      Counter:       1   Parms: SM      U1      
 Computing Diagnostic # 186  EXFempmr     Counter:       1   Parms: SM      U1      
 Computing Diagnostic # 170  EXFhl        Counter:       1   Parms: SM      U1      
 Computing Diagnostic # 169  EXFhs        Counter:       1   Parms: SM      U1      
 Computing Diagnostic # 172  EXFswnet     Counter:       1   Parms: SM      U1      
 Computing Diagnostic # 171  EXFlwnet     Counter:       1   Parms: SM      U1      
 Computing Diagnostic # 178  EXFuwind     Counter:       1   Parms: SM      U1      
 Computing Diagnostic # 179  EXFvwind     Counter:       1   Parms: SM      U1      
 Computing Diagnostic # 181  EXFatemp     Counter:       1   Parms: SM      U1      
(PID.TID 0000.0001)  exf_GetFFieldsRec:
(PID.TID 0000.0001)  exf_GetFFieldsRec: first, changed, fac:   F   F   0.49180328E+00
(PID.TID 0000.0001)  exf_GetFFieldsRec: myiter, count0, count1:      6      1      2
(PID.TID 0000.0001)  exf_GetFFieldsRec:
(PID.TID 0000.0001)  exf_GetFFieldsRec:
(PID.TID 0000.0001)  exf_GetFFieldsRec: first, changed, fac:   F   F   0.49180328E+00
(PID.TID 0000.0001)  exf_GetFFieldsRec: myiter, count0, count1:      6      1      2
(PID.TID 0000.0001)  exf_GetFFieldsRec:
(PID.TID 0000.0001)  exf_GetFFieldsRec:
(PID.TID 0000.0001)  exf_GetFFieldsRec: first, changed, fac:   F   F   0.49180328E+00
(PID.TID 0000.0001)  exf_GetFFieldsRec: myiter, count0, count1:      6      1      2
(PID.TID 0000.0001)  exf_GetFFieldsRec:
(PID.TID 0000.0001)  exf_GetFFieldsRec:
(PID.TID 0000.0001)  exf_GetFFieldsRec: first, changed, fac:   F   F   0.49180328E+00
(PID.TID 0000.0001)  exf_GetFFieldsRec: myiter, count0, count1:      6      1      2
(PID.TID 0000.0001)  exf_GetFFieldsRec:
(PID.TID 0000.0001)  exf_GetFFieldsRec:
(PID.TID 0000.0001)  exf_GetFFieldsRec: first, changed, fac:   F   F   0.49180328E+00
(PID.TID 0000.0001)  exf_GetFFieldsRec: myiter, count0, count1:      6      1      2
(PID.TID 0000.0001)  exf_GetFFieldsRec:
(PID.TID 0000.0001)  exf_GetFFieldsRec:
(PID.TID 0000.0001)  exf_GetFFieldsRec: first, changed, fac:   F   F   0.49180328E+00
(PID.TID 0000.0001)  exf_GetFFieldsRec: myiter, count0, count1:      6      1      2
(PID.TID 0000.0001)  exf_GetFFieldsRec:
(PID.TID 0000.0001)  exf_GetFFieldsRec:
(PID.TID 0000.0001)  exf_GetFFieldsRec: first, changed, fac:   F   F   0.49180328E+00
(PID.TID 0000.0001)  exf_GetFFieldsRec: myiter, count0, count1:      6      1      2
(PID.TID 0000.0001)  exf_GetFFieldsRec:
(PID.TID 0000.0001)  exf_GetFFieldsRec:
(PID.TID 0000.0001)  exf_GetFFieldsRec: first, changed, fac:   F   F   0.49180328E+00
(PID.TID 0000.0001)  exf_GetFFieldsRec: myiter, count0, count1:      6      1      2
(PID.TID 0000.0001)  exf_GetFFieldsRec:
(PID.TID 0000.0001) // =======================================================
(PID.TID 0000.0001) // Begin MONITOR EXF statistics
(PID.TID 0000.0001) // =======================================================
(PID.TID 0000.0001) %MON exf_tsnumber                 =                     6
(PID.TID 0000.0001) %MON exf_time_sec                 =   2.1600000000000E+04
(PID.TID 0000.0001) %MON exf_ustress_max              =   5.2237979975014E-02
(PID.TID 0000.0001) %MON exf_ustress_min              =  -9.3795280691253E-02
(PID.TID 0000.0001) %MON exf_ustress_mean             =   1.7874577817017E-02
(PID.TID 0000.0001) %MON exf_ustress_sd               =   2.3697798390069E-02
(PID.TID 0000.0001) %MON exf_ustress_del2             =   2.8122041725924E-03
(PID.TID 0000.0001) %MON exf_vstress_max              =   5.3832762585474E-02
(PID.TID 0000.0001) %MON exf_vstress_min              =  -5.8451200486506E-02
(PID.TID 0000.0001) %MON exf_vstress_mean             =  -5.4492947329744E-03
(PID.TID 0000.0001) %MON exf_vstress_sd               =   1.4442911179948E-02
(PID.TID 0000.0001) %MON exf_vstress_del2             =   1.6948263786533E-03
(PID.TID 0000.0001) %MON exf_hflux_max                =   6.2511030491374E+02
(PID.TID 0000.0001) %MON exf_hflux_min                =  -5.0961696043654E+01
(PID.TID 0000.0001) %MON exf_hflux_mean               =   1.4594132255638E+02
(PID.TID 0000.0001) %MON exf_hflux_sd                 =   1.8033726257813E+02
(PID.TID 0000.0001) %MON exf_hflux_del2               =   1.6106797417294E+01
(PID.TID 0000.0001) %MON exf_sflux_max                =   3.9031133711690E-08
(PID.TID 0000.0001) %MON exf_sflux_min                =  -8.8868813032899E-08
(PID.TID 0000.0001) %MON exf_sflux_mean               =  -2.6005189945439E-08
(PID.TID 0000.0001) %MON exf_sflux_sd                 =   3.0411126480235E-08
(PID.TID 0000.0001) %MON exf_sflux_del2               =   3.1576973423052E-09
(PID.TID 0000.0001) %MON exf_uwind_max                =   6.4674192569295E+00
(PID.TID 0000.0001) %MON exf_uwind_min                =  -6.8373987635628E+00
(PID.TID 0000.0001) %MON exf_uwind_mean               =   2.7704180476695E+00
(PID.TID 0000.0001) %MON exf_uwind_sd                 =   2.9916966488382E+00
(PID.TID 0000.0001) %MON exf_uwind_del2               =   3.1575080541797E-01
(PID.TID 0000.0001) %MON exf_vwind_max                =   3.9242492972827E+00
(PID.TID 0000.0001) %MON exf_vwind_min                =  -6.0142679292648E+00
(PID.TID 0000.0001) %MON exf_vwind_mean               =  -7.5719204270894E-01
(PID.TID 0000.0001) %MON exf_vwind_sd                 =   1.7299937065642E+00
(PID.TID 0000.0001) %MON exf_vwind_del2               =   1.9329170389395E-01
(PID.TID 0000.0001) %MON exf_wspeed_max               =   7.8835115525503E+00
(PID.TID 0000.0001) %MON exf_wspeed_min               =   4.5889518386928E-01
(PID.TID 0000.0001) %MON exf_wspeed_mean              =   4.1987383082859E+00
(PID.TID 0000.0001) %MON exf_wspeed_sd                =   1.6007122259633E+00
(PID.TID 0000.0001) %MON exf_wspeed_del2              =   5.4010784178234E-01
(PID.TID 0000.0001) %MON exf_atemp_max                =   2.8187253958280E+02
(PID.TID 0000.0001) %MON exf_atemp_min                =   2.3643497929808E+02
(PID.TID 0000.0001) %MON exf_atemp_mean               =   2.6391819332927E+02
(PID.TID 0000.0001) %MON exf_atemp_sd                 =   1.1992188200331E+01
(PID.TID 0000.0001) %MON exf_atemp_del2               =   6.4952393550908E-01
(PID.TID 0000.0001) %MON exf_aqh_max                  =   6.3189936985002E-03
(PID.TID 0000.0001) %MON exf_aqh_min                  =   1.6312812718364E-04
(PID.TID 0000.0001) %MON exf_aqh_mean                 =   2.4770007717611E-03
(PID.TID 0000.0001) %MON exf_aqh_sd                   =   1.4258893952382E-03
(PID.TID 0000.0001) %MON exf_aqh_del2                 =   6.8058385492584E-05
(PID.TID 0000.0001) %MON exf_lwflux_max               =   1.8157515433086E+02
(PID.TID 0000.0001) %MON exf_lwflux_min               =   2.7099187395354E+01
(PID.TID 0000.0001) %MON exf_lwflux_mean              =   7.5100258731562E+01
(PID.TID 0000.0001) %MON exf_lwflux_sd                =   4.2896959471132E+01
(PID.TID 0000.0001) %MON exf_lwflux_del2              =   7.0099759638676E+00
(PID.TID 0000.0001) %MON exf_precip_max               =   1.0499595166344E-07
(PID.TID 0000.0001) %MON exf_precip_min               =   2.7279142810763E-10
(PID.TID 0000.0001) %MON exf_precip_mean              =   3.6390015478879E-08
(PID.TID 0000.0001) %MON exf_precip_sd                =   2.0580860600171E-08
(PID.TID 0000.0001) %MON exf_precip_del2              =   2.5583289498422E-09
(PID.TID 0000.0001) %MON exf_snowprecip_max           =   0.0000000000000E+00
(PID.TID 0000.0001) %MON exf_snowprecip_min           =   0.0000000000000E+00
(PID.TID 0000.0001) %MON exf_snowprecip_mean          =   0.0000000000000E+00
(PID.TID 0000.0001) %MON exf_snowprecip_sd            =   0.0000000000000E+00
(PID.TID 0000.0001) %MON exf_snowprecip_del2          =   0.0000000000000E+00
(PID.TID 0000.0001) %MON exf_swflux_max               =  -8.1207452738871E-02
(PID.TID 0000.0001) %MON exf_swflux_min               =  -6.4086336117103E+01
(PID.TID 0000.0001) %MON exf_swflux_mean              =  -2.6516416318198E+01
(PID.TID 0000.0001) %MON exf_swflux_sd                =   1.9648923659484E+01
(PID.TID 0000.0001) %MON exf_swflux_del2              =   4.7965400922860E-01
(PID.TID 0000.0001) %MON exf_evap_max                 =   4.5351365270201E-08
(PID.TID 0000.0001) %MON exf_evap_min                 =  -4.1475909715263E-09
(PID.TID 0000.0001) %MON exf_evap_mean                =   1.0384825533440E-08
(PID.TID 0000.0001) %MON exf_evap_sd                  =   1.1129659581558E-08
(PID.TID 0000.0001) %MON exf_evap_del2                =   1.3056629515329E-09
(PID.TID 0000.0001) %MON exf_swdown_max               =   7.1207040130115E+01
(PID.TID 0000.0001) %MON exf_swdown_min               =   9.0230503043190E-02
(PID.TID 0000.0001) %MON exf_swdown_mean              =   2.9462684797997E+01
(PID.TID 0000.0001) %MON exf_swdown_sd                =   2.1832137399427E+01
(PID.TID 0000.0001) %MON exf_swdown_del2              =   5.3281908538627E-01
(PID.TID 0000.0001) %MON exf_lwdown_max               =   3.0562676151463E+02
(PID.TID 0000.0001) %MON exf_lwdown_min               =   1.1590705083628E+02
(PID.TID 0000.0001) %MON exf_lwdown_mean              =   2.2585507298474E+02
(PID.TID 0000.0001) %MON exf_lwdown_sd                =   4.6301263017486E+01
(PID.TID 0000.0001) %MON exf_lwdown_del2              =   3.2440583729006E+00
(PID.TID 0000.0001) %MON exf_apressure_max            =   0.0000000000000E+00
(PID.TID 0000.0001) %MON exf_apressure_min            =   0.0000000000000E+00
(PID.TID 0000.0001) %MON exf_apressure_mean           =   0.0000000000000E+00
(PID.TID 0000.0001) %MON exf_apressure_sd             =   0.0000000000000E+00
(PID.TID 0000.0001) %MON exf_apressure_del2           =   0.0000000000000E+00
(PID.TID 0000.0001) %MON exf_runoff_max               =   0.0000000000000E+00
(PID.TID 0000.0001) %MON exf_runoff_min               =   0.0000000000000E+00
(PID.TID 0000.0001) %MON exf_runoff_mean              =   0.0000000000000E+00
(PID.TID 0000.0001) %MON exf_runoff_sd                =   0.0000000000000E+00
(PID.TID 0000.0001) %MON exf_runoff_del2              =   0.0000000000000E+00
(PID.TID 0000.0001) %MON exf_climsst_max              =   0.0000000000000E+00
(PID.TID 0000.0001) %MON exf_climsst_min              =   0.0000000000000E+00
(PID.TID 0000.0001) %MON exf_climsst_mean             =   0.0000000000000E+00
(PID.TID 0000.0001) %MON exf_climsst_sd               =   0.0000000000000E+00
(PID.TID 0000.0001) %MON exf_climsst_del2             =   0.0000000000000E+00
(PID.TID 0000.0001) %MON exf_climsss_max              =   3.5041439369077E+01
(PID.TID 0000.0001) %MON exf_climsss_min              =   3.0670869139374E+01
(PID.TID 0000.0001) %MON exf_climsss_mean             =   3.3462447601866E+01
(PID.TID 0000.0001) %MON exf_climsss_sd               =   1.0315283113566E+00
(PID.TID 0000.0001) %MON exf_climsss_del2             =   1.0009058571904E-01
(PID.TID 0000.0001) // =======================================================
(PID.TID 0000.0001) // End MONITOR EXF statistics
(PID.TID 0000.0001) // =======================================================
 cg2d: Sum(rhs),rhsMax =   4.22051282811253E-13  1.19252782130109E+00
(PID.TID 0000.0001)                    cg2d_init_res =    7.25270335175441E-02
(PID.TID 0000.0001)                       cg2d_iters =    41
(PID.TID 0000.0001)                         cg2d_res =    7.83720793626926E-13
(PID.TID 0000.0001) // =======================================================
(PID.TID 0000.0001) // Begin MONITOR dynamic field statistics
(PID.TID 0000.0001) // =======================================================
(PID.TID 0000.0001) %MON time_tsnumber                =                     7
(PID.TID 0000.0001) %MON time_secondsf                =   2.5200000000000E+04
(PID.TID 0000.0001) %MON dynstat_eta_max              =   3.2977959086011E-01
(PID.TID 0000.0001) %MON dynstat_eta_min              =  -1.1749574908860E-01
(PID.TID 0000.0001) %MON dynstat_eta_mean             =  -1.4056392669786E-14
(PID.TID 0000.0001) %MON dynstat_eta_sd               =   7.5330347390203E-02
(PID.TID 0000.0001) %MON dynstat_eta_del2             =   6.8359484617665E-03
(PID.TID 0000.0001) %MON dynstat_uvel_max             =   1.2656862063554E-01
(PID.TID 0000.0001) %MON dynstat_uvel_min             =  -4.6783383244702E-02
(PID.TID 0000.0001) %MON dynstat_uvel_mean            =   4.4040882154487E-04
(PID.TID 0000.0001) %MON dynstat_uvel_sd              =   1.0281727894883E-02
(PID.TID 0000.0001) %MON dynstat_uvel_del2            =   2.8648447305407E-03
(PID.TID 0000.0001) %MON dynstat_vvel_max             =   7.8803233466560E-02
(PID.TID 0000.0001) %MON dynstat_vvel_min             =  -1.7140505433747E-01
(PID.TID 0000.0001) %MON dynstat_vvel_mean            =  -1.6123671086192E-04
(PID.TID 0000.0001) %MON dynstat_vvel_sd              =   1.0823262002479E-02
(PID.TID 0000.0001) %MON dynstat_vvel_del2            =   2.5829541955770E-03
(PID.TID 0000.0001) %MON dynstat_wvel_max             =   3.9094960499497E-04
(PID.TID 0000.0001) %MON dynstat_wvel_min             =  -3.1467344094197E-04
(PID.TID 0000.0001) %MON dynstat_wvel_mean            =   2.0884180099671E-21
(PID.TID 0000.0001) %MON dynstat_wvel_sd              =   6.6414458681951E-05
(PID.TID 0000.0001) %MON dynstat_wvel_del2            =   5.2652438502920E-06
(PID.TID 0000.0001) %MON dynstat_theta_max            =   1.3348464326106E+01
(PID.TID 0000.0001) %MON dynstat_theta_min            =  -1.9631755013996E+00
(PID.TID 0000.0001) %MON dynstat_theta_mean           =   3.0738007509742E+00
(PID.TID 0000.0001) %MON dynstat_theta_sd             =   1.4281489142779E+00
(PID.TID 0000.0001) %MON dynstat_theta_del2           =   9.3359643259375E-02
(PID.TID 0000.0001) %MON dynstat_salt_max             =   3.5451520884251E+01
(PID.TID 0000.0001) %MON dynstat_salt_min             =   2.6697198326812E+01
(PID.TID 0000.0001) %MON dynstat_salt_mean            =   3.4740223881056E+01
(PID.TID 0000.0001) %MON dynstat_salt_sd              =   5.5668334177371E-01
(PID.TID 0000.0001) %MON dynstat_salt_del2            =   3.8409961541982E-02
(PID.TID 0000.0001) %MON extforcing_qnet_max          =   1.7996717569910E+02
(PID.TID 0000.0001) %MON extforcing_qnet_min          =  -5.0961696043654E+01
(PID.TID 0000.0001) %MON extforcing_qnet_mean         =   1.6992127245442E+01
(PID.TID 0000.0001) %MON extforcing_qnet_sd           =   4.2300210757276E+01
(PID.TID 0000.0001) %MON extforcing_qnet_del2         =   7.9267095247552E+00
(PID.TID 0000.0001) %MON extforcing_qsw_max           =   0.0000000000000E+00
(PID.TID 0000.0001) %MON extforcing_qsw_min           =  -5.7252466934762E+01
(PID.TID 0000.0001) %MON extforcing_qsw_mean          =  -1.5926410334721E+01
(PID.TID 0000.0001) %MON extforcing_qsw_sd            =   2.0589666872279E+01
(PID.TID 0000.0001) %MON extforcing_qsw_del2          =   1.8722121655567E+00
(PID.TID 0000.0001) %MON extforcing_empmr_max         =   2.1442621451884E-07
(PID.TID 0000.0001) %MON extforcing_empmr_min         =  -4.4506309170957E-07
(PID.TID 0000.0001) %MON extforcing_empmr_mean        =  -3.1444934484551E-08
(PID.TID 0000.0001) %MON extforcing_empmr_sd          =   1.0784723193486E-07
(PID.TID 0000.0001) %MON extforcing_empmr_del2        =   2.2102138748264E-08
(PID.TID 0000.0001) %MON extforcing_fu_max            =   4.8880476985948E-02
(PID.TID 0000.0001) %MON extforcing_fu_min            =  -7.3249025497392E-03
(PID.TID 0000.0001) %MON extforcing_fu_mean           =   6.4471263208050E-03
(PID.TID 0000.0001) %MON extforcing_fu_sd             =   1.4780988319859E-02
(PID.TID 0000.0001) %MON extforcing_fu_del2           =   9.8443911477235E-04
(PID.TID 0000.0001) %MON extforcing_fv_max            =   1.0962325027260E-02
(PID.TID 0000.0001) %MON extforcing_fv_min            =  -5.8408897024507E-02
(PID.TID 0000.0001) %MON extforcing_fv_mean           =  -7.5371616567771E-03
(PID.TID 0000.0001) %MON extforcing_fv_sd             =   1.5807772960393E-02
(PID.TID 0000.0001) %MON extforcing_fv_del2           =   2.1301023724525E-03
(PID.TID 0000.0001) %MON advcfl_uvel_max              =   3.1229904970477E-03
(PID.TID 0000.0001) %MON advcfl_vvel_max              =   2.7746688371285E-03
(PID.TID 0000.0001) %MON advcfl_wvel_max              =   8.4503383126529E-03
(PID.TID 0000.0001) %MON advcfl_W_hf_max              =   9.9806288395516E-03
(PID.TID 0000.0001) %MON pe_b_mean                    =   1.8707371978993E-05
(PID.TID 0000.0001) %MON ke_max                       =   1.3854490991373E-02
(PID.TID 0000.0001) %MON ke_mean                      =   8.7436789619398E-05
(PID.TID 0000.0001) %MON ke_vol                       =   5.3036189546438E+15
(PID.TID 0000.0001) %MON vort_r_min                   =  -1.2076191536026E-06
(PID.TID 0000.0001) %MON vort_r_max                   =   7.2339175911324E-07
(PID.TID 0000.0001) %MON vort_a_mean                  =   1.2067277135976E-04
(PID.TID 0000.0001) %MON vort_a_sd                    =   8.8121438026174E-06
(PID.TID 0000.0001) %MON vort_p_mean                  =   1.7734842483968E-04
(PID.TID 0000.0001) %MON vort_p_sd                    =   1.1689242985669E-04
(PID.TID 0000.0001) %MON surfExpan_theta_mean         =   1.8884430718086E-07
(PID.TID 0000.0001) %MON surfExpan_salt_mean          =   7.7052068490965E-07
(PID.TID 0000.0001) // =======================================================
(PID.TID 0000.0001) // End MONITOR dynamic field statistics
(PID.TID 0000.0001) // =======================================================
(PID.TID 0000.0001) // =======================================================
(PID.TID 0000.0001) // Begin MONITOR SEAICE statistics
(PID.TID 0000.0001) // =======================================================
(PID.TID 0000.0001) %MON seaice_tsnumber              =                     7
(PID.TID 0000.0001) %MON seaice_time_sec              =   2.5200000000000E+04
(PID.TID 0000.0001) %MON seaice_uice_max              =   2.7756226569941E-01
(PID.TID 0000.0001) %MON seaice_uice_min              =  -3.9645242999928E-02
(PID.TID 0000.0001) %MON seaice_uice_mean             =   2.6789398356584E-02
(PID.TID 0000.0001) %MON seaice_uice_sd               =   6.6764548720570E-02
(PID.TID 0000.0001) %MON seaice_uice_del2             =   4.0384638891271E-03
(PID.TID 0000.0001) %MON seaice_vice_max              =   9.3154843930238E-02
(PID.TID 0000.0001) %MON seaice_vice_min              =  -1.8392342586803E-01
(PID.TID 0000.0001) %MON seaice_vice_mean             =  -3.1034481746221E-02
(PID.TID 0000.0001) %MON seaice_vice_sd               =   6.1388970141311E-02
(PID.TID 0000.0001) %MON seaice_vice_del2             =   6.7522016005820E-03
(PID.TID 0000.0001) %MON seaice_area_max              =   1.0000000000000E+00
(PID.TID 0000.0001) %MON seaice_area_min              =   0.0000000000000E+00
(PID.TID 0000.0001) %MON seaice_area_mean             =   6.2446346230353E-01
(PID.TID 0000.0001) %MON seaice_area_sd               =   4.5805073131636E-01
(PID.TID 0000.0001) %MON seaice_area_del2             =   5.3349572752807E-02
(PID.TID 0000.0001) %MON seaice_heff_max              =   5.5828906808696E-01
(PID.TID 0000.0001) %MON seaice_heff_min              =   0.0000000000000E+00
(PID.TID 0000.0001) %MON seaice_heff_mean             =   1.4258642647837E-01
(PID.TID 0000.0001) %MON seaice_heff_sd               =   1.7450762162692E-01
(PID.TID 0000.0001) %MON seaice_heff_del2             =   1.3242851509494E-02
(PID.TID 0000.0001) %MON seaice_hsnow_max             =   2.0549577238928E-01
(PID.TID 0000.0001) %MON seaice_hsnow_min             =   0.0000000000000E+00
(PID.TID 0000.0001) %MON seaice_hsnow_mean            =   1.1882196889169E-01
(PID.TID 0000.0001) %MON seaice_hsnow_sd              =   9.7302470391153E-02
(PID.TID 0000.0001) %MON seaice_hsnow_del2            =   6.5205213917017E-03
(PID.TID 0000.0001) // =======================================================
(PID.TID 0000.0001) // End MONITOR SEAICE statistics
(PID.TID 0000.0001) // =======================================================
(PID.TID 0000.0001)  exf_GetFFieldsRec:
(PID.TID 0000.0001)  exf_GetFFieldsRec: first, changed, fac:   F   F   0.49043716E+00
(PID.TID 0000.0001)  exf_GetFFieldsRec: myiter, count0, count1:      7      1      2
(PID.TID 0000.0001)  exf_GetFFieldsRec:
(PID.TID 0000.0001)  exf_GetFFieldsRec:
(PID.TID 0000.0001)  exf_GetFFieldsRec: first, changed, fac:   F   F   0.49043716E+00
(PID.TID 0000.0001)  exf_GetFFieldsRec: myiter, count0, count1:      7      1      2
(PID.TID 0000.0001)  exf_GetFFieldsRec:
(PID.TID 0000.0001)  exf_GetFFieldsRec:
(PID.TID 0000.0001)  exf_GetFFieldsRec: first, changed, fac:   F   F   0.49043716E+00
(PID.TID 0000.0001)  exf_GetFFieldsRec: myiter, count0, count1:      7      1      2
(PID.TID 0000.0001)  exf_GetFFieldsRec:
(PID.TID 0000.0001)  exf_GetFFieldsRec:
(PID.TID 0000.0001)  exf_GetFFieldsRec: first, changed, fac:   F   F   0.49043716E+00
(PID.TID 0000.0001)  exf_GetFFieldsRec: myiter, count0, count1:      7      1      2
(PID.TID 0000.0001)  exf_GetFFieldsRec:
(PID.TID 0000.0001)  exf_GetFFieldsRec:
(PID.TID 0000.0001)  exf_GetFFieldsRec: first, changed, fac:   F   F   0.49043716E+00
(PID.TID 0000.0001)  exf_GetFFieldsRec: myiter, count0, count1:      7      1      2
(PID.TID 0000.0001)  exf_GetFFieldsRec:
(PID.TID 0000.0001)  exf_GetFFieldsRec:
(PID.TID 0000.0001)  exf_GetFFieldsRec: first, changed, fac:   F   F   0.49043716E+00
(PID.TID 0000.0001)  exf_GetFFieldsRec: myiter, count0, count1:      7      1      2
(PID.TID 0000.0001)  exf_GetFFieldsRec:
(PID.TID 0000.0001)  exf_GetFFieldsRec:
(PID.TID 0000.0001)  exf_GetFFieldsRec: first, changed, fac:   F   F   0.49043716E+00
(PID.TID 0000.0001)  exf_GetFFieldsRec: myiter, count0, count1:      7      1      2
(PID.TID 0000.0001)  exf_GetFFieldsRec:
(PID.TID 0000.0001)  exf_GetFFieldsRec:
(PID.TID 0000.0001)  exf_GetFFieldsRec: first, changed, fac:   F   F   0.49043716E+00
(PID.TID 0000.0001)  exf_GetFFieldsRec: myiter, count0, count1:      7      1      2
(PID.TID 0000.0001)  exf_GetFFieldsRec:
(PID.TID 0000.0001) // =======================================================
(PID.TID 0000.0001) // Begin MONITOR EXF statistics
(PID.TID 0000.0001) // =======================================================
(PID.TID 0000.0001) %MON exf_tsnumber                 =                     7
(PID.TID 0000.0001) %MON exf_time_sec                 =   2.5200000000000E+04
(PID.TID 0000.0001) %MON exf_ustress_max              =   5.2243822505909E-02
(PID.TID 0000.0001) %MON exf_ustress_min              =  -9.3797617079376E-02
(PID.TID 0000.0001) %MON exf_ustress_mean             =   1.7881603657576E-02
(PID.TID 0000.0001) %MON exf_ustress_sd               =   2.3703689712092E-02
(PID.TID 0000.0001) %MON exf_ustress_del2             =   2.8131113157242E-03
(PID.TID 0000.0001) %MON exf_vstress_max              =   5.3834306693423E-02
(PID.TID 0000.0001) %MON exf_vstress_min              =  -5.8441238641422E-02
(PID.TID 0000.0001) %MON exf_vstress_mean             =  -5.4460117824836E-03
(PID.TID 0000.0001) %MON exf_vstress_sd               =   1.4444827935265E-02
(PID.TID 0000.0001) %MON exf_vstress_del2             =   1.6948097371936E-03
(PID.TID 0000.0001) %MON exf_hflux_max                =   6.2517100673461E+02
(PID.TID 0000.0001) %MON exf_hflux_min                =  -5.0910537177226E+01
(PID.TID 0000.0001) %MON exf_hflux_mean               =   1.4601316006591E+02
(PID.TID 0000.0001) %MON exf_hflux_sd                 =   1.8035489728889E+02
(PID.TID 0000.0001) %MON exf_hflux_del2               =   1.6111262993885E+01
(PID.TID 0000.0001) %MON exf_sflux_max                =   3.9032204766878E-08
(PID.TID 0000.0001) %MON exf_sflux_min                =  -8.8842866709459E-08
(PID.TID 0000.0001) %MON exf_sflux_mean               =  -2.5997957027840E-08
(PID.TID 0000.0001) %MON exf_sflux_sd                 =   3.0409651871399E-08
(PID.TID 0000.0001) %MON exf_sflux_del2               =   3.1585792784124E-09
(PID.TID 0000.0001) %MON exf_uwind_max                =   6.4679267093784E+00
(PID.TID 0000.0001) %MON exf_uwind_min                =  -6.8374255452651E+00
(PID.TID 0000.0001) %MON exf_uwind_mean               =   2.7705256000140E+00
(PID.TID 0000.0001) %MON exf_uwind_sd                 =   2.9919728561678E+00
(PID.TID 0000.0001) %MON exf_uwind_del2               =   3.1575870964052E-01
(PID.TID 0000.0001) %MON exf_vwind_max                =   3.9242794780783E+00
(PID.TID 0000.0001) %MON exf_vwind_min                =  -6.0133620194399E+00
(PID.TID 0000.0001) %MON exf_vwind_mean               =  -7.5657426961883E-01
(PID.TID 0000.0001) %MON exf_vwind_sd                 =   1.7301024272674E+00
(PID.TID 0000.0001) %MON exf_vwind_del2               =   1.9328486005918E-01
(PID.TID 0000.0001) %MON exf_wspeed_max               =   7.8835498038073E+00
(PID.TID 0000.0001) %MON exf_wspeed_min               =   4.5865235699732E-01
(PID.TID 0000.0001) %MON exf_wspeed_mean              =   4.1988415259832E+00
(PID.TID 0000.0001) %MON exf_wspeed_sd                =   1.6009692521540E+00
(PID.TID 0000.0001) %MON exf_wspeed_del2              =   5.4013779583401E-01
(PID.TID 0000.0001) %MON exf_atemp_max                =   2.8187082742993E+02
(PID.TID 0000.0001) %MON exf_atemp_min                =   2.3643051433042E+02
(PID.TID 0000.0001) %MON exf_atemp_mean               =   2.6391354924392E+02
(PID.TID 0000.0001) %MON exf_atemp_sd                 =   1.1993651656543E+01
(PID.TID 0000.0001) %MON exf_atemp_del2               =   6.4954347891886E-01
(PID.TID 0000.0001) %MON exf_aqh_max                  =   6.3182971576392E-03
(PID.TID 0000.0001) %MON exf_aqh_min                  =   1.6303402368524E-04
(PID.TID 0000.0001) %MON exf_aqh_mean                 =   2.4764404153565E-03
(PID.TID 0000.0001) %MON exf_aqh_sd                   =   1.4257865072101E-03
(PID.TID 0000.0001) %MON exf_aqh_del2                 =   6.8044717931437E-05
(PID.TID 0000.0001) %MON exf_lwflux_max               =   1.8159118963846E+02
(PID.TID 0000.0001) %MON exf_lwflux_min               =   2.7093317084642E+01
(PID.TID 0000.0001) %MON exf_lwflux_mean              =   7.5121700960574E+01
(PID.TID 0000.0001) %MON exf_lwflux_sd                =   4.2896580978133E+01
(PID.TID 0000.0001) %MON exf_lwflux_del2              =   7.0111691741852E+00
(PID.TID 0000.0001) %MON exf_precip_max               =   1.0499733310606E-07
(PID.TID 0000.0001) %MON exf_precip_min               =   2.7265750163496E-10
(PID.TID 0000.0001) %MON exf_precip_mean              =   3.6390004634845E-08
(PID.TID 0000.0001) %MON exf_precip_sd                =   2.0581314966068E-08
(PID.TID 0000.0001) %MON exf_precip_del2              =   2.5588566430319E-09
(PID.TID 0000.0001) %MON exf_snowprecip_max           =   0.0000000000000E+00
(PID.TID 0000.0001) %MON exf_snowprecip_min           =   0.0000000000000E+00
(PID.TID 0000.0001) %MON exf_snowprecip_mean          =   0.0000000000000E+00
(PID.TID 0000.0001) %MON exf_snowprecip_sd            =   0.0000000000000E+00
(PID.TID 0000.0001) %MON exf_snowprecip_del2          =   0.0000000000000E+00
(PID.TID 0000.0001) %MON exf_swflux_max               =  -8.1207735616653E-02
(PID.TID 0000.0001) %MON exf_swflux_min               =  -6.4105206467675E+01
(PID.TID 0000.0001) %MON exf_swflux_mean              =  -2.6526948534072E+01
(PID.TID 0000.0001) %MON exf_swflux_sd                =   1.9652762825246E+01
(PID.TID 0000.0001) %MON exf_swflux_del2              =   4.7976088317456E-01
(PID.TID 0000.0001) %MON exf_evap_max                 =   4.5351773614458E-08
(PID.TID 0000.0001) %MON exf_evap_min                 =  -4.1354493358311E-09
(PID.TID 0000.0001) %MON exf_evap_mean                =   1.0392047607005E-08
(PID.TID 0000.0001) %MON exf_evap_sd                  =   1.1128318418914E-08
(PID.TID 0000.0001) %MON exf_evap_del2                =   1.3063118563599E-09
(PID.TID 0000.0001) %MON exf_swdown_max               =   7.1228007186306E+01
(PID.TID 0000.0001) %MON exf_swdown_min               =   9.0230817351836E-02
(PID.TID 0000.0001) %MON exf_swdown_mean              =   2.9474387260081E+01
(PID.TID 0000.0001) %MON exf_swdown_sd                =   2.1836403139162E+01
(PID.TID 0000.0001) %MON exf_swdown_del2              =   5.3293783421511E-01
(PID.TID 0000.0001) %MON exf_lwdown_max               =   3.0561793543081E+02
(PID.TID 0000.0001) %MON exf_lwdown_min               =   1.1589194395764E+02
(PID.TID 0000.0001) %MON exf_lwdown_mean              =   2.2583936565568E+02
(PID.TID 0000.0001) %MON exf_lwdown_sd                =   4.6305239399294E+01
(PID.TID 0000.0001) %MON exf_lwdown_del2              =   3.2440700129733E+00
(PID.TID 0000.0001) %MON exf_apressure_max            =   0.0000000000000E+00
(PID.TID 0000.0001) %MON exf_apressure_min            =   0.0000000000000E+00
(PID.TID 0000.0001) %MON exf_apressure_mean           =   0.0000000000000E+00
(PID.TID 0000.0001) %MON exf_apressure_sd             =   0.0000000000000E+00
(PID.TID 0000.0001) %MON exf_apressure_del2           =   0.0000000000000E+00
(PID.TID 0000.0001) %MON exf_runoff_max               =   0.0000000000000E+00
(PID.TID 0000.0001) %MON exf_runoff_min               =   0.0000000000000E+00
(PID.TID 0000.0001) %MON exf_runoff_mean              =   0.0000000000000E+00
(PID.TID 0000.0001) %MON exf_runoff_sd                =   0.0000000000000E+00
(PID.TID 0000.0001) %MON exf_runoff_del2              =   0.0000000000000E+00
(PID.TID 0000.0001) %MON exf_climsst_max              =   0.0000000000000E+00
(PID.TID 0000.0001) %MON exf_climsst_min              =   0.0000000000000E+00
(PID.TID 0000.0001) %MON exf_climsst_mean             =   0.0000000000000E+00
(PID.TID 0000.0001) %MON exf_climsst_sd               =   0.0000000000000E+00
(PID.TID 0000.0001) %MON exf_climsst_del2             =   0.0000000000000E+00
(PID.TID 0000.0001) %MON exf_climsss_max              =   3.5041624116116E+01
(PID.TID 0000.0001) %MON exf_climsss_min              =   3.0671628467372E+01
(PID.TID 0000.0001) %MON exf_climsss_mean             =   3.3462968935345E+01
(PID.TID 0000.0001) %MON exf_climsss_sd               =   1.0314580197633E+00
(PID.TID 0000.0001) %MON exf_climsss_del2             =   1.0007335642865E-01
(PID.TID 0000.0001) // =======================================================
(PID.TID 0000.0001) // End MONITOR EXF statistics
(PID.TID 0000.0001) // =======================================================
 cg2d: Sum(rhs),rhsMax =   5.27355936696949E-13  1.18194545232178E+00
(PID.TID 0000.0001)                    cg2d_init_res =    6.49334969315042E-02
(PID.TID 0000.0001)                       cg2d_iters =    41
(PID.TID 0000.0001)                         cg2d_res =    4.51978239863433E-13
(PID.TID 0000.0001) // =======================================================
(PID.TID 0000.0001) // Begin MONITOR dynamic field statistics
(PID.TID 0000.0001) // =======================================================
(PID.TID 0000.0001) %MON time_tsnumber                =                     8
(PID.TID 0000.0001) %MON time_secondsf                =   2.8800000000000E+04
(PID.TID 0000.0001) %MON dynstat_eta_max              =   3.2333843634426E-01
(PID.TID 0000.0001) %MON dynstat_eta_min              =  -1.0976628650810E-01
(PID.TID 0000.0001) %MON dynstat_eta_mean             =  -1.6627558651769E-14
(PID.TID 0000.0001) %MON dynstat_eta_sd               =   7.0961749854646E-02
(PID.TID 0000.0001) %MON dynstat_eta_del2             =   7.0133822540126E-03
(PID.TID 0000.0001) %MON dynstat_uvel_max             =   1.2252305681894E-01
(PID.TID 0000.0001) %MON dynstat_uvel_min             =  -6.1095803525481E-02
(PID.TID 0000.0001) %MON dynstat_uvel_mean            =   2.3167971784870E-04
(PID.TID 0000.0001) %MON dynstat_uvel_sd              =   1.0523721333170E-02
(PID.TID 0000.0001) %MON dynstat_uvel_del2            =   2.6570718938989E-03
(PID.TID 0000.0001) %MON dynstat_vvel_max             =   6.6835172824560E-02
(PID.TID 0000.0001) %MON dynstat_vvel_min             =  -1.6953232404440E-01
(PID.TID 0000.0001) %MON dynstat_vvel_mean            =   2.6267152645020E-05
(PID.TID 0000.0001) %MON dynstat_vvel_sd              =   9.7448877637158E-03
(PID.TID 0000.0001) %MON dynstat_vvel_del2            =   2.6948358190794E-03
(PID.TID 0000.0001) %MON dynstat_wvel_max             =   3.6890591776972E-04
(PID.TID 0000.0001) %MON dynstat_wvel_min             =  -3.2555977899622E-04
(PID.TID 0000.0001) %MON dynstat_wvel_mean            =   1.1368902776152E-21
(PID.TID 0000.0001) %MON dynstat_wvel_sd              =   6.6168066392015E-05
(PID.TID 0000.0001) %MON dynstat_wvel_del2            =   5.7548533500039E-06
(PID.TID 0000.0001) %MON dynstat_theta_max            =   1.3336920485688E+01
(PID.TID 0000.0001) %MON dynstat_theta_min            =  -1.9634014103779E+00
(PID.TID 0000.0001) %MON dynstat_theta_mean           =   3.0737883039665E+00
(PID.TID 0000.0001) %MON dynstat_theta_sd             =   1.4280995028546E+00
(PID.TID 0000.0001) %MON dynstat_theta_del2           =   9.3342917374722E-02
(PID.TID 0000.0001) %MON dynstat_salt_max             =   3.5451425401399E+01
(PID.TID 0000.0001) %MON dynstat_salt_min             =   2.6699421149644E+01
(PID.TID 0000.0001) %MON dynstat_salt_mean            =   3.4740225794174E+01
(PID.TID 0000.0001) %MON dynstat_salt_sd              =   5.5660377133326E-01
(PID.TID 0000.0001) %MON dynstat_salt_del2            =   3.8418026036081E-02
(PID.TID 0000.0001) %MON extforcing_qnet_max          =   2.7950321586419E+02
(PID.TID 0000.0001) %MON extforcing_qnet_min          =  -5.0910537177226E+01
(PID.TID 0000.0001) %MON extforcing_qnet_mean         =   2.2041604478139E+01
(PID.TID 0000.0001) %MON extforcing_qnet_sd           =   4.7539888807902E+01
(PID.TID 0000.0001) %MON extforcing_qnet_del2         =   7.1713069579872E+00
(PID.TID 0000.0001) %MON extforcing_qsw_max           =   0.0000000000000E+00
(PID.TID 0000.0001) %MON extforcing_qsw_min           =  -5.7267069651618E+01
(PID.TID 0000.0001) %MON extforcing_qsw_mean          =  -1.5962082769297E+01
(PID.TID 0000.0001) %MON extforcing_qsw_sd            =   2.0552198863745E+01
(PID.TID 0000.0001) %MON extforcing_qsw_del2          =   1.8612660027672E+00
(PID.TID 0000.0001) %MON extforcing_empmr_max         =   1.7143478975236E-07
(PID.TID 0000.0001) %MON extforcing_empmr_min         =  -5.6837370916076E-07
(PID.TID 0000.0001) %MON extforcing_empmr_mean        =  -4.6974755600322E-08
(PID.TID 0000.0001) %MON extforcing_empmr_sd          =   1.2227567390049E-07
(PID.TID 0000.0001) %MON extforcing_empmr_del2        =   2.0292917506511E-08
(PID.TID 0000.0001) %MON extforcing_fu_max            =   4.8904543632216E-02
(PID.TID 0000.0001) %MON extforcing_fu_min            =  -8.6192397389985E-03
(PID.TID 0000.0001) %MON extforcing_fu_mean           =   6.7672134446691E-03
(PID.TID 0000.0001) %MON extforcing_fu_sd             =   1.5229687191344E-02
(PID.TID 0000.0001) %MON extforcing_fu_del2           =   1.1043790766218E-03
(PID.TID 0000.0001) %MON extforcing_fv_max            =   1.0965043047244E-02
(PID.TID 0000.0001) %MON extforcing_fv_min            =  -5.8404836384556E-02
(PID.TID 0000.0001) %MON extforcing_fv_mean           =  -7.5621880646304E-03
(PID.TID 0000.0001) %MON extforcing_fv_sd             =   1.5700851964970E-02
(PID.TID 0000.0001) %MON extforcing_fv_del2           =   2.1130731487915E-03
(PID.TID 0000.0001) %MON advcfl_uvel_max              =   3.0231690935198E-03
(PID.TID 0000.0001) %MON advcfl_vvel_max              =   2.7443534744654E-03
(PID.TID 0000.0001) %MON advcfl_wvel_max              =   8.1916879401641E-03
(PID.TID 0000.0001) %MON advcfl_W_hf_max              =   1.0667972829550E-02
(PID.TID 0000.0001) %MON pe_b_mean                    =   1.6600511658688E-05
(PID.TID 0000.0001) %MON ke_max                       =   1.3898570291713E-02
(PID.TID 0000.0001) %MON ke_mean                      =   8.0723269406023E-05
(PID.TID 0000.0001) %MON ke_vol                       =   5.3036189546438E+15
(PID.TID 0000.0001) %MON vort_r_min                   =  -1.1442583650911E-06
(PID.TID 0000.0001) %MON vort_r_max                   =   6.5894528984761E-07
(PID.TID 0000.0001) %MON vort_a_mean                  =   1.2067277172162E-04
(PID.TID 0000.0001) %MON vort_a_sd                    =   8.8119649971379E-06
(PID.TID 0000.0001) %MON vort_p_mean                  =   1.7734842537149E-04
(PID.TID 0000.0001) %MON vort_p_sd                    =   1.1688993483072E-04
(PID.TID 0000.0001) %MON surfExpan_theta_mean         =  -5.9666143653239E-07
(PID.TID 0000.0001) %MON surfExpan_salt_mean          =   6.2402341709662E-07
(PID.TID 0000.0001) // =======================================================
(PID.TID 0000.0001) // End MONITOR dynamic field statistics
(PID.TID 0000.0001) // =======================================================
(PID.TID 0000.0001) // =======================================================
(PID.TID 0000.0001) // Begin MONITOR SEAICE statistics
(PID.TID 0000.0001) // =======================================================
(PID.TID 0000.0001) %MON seaice_tsnumber              =                     8
(PID.TID 0000.0001) %MON seaice_time_sec              =   2.8800000000000E+04
(PID.TID 0000.0001) %MON seaice_uice_max              =   2.8480865785837E-01
(PID.TID 0000.0001) %MON seaice_uice_min              =  -4.6282990663467E-02
(PID.TID 0000.0001) %MON seaice_uice_mean             =   2.4479196298618E-02
(PID.TID 0000.0001) %MON seaice_uice_sd               =   6.8226264701463E-02
(PID.TID 0000.0001) %MON seaice_uice_del2             =   4.4677943402446E-03
(PID.TID 0000.0001) %MON seaice_vice_max              =   6.9956415868411E-02
(PID.TID 0000.0001) %MON seaice_vice_min              =  -1.8960825174031E-01
(PID.TID 0000.0001) %MON seaice_vice_mean             =  -3.2736698669910E-02
(PID.TID 0000.0001) %MON seaice_vice_sd               =   6.0464046828154E-02
(PID.TID 0000.0001) %MON seaice_vice_del2             =   6.3175968523418E-03
(PID.TID 0000.0001) %MON seaice_area_max              =   1.0000000000000E+00
(PID.TID 0000.0001) %MON seaice_area_min              =   0.0000000000000E+00
(PID.TID 0000.0001) %MON seaice_area_mean             =   6.2438781949308E-01
(PID.TID 0000.0001) %MON seaice_area_sd               =   4.5769710823022E-01
(PID.TID 0000.0001) %MON seaice_area_del2             =   5.3344878658728E-02
(PID.TID 0000.0001) %MON seaice_heff_max              =   5.5752038258559E-01
(PID.TID 0000.0001) %MON seaice_heff_min              =   0.0000000000000E+00
(PID.TID 0000.0001) %MON seaice_heff_mean             =   1.4248654093113E-01
(PID.TID 0000.0001) %MON seaice_heff_sd               =   1.7465742576456E-01
(PID.TID 0000.0001) %MON seaice_heff_del2             =   1.3216031757607E-02
(PID.TID 0000.0001) %MON seaice_hsnow_max             =   2.0628126895417E-01
(PID.TID 0000.0001) %MON seaice_hsnow_min             =   0.0000000000000E+00
(PID.TID 0000.0001) %MON seaice_hsnow_mean            =   1.1898244094610E-01
(PID.TID 0000.0001) %MON seaice_hsnow_sd              =   9.7424108710675E-02
(PID.TID 0000.0001) %MON seaice_hsnow_del2            =   6.5599798210584E-03
(PID.TID 0000.0001) // =======================================================
(PID.TID 0000.0001) // End MONITOR SEAICE statistics
(PID.TID 0000.0001) // =======================================================
(PID.TID 0000.0001)  exf_GetFFieldsRec:
(PID.TID 0000.0001)  exf_GetFFieldsRec: first, changed, fac:   F   F   0.48907104E+00
(PID.TID 0000.0001)  exf_GetFFieldsRec: myiter, count0, count1:      8      1      2
(PID.TID 0000.0001)  exf_GetFFieldsRec:
(PID.TID 0000.0001)  exf_GetFFieldsRec:
(PID.TID 0000.0001)  exf_GetFFieldsRec: first, changed, fac:   F   F   0.48907104E+00
(PID.TID 0000.0001)  exf_GetFFieldsRec: myiter, count0, count1:      8      1      2
(PID.TID 0000.0001)  exf_GetFFieldsRec:
(PID.TID 0000.0001)  exf_GetFFieldsRec:
(PID.TID 0000.0001)  exf_GetFFieldsRec: first, changed, fac:   F   F   0.48907104E+00
(PID.TID 0000.0001)  exf_GetFFieldsRec: myiter, count0, count1:      8      1      2
(PID.TID 0000.0001)  exf_GetFFieldsRec:
(PID.TID 0000.0001)  exf_GetFFieldsRec:
(PID.TID 0000.0001)  exf_GetFFieldsRec: first, changed, fac:   F   F   0.48907104E+00
(PID.TID 0000.0001)  exf_GetFFieldsRec: myiter, count0, count1:      8      1      2
(PID.TID 0000.0001)  exf_GetFFieldsRec:
(PID.TID 0000.0001)  exf_GetFFieldsRec:
(PID.TID 0000.0001)  exf_GetFFieldsRec: first, changed, fac:   F   F   0.48907104E+00
(PID.TID 0000.0001)  exf_GetFFieldsRec: myiter, count0, count1:      8      1      2
(PID.TID 0000.0001)  exf_GetFFieldsRec:
(PID.TID 0000.0001)  exf_GetFFieldsRec:
(PID.TID 0000.0001)  exf_GetFFieldsRec: first, changed, fac:   F   F   0.48907104E+00
(PID.TID 0000.0001)  exf_GetFFieldsRec: myiter, count0, count1:      8      1      2
(PID.TID 0000.0001)  exf_GetFFieldsRec:
(PID.TID 0000.0001)  exf_GetFFieldsRec:
(PID.TID 0000.0001)  exf_GetFFieldsRec: first, changed, fac:   F   F   0.48907104E+00
(PID.TID 0000.0001)  exf_GetFFieldsRec: myiter, count0, count1:      8      1      2
(PID.TID 0000.0001)  exf_GetFFieldsRec:
(PID.TID 0000.0001)  exf_GetFFieldsRec:
(PID.TID 0000.0001)  exf_GetFFieldsRec: first, changed, fac:   F   F   0.48907104E+00
(PID.TID 0000.0001)  exf_GetFFieldsRec: myiter, count0, count1:      8      1      2
(PID.TID 0000.0001)  exf_GetFFieldsRec:
(PID.TID 0000.0001) // =======================================================
(PID.TID 0000.0001) // Begin MONITOR EXF statistics
(PID.TID 0000.0001) // =======================================================
(PID.TID 0000.0001) %MON exf_tsnumber                 =                     8
(PID.TID 0000.0001) %MON exf_time_sec                 =   2.8800000000000E+04
(PID.TID 0000.0001) %MON exf_ustress_max              =   5.2249000312682E-02
(PID.TID 0000.0001) %MON exf_ustress_min              =  -9.3800103540049E-02
(PID.TID 0000.0001) %MON exf_ustress_mean             =   1.7887779699676E-02
(PID.TID 0000.0001) %MON exf_ustress_sd               =   2.3709122362552E-02
(PID.TID 0000.0001) %MON exf_ustress_del2             =   2.8139798742174E-03
(PID.TID 0000.0001) %MON exf_vstress_max              =   5.3835936943030E-02
(PID.TID 0000.0001) %MON exf_vstress_min              =  -5.8424230286620E-02
(PID.TID 0000.0001) %MON exf_vstress_mean             =  -5.4426514556454E-03
(PID.TID 0000.0001) %MON exf_vstress_sd               =   1.4446331067054E-02
(PID.TID 0000.0001) %MON exf_vstress_del2             =   1.6947992350838E-03
(PID.TID 0000.0001) %MON exf_hflux_max                =   6.2524124114849E+02
(PID.TID 0000.0001) %MON exf_hflux_min                =  -5.0927575421359E+01
(PID.TID 0000.0001) %MON exf_hflux_mean               =   1.4607642584221E+02
(PID.TID 0000.0001) %MON exf_hflux_sd                 =   1.8037844348754E+02
(PID.TID 0000.0001) %MON exf_hflux_del2               =   1.6114784722503E+01
(PID.TID 0000.0001) %MON exf_sflux_max                =   3.9034491038209E-08
(PID.TID 0000.0001) %MON exf_sflux_min                =  -8.8850523516249E-08
(PID.TID 0000.0001) %MON exf_sflux_mean               =  -2.5991913611085E-08
(PID.TID 0000.0001) %MON exf_sflux_sd                 =   3.0409757421455E-08
(PID.TID 0000.0001) %MON exf_sflux_del2               =   3.1594092512810E-09
(PID.TID 0000.0001) %MON exf_uwind_max                =   6.4684341618272E+00
(PID.TID 0000.0001) %MON exf_uwind_min                =  -6.8374523269674E+00
(PID.TID 0000.0001) %MON exf_uwind_mean               =   2.7706331523584E+00
(PID.TID 0000.0001) %MON exf_uwind_sd                 =   2.9922491036980E+00
(PID.TID 0000.0001) %MON exf_uwind_del2               =   3.1576876807699E-01
(PID.TID 0000.0001) %MON exf_vwind_max                =   3.9243096588739E+00
(PID.TID 0000.0001) %MON exf_vwind_min                =  -6.0124561096150E+00
(PID.TID 0000.0001) %MON exf_vwind_mean               =  -7.5595649652871E-01
(PID.TID 0000.0001) %MON exf_vwind_sd                 =   1.7302112611018E+00
(PID.TID 0000.0001) %MON exf_vwind_del2               =   1.9327821369492E-01
(PID.TID 0000.0001) %MON exf_wspeed_max               =   7.8835880550853E+00
(PID.TID 0000.0001) %MON exf_wspeed_min               =   4.5840953253040E-01
(PID.TID 0000.0001) %MON exf_wspeed_mean              =   4.1989448725728E+00
(PID.TID 0000.0001) %MON exf_wspeed_sd                =   1.6012263903992E+00
(PID.TID 0000.0001) %MON exf_wspeed_del2              =   5.4016774434701E-01
(PID.TID 0000.0001) %MON exf_atemp_max                =   2.8186911527707E+02
(PID.TID 0000.0001) %MON exf_atemp_min                =   2.3642604936277E+02
(PID.TID 0000.0001) %MON exf_atemp_mean               =   2.6390890515856E+02
(PID.TID 0000.0001) %MON exf_atemp_sd                 =   1.1995115599497E+01
(PID.TID 0000.0001) %MON exf_atemp_del2               =   6.4956302232864E-01
(PID.TID 0000.0001) %MON exf_aqh_max                  =   6.3176006167781E-03
(PID.TID 0000.0001) %MON exf_aqh_min                  =   1.6293992018683E-04
(PID.TID 0000.0001) %MON exf_aqh_mean                 =   2.4758800589519E-03
(PID.TID 0000.0001) %MON exf_aqh_sd                   =   1.4256836550895E-03
(PID.TID 0000.0001) %MON exf_aqh_del2                 =   6.8031050370290E-05
(PID.TID 0000.0001) %MON exf_lwflux_max               =   1.8160712917861E+02
(PID.TID 0000.0001) %MON exf_lwflux_min               =   2.7079014706489E+01
(PID.TID 0000.0001) %MON exf_lwflux_mean              =   7.5140583900376E+01
(PID.TID 0000.0001) %MON exf_lwflux_sd                =   4.2898234983816E+01
(PID.TID 0000.0001) %MON exf_lwflux_del2              =   7.0122406811156E+00
(PID.TID 0000.0001) %MON exf_precip_max               =   1.0499871454869E-07
(PID.TID 0000.0001) %MON exf_precip_min               =   2.7252357516229E-10
(PID.TID 0000.0001) %MON exf_precip_mean              =   3.6389993790810E-08
(PID.TID 0000.0001) %MON exf_precip_sd                =   2.0581769987393E-08
(PID.TID 0000.0001) %MON exf_precip_del2              =   2.5593843362216E-09
(PID.TID 0000.0001) %MON exf_snowprecip_max           =   0.0000000000000E+00
(PID.TID 0000.0001) %MON exf_snowprecip_min           =   0.0000000000000E+00
(PID.TID 0000.0001) %MON exf_snowprecip_mean          =   0.0000000000000E+00
(PID.TID 0000.0001) %MON exf_snowprecip_sd            =   0.0000000000000E+00
(PID.TID 0000.0001) %MON exf_snowprecip_del2          =   0.0000000000000E+00
(PID.TID 0000.0001) %MON exf_swflux_max               =  -8.1208018494434E-02
(PID.TID 0000.0001) %MON exf_swflux_min               =  -6.4124076818247E+01
(PID.TID 0000.0001) %MON exf_swflux_mean              =  -2.6537480749947E+01
(PID.TID 0000.0001) %MON exf_swflux_sd                =   1.9656602581253E+01
(PID.TID 0000.0001) %MON exf_swflux_del2              =   4.7986775712052E-01
(PID.TID 0000.0001) %MON exf_evap_max                 =   4.5353397174859E-08
(PID.TID 0000.0001) %MON exf_evap_min                 =  -4.1361819905991E-09
(PID.TID 0000.0001) %MON exf_evap_mean                =   1.0398080179726E-08
(PID.TID 0000.0001) %MON exf_evap_sd                  =   1.1127793350265E-08
(PID.TID 0000.0001) %MON exf_evap_del2                =   1.3068208630536E-09
(PID.TID 0000.0001) %MON exf_swdown_max               =   7.1248974242497E+01
(PID.TID 0000.0001) %MON exf_swdown_min               =   9.0231131660482E-02
(PID.TID 0000.0001) %MON exf_swdown_mean              =   2.9486089722164E+01
(PID.TID 0000.0001) %MON exf_swdown_sd                =   2.1840669534725E+01
(PID.TID 0000.0001) %MON exf_swdown_del2              =   5.3305658304395E-01
(PID.TID 0000.0001) %MON exf_lwdown_max               =   3.0560910934698E+02
(PID.TID 0000.0001) %MON exf_lwdown_min               =   1.1587683707899E+02
(PID.TID 0000.0001) %MON exf_lwdown_mean              =   2.2582365832661E+02
(PID.TID 0000.0001) %MON exf_lwdown_sd                =   4.6309216947189E+01
(PID.TID 0000.0001) %MON exf_lwdown_del2              =   3.2440816530460E+00
(PID.TID 0000.0001) %MON exf_apressure_max            =   0.0000000000000E+00
(PID.TID 0000.0001) %MON exf_apressure_min            =   0.0000000000000E+00
(PID.TID 0000.0001) %MON exf_apressure_mean           =   0.0000000000000E+00
(PID.TID 0000.0001) %MON exf_apressure_sd             =   0.0000000000000E+00
(PID.TID 0000.0001) %MON exf_apressure_del2           =   0.0000000000000E+00
(PID.TID 0000.0001) %MON exf_runoff_max               =   0.0000000000000E+00
(PID.TID 0000.0001) %MON exf_runoff_min               =   0.0000000000000E+00
(PID.TID 0000.0001) %MON exf_runoff_mean              =   0.0000000000000E+00
(PID.TID 0000.0001) %MON exf_runoff_sd                =   0.0000000000000E+00
(PID.TID 0000.0001) %MON exf_runoff_del2              =   0.0000000000000E+00
(PID.TID 0000.0001) %MON exf_climsst_max              =   0.0000000000000E+00
(PID.TID 0000.0001) %MON exf_climsst_min              =   0.0000000000000E+00
(PID.TID 0000.0001) %MON exf_climsst_mean             =   0.0000000000000E+00
(PID.TID 0000.0001) %MON exf_climsst_sd               =   0.0000000000000E+00
(PID.TID 0000.0001) %MON exf_climsst_del2             =   0.0000000000000E+00
(PID.TID 0000.0001) %MON exf_climsss_max              =   3.5041808863155E+01
(PID.TID 0000.0001) %MON exf_climsss_min              =   3.0672387795370E+01
(PID.TID 0000.0001) %MON exf_climsss_mean             =   3.3463490268825E+01
(PID.TID 0000.0001) %MON exf_climsss_sd               =   1.0313879583737E+00
(PID.TID 0000.0001) %MON exf_climsss_del2             =   1.0005612713826E-01
(PID.TID 0000.0001) // =======================================================
(PID.TID 0000.0001) // End MONITOR EXF statistics
(PID.TID 0000.0001) // =======================================================
 cg2d: Sum(rhs),rhsMax =   6.30551166835858E-13  1.16776503728206E+00
(PID.TID 0000.0001)                    cg2d_init_res =    6.01956075815137E-02
(PID.TID 0000.0001)                       cg2d_iters =    40
(PID.TID 0000.0001)                         cg2d_res =    8.24321178621699E-13
(PID.TID 0000.0001) // =======================================================
(PID.TID 0000.0001) // Begin MONITOR dynamic field statistics
(PID.TID 0000.0001) // =======================================================
(PID.TID 0000.0001) %MON time_tsnumber                =                     9
(PID.TID 0000.0001) %MON time_secondsf                =   3.2400000000000E+04
(PID.TID 0000.0001) %MON dynstat_eta_max              =   3.1251437242662E-01
(PID.TID 0000.0001) %MON dynstat_eta_min              =  -1.0280616216442E-01
(PID.TID 0000.0001) %MON dynstat_eta_mean             =  -2.1735197221675E-14
(PID.TID 0000.0001) %MON dynstat_eta_sd               =   6.7068621290734E-02
(PID.TID 0000.0001) %MON dynstat_eta_del2             =   7.1770062892999E-03
(PID.TID 0000.0001) %MON dynstat_uvel_max             =   1.0785203978097E-01
(PID.TID 0000.0001) %MON dynstat_uvel_min             =  -7.6708238180755E-02
(PID.TID 0000.0001) %MON dynstat_uvel_mean            =   2.1209204974701E-05
(PID.TID 0000.0001) %MON dynstat_uvel_sd              =   1.0274659217118E-02
(PID.TID 0000.0001) %MON dynstat_uvel_del2            =   2.3903321286559E-03
(PID.TID 0000.0001) %MON dynstat_vvel_max             =   5.1352431843359E-02
(PID.TID 0000.0001) %MON dynstat_vvel_min             =  -1.6112271708336E-01
(PID.TID 0000.0001) %MON dynstat_vvel_mean            =   2.3053903302911E-04
(PID.TID 0000.0001) %MON dynstat_vvel_sd              =   8.5484832015056E-03
(PID.TID 0000.0001) %MON dynstat_vvel_del2            =   2.6931719903266E-03
(PID.TID 0000.0001) %MON dynstat_wvel_max             =   3.2549264258722E-04
(PID.TID 0000.0001) %MON dynstat_wvel_min             =  -3.1092300130888E-04
(PID.TID 0000.0001) %MON dynstat_wvel_mean            =   1.4087553440015E-21
(PID.TID 0000.0001) %MON dynstat_wvel_sd              =   6.2891172170010E-05
(PID.TID 0000.0001) %MON dynstat_wvel_del2            =   6.2919525426653E-06
(PID.TID 0000.0001) %MON dynstat_theta_max            =   1.3321896897531E+01
(PID.TID 0000.0001) %MON dynstat_theta_min            =  -1.9621375461987E+00
(PID.TID 0000.0001) %MON dynstat_theta_mean           =   3.0737756965740E+00
(PID.TID 0000.0001) %MON dynstat_theta_sd             =   1.4280538583789E+00
(PID.TID 0000.0001) %MON dynstat_theta_del2           =   9.3328275089428E-02
(PID.TID 0000.0001) %MON dynstat_salt_max             =   3.5451234081840E+01
(PID.TID 0000.0001) %MON dynstat_salt_min             =   2.6701480142578E+01
(PID.TID 0000.0001) %MON dynstat_salt_mean            =   3.4740227268268E+01
(PID.TID 0000.0001) %MON dynstat_salt_sd              =   5.5652808029333E-01
(PID.TID 0000.0001) %MON dynstat_salt_del2            =   3.8432709838499E-02
(PID.TID 0000.0001) %MON extforcing_qnet_max          =   2.5100528946425E+02
(PID.TID 0000.0001) %MON extforcing_qnet_min          =  -5.0927575421359E+01
(PID.TID 0000.0001) %MON extforcing_qnet_mean         =   2.5714307064949E+01
(PID.TID 0000.0001) %MON extforcing_qnet_sd           =   4.7822196398025E+01
(PID.TID 0000.0001) %MON extforcing_qnet_del2         =   6.6916957524614E+00
(PID.TID 0000.0001) %MON extforcing_qsw_max           =   0.0000000000000E+00
(PID.TID 0000.0001) %MON extforcing_qsw_min           =  -5.7280255718066E+01
(PID.TID 0000.0001) %MON extforcing_qsw_mean          =  -1.5869827674112E+01
(PID.TID 0000.0001) %MON extforcing_qsw_sd            =   2.0564247382874E+01
(PID.TID 0000.0001) %MON extforcing_qsw_del2          =   1.8614849524864E+00
(PID.TID 0000.0001) %MON extforcing_empmr_max         =   1.9585965120189E-07
(PID.TID 0000.0001) %MON extforcing_empmr_min         =  -4.8895060867685E-07
(PID.TID 0000.0001) %MON extforcing_empmr_mean        =  -5.8529497814094E-08
(PID.TID 0000.0001) %MON extforcing_empmr_sd          =   1.2337883456536E-07
(PID.TID 0000.0001) %MON extforcing_empmr_del2        =   1.9074425099124E-08
(PID.TID 0000.0001) %MON extforcing_fu_max            =   4.8925159242640E-02
(PID.TID 0000.0001) %MON extforcing_fu_min            =  -1.2183337276823E-02
(PID.TID 0000.0001) %MON extforcing_fu_mean           =   6.9940968705113E-03
(PID.TID 0000.0001) %MON extforcing_fu_sd             =   1.5744370825452E-02
(PID.TID 0000.0001) %MON extforcing_fu_del2           =   1.2612612810675E-03
(PID.TID 0000.0001) %MON extforcing_fv_max            =   1.0965487037424E-02
(PID.TID 0000.0001) %MON extforcing_fv_min            =  -5.8395861955387E-02
(PID.TID 0000.0001) %MON extforcing_fv_mean           =  -7.6417556765829E-03
(PID.TID 0000.0001) %MON extforcing_fv_sd             =   1.5596661514594E-02
(PID.TID 0000.0001) %MON extforcing_fv_del2           =   2.0970955447633E-03
(PID.TID 0000.0001) %MON advcfl_uvel_max              =   2.6611722054954E-03
(PID.TID 0000.0001) %MON advcfl_vvel_max              =   2.6082205321931E-03
(PID.TID 0000.0001) %MON advcfl_wvel_max              =   8.0721584267959E-03
(PID.TID 0000.0001) %MON advcfl_W_hf_max              =   1.0492889608291E-02
(PID.TID 0000.0001) %MON pe_b_mean                    =   1.4828990911314E-05
(PID.TID 0000.0001) %MON ke_max                       =   1.2849500728339E-02
(PID.TID 0000.0001) %MON ke_mean                      =   7.0155712442033E-05
(PID.TID 0000.0001) %MON ke_vol                       =   5.3036189546438E+15
(PID.TID 0000.0001) %MON vort_r_min                   =  -9.7080081397843E-07
(PID.TID 0000.0001) %MON vort_r_max                   =   5.2891489770081E-07
(PID.TID 0000.0001) %MON vort_a_mean                  =   1.2067277328190E-04
(PID.TID 0000.0001) %MON vort_a_sd                    =   8.8117633346306E-06
(PID.TID 0000.0001) %MON vort_p_mean                  =   1.7734842766458E-04
(PID.TID 0000.0001) %MON vort_p_sd                    =   1.1689017756724E-04
(PID.TID 0000.0001) %MON surfExpan_theta_mean         =  -1.2653550854060E-06
(PID.TID 0000.0001) %MON surfExpan_salt_mean          =   4.5224934539090E-07
(PID.TID 0000.0001) // =======================================================
(PID.TID 0000.0001) // End MONITOR dynamic field statistics
(PID.TID 0000.0001) // =======================================================
(PID.TID 0000.0001) // =======================================================
(PID.TID 0000.0001) // Begin MONITOR SEAICE statistics
(PID.TID 0000.0001) // =======================================================
(PID.TID 0000.0001) %MON seaice_tsnumber              =                     9
(PID.TID 0000.0001) %MON seaice_time_sec              =   3.2400000000000E+04
(PID.TID 0000.0001) %MON seaice_uice_max              =   2.7988354533963E-01
(PID.TID 0000.0001) %MON seaice_uice_min              =  -5.0225558317511E-02
(PID.TID 0000.0001) %MON seaice_uice_mean             =   2.1257329981453E-02
(PID.TID 0000.0001) %MON seaice_uice_sd               =   6.7642998015738E-02
(PID.TID 0000.0001) %MON seaice_uice_del2             =   4.8664690460695E-03
(PID.TID 0000.0001) %MON seaice_vice_max              =   4.3612634630745E-02
(PID.TID 0000.0001) %MON seaice_vice_min              =  -1.8559914904119E-01
(PID.TID 0000.0001) %MON seaice_vice_mean             =  -3.2798488143525E-02
(PID.TID 0000.0001) %MON seaice_vice_sd               =   5.6710098516047E-02
(PID.TID 0000.0001) %MON seaice_vice_del2             =   5.7937024662280E-03
(PID.TID 0000.0001) %MON seaice_area_max              =   1.0000000000000E+00
(PID.TID 0000.0001) %MON seaice_area_min              =   0.0000000000000E+00
(PID.TID 0000.0001) %MON seaice_area_mean             =   6.2418079083931E-01
(PID.TID 0000.0001) %MON seaice_area_sd               =   4.5726273421831E-01
(PID.TID 0000.0001) %MON seaice_area_del2             =   5.3225999445432E-02
(PID.TID 0000.0001) %MON seaice_heff_max              =   5.5634697450535E-01
(PID.TID 0000.0001) %MON seaice_heff_min              =   0.0000000000000E+00
(PID.TID 0000.0001) %MON seaice_heff_mean             =   1.4234374752647E-01
(PID.TID 0000.0001) %MON seaice_heff_sd               =   1.7479254901919E-01
(PID.TID 0000.0001) %MON seaice_heff_del2             =   1.3189804397205E-02
(PID.TID 0000.0001) %MON seaice_hsnow_max             =   2.0706677172101E-01
(PID.TID 0000.0001) %MON seaice_hsnow_min             =   0.0000000000000E+00
(PID.TID 0000.0001) %MON seaice_hsnow_mean            =   1.1913641908805E-01
(PID.TID 0000.0001) %MON seaice_hsnow_sd              =   9.7540353068824E-02
(PID.TID 0000.0001) %MON seaice_hsnow_del2            =   6.5934183049874E-03
(PID.TID 0000.0001) // =======================================================
(PID.TID 0000.0001) // End MONITOR SEAICE statistics
(PID.TID 0000.0001) // =======================================================
(PID.TID 0000.0001)  exf_GetFFieldsRec:
(PID.TID 0000.0001)  exf_GetFFieldsRec: first, changed, fac:   F   F   0.48770492E+00
(PID.TID 0000.0001)  exf_GetFFieldsRec: myiter, count0, count1:      9      1      2
(PID.TID 0000.0001)  exf_GetFFieldsRec:
(PID.TID 0000.0001)  exf_GetFFieldsRec:
(PID.TID 0000.0001)  exf_GetFFieldsRec: first, changed, fac:   F   F   0.48770492E+00
(PID.TID 0000.0001)  exf_GetFFieldsRec: myiter, count0, count1:      9      1      2
(PID.TID 0000.0001)  exf_GetFFieldsRec:
(PID.TID 0000.0001)  exf_GetFFieldsRec:
(PID.TID 0000.0001)  exf_GetFFieldsRec: first, changed, fac:   F   F   0.48770492E+00
(PID.TID 0000.0001)  exf_GetFFieldsRec: myiter, count0, count1:      9      1      2
(PID.TID 0000.0001)  exf_GetFFieldsRec:
(PID.TID 0000.0001)  exf_GetFFieldsRec:
(PID.TID 0000.0001)  exf_GetFFieldsRec: first, changed, fac:   F   F   0.48770492E+00
(PID.TID 0000.0001)  exf_GetFFieldsRec: myiter, count0, count1:      9      1      2
(PID.TID 0000.0001)  exf_GetFFieldsRec:
(PID.TID 0000.0001)  exf_GetFFieldsRec:
(PID.TID 0000.0001)  exf_GetFFieldsRec: first, changed, fac:   F   F   0.48770492E+00
(PID.TID 0000.0001)  exf_GetFFieldsRec: myiter, count0, count1:      9      1      2
(PID.TID 0000.0001)  exf_GetFFieldsRec:
(PID.TID 0000.0001)  exf_GetFFieldsRec:
(PID.TID 0000.0001)  exf_GetFFieldsRec: first, changed, fac:   F   F   0.48770492E+00
(PID.TID 0000.0001)  exf_GetFFieldsRec: myiter, count0, count1:      9      1      2
(PID.TID 0000.0001)  exf_GetFFieldsRec:
(PID.TID 0000.0001)  exf_GetFFieldsRec:
(PID.TID 0000.0001)  exf_GetFFieldsRec: first, changed, fac:   F   F   0.48770492E+00
(PID.TID 0000.0001)  exf_GetFFieldsRec: myiter, count0, count1:      9      1      2
(PID.TID 0000.0001)  exf_GetFFieldsRec:
(PID.TID 0000.0001)  exf_GetFFieldsRec:
(PID.TID 0000.0001)  exf_GetFFieldsRec: first, changed, fac:   F   F   0.48770492E+00
(PID.TID 0000.0001)  exf_GetFFieldsRec: myiter, count0, count1:      9      1      2
(PID.TID 0000.0001)  exf_GetFFieldsRec:
(PID.TID 0000.0001) // =======================================================
(PID.TID 0000.0001) // Begin MONITOR EXF statistics
(PID.TID 0000.0001) // =======================================================
(PID.TID 0000.0001) %MON exf_tsnumber                 =                     9
(PID.TID 0000.0001) %MON exf_time_sec                 =   3.2400000000000E+04
(PID.TID 0000.0001) %MON exf_ustress_max              =   5.2253621831549E-02
(PID.TID 0000.0001) %MON exf_ustress_min              =  -9.3802725850984E-02
(PID.TID 0000.0001) %MON exf_ustress_mean             =   1.7893455484847E-02
(PID.TID 0000.0001) %MON exf_ustress_sd               =   2.3714167782632E-02
(PID.TID 0000.0001) %MON exf_ustress_del2             =   2.8148393615325E-03
(PID.TID 0000.0001) %MON exf_vstress_max              =   5.3837645172452E-02
(PID.TID 0000.0001) %MON exf_vstress_min              =  -5.8402622207892E-02
(PID.TID 0000.0001) %MON exf_vstress_mean             =  -5.4392411897858E-03
(PID.TID 0000.0001) %MON exf_vstress_sd               =   1.4447532788844E-02
(PID.TID 0000.0001) %MON exf_vstress_del2             =   1.6948042326946E-03
(PID.TID 0000.0001) %MON exf_hflux_max                =   6.2532010733796E+02
(PID.TID 0000.0001) %MON exf_hflux_min                =  -5.1006298354964E+01
(PID.TID 0000.0001) %MON exf_hflux_mean               =   1.4613228488567E+02
(PID.TID 0000.0001) %MON exf_hflux_sd                 =   1.8040570500543E+02
(PID.TID 0000.0001) %MON exf_hflux_del2               =   1.6117278506901E+01
(PID.TID 0000.0001) %MON exf_sflux_max                =   3.9037877605027E-08
(PID.TID 0000.0001) %MON exf_sflux_min                =  -8.8880121588162E-08
(PID.TID 0000.0001) %MON exf_sflux_mean               =  -2.5986873926604E-08
(PID.TID 0000.0001) %MON exf_sflux_sd                 =   3.0410896631662E-08
(PID.TID 0000.0001) %MON exf_sflux_del2               =   3.1601447274812E-09
(PID.TID 0000.0001) %MON exf_uwind_max                =   6.4689416142761E+00
(PID.TID 0000.0001) %MON exf_uwind_min                =  -6.8374791086697E+00
(PID.TID 0000.0001) %MON exf_uwind_mean               =   2.7707407047028E+00
(PID.TID 0000.0001) %MON exf_uwind_sd                 =   2.9925253914175E+00
(PID.TID 0000.0001) %MON exf_uwind_del2               =   3.1578110452264E-01
(PID.TID 0000.0001) %MON exf_vwind_max                =   3.9243398396695E+00
(PID.TID 0000.0001) %MON exf_vwind_min                =  -6.0115501997901E+00
(PID.TID 0000.0001) %MON exf_vwind_mean               =  -7.5533872343860E-01
(PID.TID 0000.0001) %MON exf_vwind_sd                 =   1.7303202080462E+00
(PID.TID 0000.0001) %MON exf_vwind_del2               =   1.9327156733066E-01
(PID.TID 0000.0001) %MON exf_wspeed_max               =   7.8836263063842E+00
(PID.TID 0000.0001) %MON exf_wspeed_min               =   4.5816671047235E-01
(PID.TID 0000.0001) %MON exf_wspeed_mean              =   4.1990483480424E+00
(PID.TID 0000.0001) %MON exf_wspeed_sd                =   1.6014836406520E+00
(PID.TID 0000.0001) %MON exf_wspeed_del2              =   5.4019768733418E-01
(PID.TID 0000.0001) %MON exf_atemp_max                =   2.8186740312420E+02
(PID.TID 0000.0001) %MON exf_atemp_min                =   2.3642158439511E+02
(PID.TID 0000.0001) %MON exf_atemp_mean               =   2.6390426107320E+02
(PID.TID 0000.0001) %MON exf_atemp_sd                 =   1.1996580029013E+01
(PID.TID 0000.0001) %MON exf_atemp_del2               =   6.4958256573842E-01
(PID.TID 0000.0001) %MON exf_aqh_max                  =   6.3169040759170E-03
(PID.TID 0000.0001) %MON exf_aqh_min                  =   1.6284581668843E-04
(PID.TID 0000.0001) %MON exf_aqh_mean                 =   2.4753197025473E-03
(PID.TID 0000.0001) %MON exf_aqh_sd                   =   1.4255808388841E-03
(PID.TID 0000.0001) %MON exf_aqh_del2                 =   6.8017382809143E-05
(PID.TID 0000.0001) %MON exf_lwflux_max               =   1.8162293127982E+02
(PID.TID 0000.0001) %MON exf_lwflux_min               =   2.7055398174082E+01
(PID.TID 0000.0001) %MON exf_lwflux_mean              =   7.5157524410622E+01
(PID.TID 0000.0001) %MON exf_lwflux_sd                =   4.2901138252018E+01
(PID.TID 0000.0001) %MON exf_lwflux_del2              =   7.0131844465622E+00
(PID.TID 0000.0001) %MON exf_precip_max               =   1.0500009599131E-07
(PID.TID 0000.0001) %MON exf_precip_min               =   2.7238964868961E-10
(PID.TID 0000.0001) %MON exf_precip_mean              =   3.6389982946776E-08
(PID.TID 0000.0001) %MON exf_precip_sd                =   2.0582225664103E-08
(PID.TID 0000.0001) %MON exf_precip_del2              =   2.5599120294112E-09
(PID.TID 0000.0001) %MON exf_snowprecip_max           =   0.0000000000000E+00
(PID.TID 0000.0001) %MON exf_snowprecip_min           =   0.0000000000000E+00
(PID.TID 0000.0001) %MON exf_snowprecip_mean          =   0.0000000000000E+00
(PID.TID 0000.0001) %MON exf_snowprecip_sd            =   0.0000000000000E+00
(PID.TID 0000.0001) %MON exf_snowprecip_del2          =   0.0000000000000E+00
(PID.TID 0000.0001) %MON exf_swflux_max               =  -8.1208301372215E-02
(PID.TID 0000.0001) %MON exf_swflux_min               =  -6.4142947168819E+01
(PID.TID 0000.0001) %MON exf_swflux_mean              =  -2.6548012965822E+01
(PID.TID 0000.0001) %MON exf_swflux_sd                =   1.9660442927159E+01
(PID.TID 0000.0001) %MON exf_swflux_del2              =   4.7997463106648E-01
(PID.TID 0000.0001) %MON exf_evap_max                 =   4.5356121030746E-08
(PID.TID 0000.0001) %MON exf_evap_min                 =  -4.1485581354670E-09
(PID.TID 0000.0001) %MON exf_evap_mean                =   1.0403109020172E-08
(PID.TID 0000.0001) %MON exf_evap_sd                  =   1.1127729240738E-08
(PID.TID 0000.0001) %MON exf_evap_del2                =   1.3071669718323E-09
(PID.TID 0000.0001) %MON exf_swdown_max               =   7.1269941298688E+01
(PID.TID 0000.0001) %MON exf_swdown_min               =   9.0231445969128E-02
(PID.TID 0000.0001) %MON exf_swdown_mean              =   2.9497792184247E+01
(PID.TID 0000.0001) %MON exf_swdown_sd                =   2.1844936585733E+01
(PID.TID 0000.0001) %MON exf_swdown_del2              =   5.3317533187280E-01
(PID.TID 0000.0001) %MON exf_lwdown_max               =   3.0560028326316E+02
(PID.TID 0000.0001) %MON exf_lwdown_min               =   1.1586173020035E+02
(PID.TID 0000.0001) %MON exf_lwdown_mean              =   2.2580795099755E+02
(PID.TID 0000.0001) %MON exf_lwdown_sd                =   4.6313195660870E+01
(PID.TID 0000.0001) %MON exf_lwdown_del2              =   3.2440932931188E+00
(PID.TID 0000.0001) %MON exf_apressure_max            =   0.0000000000000E+00
(PID.TID 0000.0001) %MON exf_apressure_min            =   0.0000000000000E+00
(PID.TID 0000.0001) %MON exf_apressure_mean           =   0.0000000000000E+00
(PID.TID 0000.0001) %MON exf_apressure_sd             =   0.0000000000000E+00
(PID.TID 0000.0001) %MON exf_apressure_del2           =   0.0000000000000E+00
(PID.TID 0000.0001) %MON exf_runoff_max               =   0.0000000000000E+00
(PID.TID 0000.0001) %MON exf_runoff_min               =   0.0000000000000E+00
(PID.TID 0000.0001) %MON exf_runoff_mean              =   0.0000000000000E+00
(PID.TID 0000.0001) %MON exf_runoff_sd                =   0.0000000000000E+00
(PID.TID 0000.0001) %MON exf_runoff_del2              =   0.0000000000000E+00
(PID.TID 0000.0001) %MON exf_climsst_max              =   0.0000000000000E+00
(PID.TID 0000.0001) %MON exf_climsst_min              =   0.0000000000000E+00
(PID.TID 0000.0001) %MON exf_climsst_mean             =   0.0000000000000E+00
(PID.TID 0000.0001) %MON exf_climsst_sd               =   0.0000000000000E+00
(PID.TID 0000.0001) %MON exf_climsst_del2             =   0.0000000000000E+00
(PID.TID 0000.0001) %MON exf_climsss_max              =   3.5041993610194E+01
(PID.TID 0000.0001) %MON exf_climsss_min              =   3.0673147123368E+01
(PID.TID 0000.0001) %MON exf_climsss_mean             =   3.3464011602304E+01
(PID.TID 0000.0001) %MON exf_climsss_sd               =   1.0313181272348E+00
(PID.TID 0000.0001) %MON exf_climsss_del2             =   1.0003889784787E-01
(PID.TID 0000.0001) // =======================================================
(PID.TID 0000.0001) // End MONITOR EXF statistics
(PID.TID 0000.0001) // =======================================================
 cg2d: Sum(rhs),rhsMax =   8.35886915240280E-13  1.15096828911657E+00
(PID.TID 0000.0001)                    cg2d_init_res =    5.87070623116749E-02
(PID.TID 0000.0001)                       cg2d_iters =    41
(PID.TID 0000.0001)                         cg2d_res =    4.48665838051569E-13
(PID.TID 0000.0001) // =======================================================
(PID.TID 0000.0001) // Begin MONITOR dynamic field statistics
(PID.TID 0000.0001) // =======================================================
(PID.TID 0000.0001) %MON time_tsnumber                =                    10
(PID.TID 0000.0001) %MON time_secondsf                =   3.6000000000000E+04
(PID.TID 0000.0001) %MON dynstat_eta_max              =   2.9912454940630E-01
(PID.TID 0000.0001) %MON dynstat_eta_min              =  -9.7126523636678E-02
(PID.TID 0000.0001) %MON dynstat_eta_mean             =  -2.1171108333074E-14
(PID.TID 0000.0001) %MON dynstat_eta_sd               =   6.3922938277085E-02
(PID.TID 0000.0001) %MON dynstat_eta_del2             =   7.3545372857083E-03
(PID.TID 0000.0001) %MON dynstat_uvel_max             =   8.4981867589974E-02
(PID.TID 0000.0001) %MON dynstat_uvel_min             =  -9.0017041901086E-02
(PID.TID 0000.0001) %MON dynstat_uvel_mean            =  -1.5558434526795E-04
(PID.TID 0000.0001) %MON dynstat_uvel_sd              =   9.4772094162802E-03
(PID.TID 0000.0001) %MON dynstat_uvel_del2            =   2.1610225455906E-03
(PID.TID 0000.0001) %MON dynstat_vvel_max             =   3.4834103793110E-02
(PID.TID 0000.0001) %MON dynstat_vvel_min             =  -1.4741982289787E-01
(PID.TID 0000.0001) %MON dynstat_vvel_mean            =   4.1342050850067E-04
(PID.TID 0000.0001) %MON dynstat_vvel_sd              =   7.5196956345964E-03
(PID.TID 0000.0001) %MON dynstat_vvel_del2            =   2.5840714343080E-03
(PID.TID 0000.0001) %MON dynstat_wvel_max             =   2.6916393171672E-04
(PID.TID 0000.0001) %MON dynstat_wvel_min             =  -2.7298585659614E-04
(PID.TID 0000.0001) %MON dynstat_wvel_mean            =   1.1616052836503E-21
(PID.TID 0000.0001) %MON dynstat_wvel_sd              =   5.6881949946910E-05
(PID.TID 0000.0001) %MON dynstat_wvel_del2            =   6.3740501318871E-06
(PID.TID 0000.0001) %MON dynstat_theta_max            =   1.3304665792993E+01
(PID.TID 0000.0001) %MON dynstat_theta_min            =  -1.9632215230848E+00
(PID.TID 0000.0001) %MON dynstat_theta_mean           =   3.0737634554823E+00
(PID.TID 0000.0001) %MON dynstat_theta_sd             =   1.4280096464373E+00
(PID.TID 0000.0001) %MON dynstat_theta_del2           =   9.3318484722479E-02
(PID.TID 0000.0001) %MON dynstat_salt_max             =   3.5450966491307E+01
(PID.TID 0000.0001) %MON dynstat_salt_min             =   2.6703664961308E+01
(PID.TID 0000.0001) %MON dynstat_salt_mean            =   3.4740228746980E+01
(PID.TID 0000.0001) %MON dynstat_salt_sd              =   5.5645274106504E-01
(PID.TID 0000.0001) %MON dynstat_salt_del2            =   3.8450679874872E-02
(PID.TID 0000.0001) %MON extforcing_qnet_max          =   1.3883369053218E+02
(PID.TID 0000.0001) %MON extforcing_qnet_min          =  -5.1006298354964E+01
(PID.TID 0000.0001) %MON extforcing_qnet_mean         =   2.7544681827921E+01
(PID.TID 0000.0001) %MON extforcing_qnet_sd           =   4.5559748745103E+01
(PID.TID 0000.0001) %MON extforcing_qnet_del2         =   6.0654776504204E+00
(PID.TID 0000.0001) %MON extforcing_qsw_max           =   0.0000000000000E+00
(PID.TID 0000.0001) %MON extforcing_qsw_min           =  -5.7293670421633E+01
(PID.TID 0000.0001) %MON extforcing_qsw_mean          =  -1.5970622791598E+01
(PID.TID 0000.0001) %MON extforcing_qsw_sd            =   2.0541842079350E+01
(PID.TID 0000.0001) %MON extforcing_qsw_del2          =   1.8538760362874E+00
(PID.TID 0000.0001) %MON extforcing_empmr_max         =   1.5097454395705E-07
(PID.TID 0000.0001) %MON extforcing_empmr_min         =  -4.1268899830133E-07
(PID.TID 0000.0001) %MON extforcing_empmr_mean        =  -6.3924280634936E-08
(PID.TID 0000.0001) %MON extforcing_empmr_sd          =   1.1921120234853E-07
(PID.TID 0000.0001) %MON extforcing_empmr_del2        =   1.7015298113521E-08
(PID.TID 0000.0001) %MON extforcing_fu_max            =   4.8943101525343E-02
(PID.TID 0000.0001) %MON extforcing_fu_min            =  -1.8700591776390E-02
(PID.TID 0000.0001) %MON extforcing_fu_mean           =   6.9935532415122E-03
(PID.TID 0000.0001) %MON extforcing_fu_sd             =   1.6289559468272E-02
(PID.TID 0000.0001) %MON extforcing_fu_del2           =   1.4050075914582E-03
(PID.TID 0000.0001) %MON extforcing_fv_max            =   1.0964190175760E-02
(PID.TID 0000.0001) %MON extforcing_fv_min            =  -5.8383285965861E-02
(PID.TID 0000.0001) %MON extforcing_fv_mean           =  -7.7657518791085E-03
(PID.TID 0000.0001) %MON extforcing_fv_sd             =   1.5535366885936E-02
(PID.TID 0000.0001) %MON extforcing_fv_del2           =   2.1008425161337E-03
(PID.TID 0000.0001) %MON advcfl_uvel_max              =   2.8292604824219E-03
(PID.TID 0000.0001) %MON advcfl_vvel_max              =   2.3864009737098E-03
(PID.TID 0000.0001) %MON advcfl_wvel_max              =   7.2876300661749E-03
(PID.TID 0000.0001) %MON advcfl_W_hf_max              =   9.4669136793487E-03
(PID.TID 0000.0001) %MON pe_b_mean                    =   1.3470580155957E-05
(PID.TID 0000.0001) %MON ke_max                       =   1.1064682531854E-02
(PID.TID 0000.0001) %MON ke_mean                      =   5.7555485984536E-05
(PID.TID 0000.0001) %MON ke_vol                       =   5.3036189546438E+15
(PID.TID 0000.0001) %MON vort_r_min                   =  -7.1994044847628E-07
(PID.TID 0000.0001) %MON vort_r_max                   =   3.7290759131299E-07
(PID.TID 0000.0001) %MON vort_a_mean                  =   1.2067277556807E-04
(PID.TID 0000.0001) %MON vort_a_sd                    =   8.8115768503965E-06
(PID.TID 0000.0001) %MON vort_p_mean                  =   1.7734843102449E-04
(PID.TID 0000.0001) %MON vort_p_sd                    =   1.1689304051274E-04
(PID.TID 0000.0001) %MON surfExpan_theta_mean         =  -1.6724083941009E-06
(PID.TID 0000.0001) %MON surfExpan_salt_mean          =   2.8797887044552E-07
(PID.TID 0000.0001) // =======================================================
(PID.TID 0000.0001) // End MONITOR dynamic field statistics
(PID.TID 0000.0001) // =======================================================
(PID.TID 0000.0001) // Time-average data written, t-step        10
(PID.TID 0000.0001) 
(PID.TID 0000.0001) // =======================================================
(PID.TID 0000.0001) // Begin MONITOR SEAICE statistics
(PID.TID 0000.0001) // =======================================================
(PID.TID 0000.0001) %MON seaice_tsnumber              =                    10
(PID.TID 0000.0001) %MON seaice_time_sec              =   3.6000000000000E+04
(PID.TID 0000.0001) %MON seaice_uice_max              =   2.6430021883119E-01
(PID.TID 0000.0001) %MON seaice_uice_min              =  -6.7179409192163E-02
(PID.TID 0000.0001) %MON seaice_uice_mean             =   1.7829035991404E-02
(PID.TID 0000.0001) %MON seaice_uice_sd               =   6.5331816900234E-02
(PID.TID 0000.0001) %MON seaice_uice_del2             =   5.2311793475770E-03
(PID.TID 0000.0001) %MON seaice_vice_max              =   1.8308629322917E-02
(PID.TID 0000.0001) %MON seaice_vice_min              =  -1.7307317674514E-01
(PID.TID 0000.0001) %MON seaice_vice_mean             =  -3.1420237889005E-02
(PID.TID 0000.0001) %MON seaice_vice_sd               =   5.1036851891580E-02
(PID.TID 0000.0001) %MON seaice_vice_del2             =   5.2620196018912E-03
(PID.TID 0000.0001) %MON seaice_area_max              =   1.0000000000000E+00
(PID.TID 0000.0001) %MON seaice_area_min              =   0.0000000000000E+00
(PID.TID 0000.0001) %MON seaice_area_mean             =   6.2338696826355E-01
(PID.TID 0000.0001) %MON seaice_area_sd               =   4.5693627614549E-01
(PID.TID 0000.0001) %MON seaice_area_del2             =   5.2859484483394E-02
(PID.TID 0000.0001) %MON seaice_heff_max              =   5.5471904003542E-01
(PID.TID 0000.0001) %MON seaice_heff_min              =   0.0000000000000E+00
(PID.TID 0000.0001) %MON seaice_heff_mean             =   1.4218617132540E-01
(PID.TID 0000.0001) %MON seaice_heff_sd               =   1.7489438356213E-01
(PID.TID 0000.0001) %MON seaice_heff_del2             =   1.3172199465228E-02
(PID.TID 0000.0001) %MON seaice_hsnow_max             =   2.0785227163677E-01
(PID.TID 0000.0001) %MON seaice_hsnow_min             =   0.0000000000000E+00
(PID.TID 0000.0001) %MON seaice_hsnow_mean            =   1.1927270373693E-01
(PID.TID 0000.0001) %MON seaice_hsnow_sd              =   9.7646172588550E-02
(PID.TID 0000.0001) %MON seaice_hsnow_del2            =   6.6140824204599E-03
(PID.TID 0000.0001) // =======================================================
(PID.TID 0000.0001) // End MONITOR SEAICE statistics
(PID.TID 0000.0001) // =======================================================
 Computing Diagnostic # 209  SIarea       Counter:      10   Parms: SM      M1      
 Computing Diagnostic # 210  SIheff       Counter:      10   Parms: SM      M1      
 Computing Diagnostic # 213  SIhsnow      Counter:      10   Parms: SM      M1      
 Computing Diagnostic # 211  SIuice       Counter:      10   Parms: UU      M1      
 Computing Diagnostic # 212  SIvice       Counter:      10   Parms: VV      M1      
 Computing Diagnostic # 206  KPPhbl       Counter:      11   Parms: SM P     1      
 Computing Diagnostic # 207  KPPmld       Counter:      10   Parms: SM P     1      
 Computing Diagnostic # 205  KPPghat      Counter:      11   Parms: SM P    LR      
(PID.TID 0000.0001) %CHECKPOINT        10 0000000010
(PID.TID 0000.0001)   Seconds in section "ALL                    [THE_MODEL_MAIN]":
(PID.TID 0000.0001)           User time:  5.96809322
(PID.TID 0000.0001)         System time:  0.0999849983
(PID.TID 0000.0001)     Wall clock time:  6.07523704
(PID.TID 0000.0001)          No. starts: 1
(PID.TID 0000.0001)           No. stops: 1
(PID.TID 0000.0001)   Seconds in section "INITIALISE_FIXED       [THE_MODEL_MAIN]":
(PID.TID 0000.0001)           User time:  0.113982998
(PID.TID 0000.0001)         System time:  0.0139980004
(PID.TID 0000.0001)     Wall clock time:  0.127600193
(PID.TID 0000.0001)          No. starts: 1
(PID.TID 0000.0001)           No. stops: 1
(PID.TID 0000.0001)   Seconds in section "THE_MAIN_LOOP          [THE_MODEL_MAIN]":
(PID.TID 0000.0001)           User time:  5.85411023
(PID.TID 0000.0001)         System time:  0.0859869979
(PID.TID 0000.0001)     Wall clock time:  5.94742107
(PID.TID 0000.0001)          No. starts: 1
(PID.TID 0000.0001)           No. stops: 1
(PID.TID 0000.0001)   Seconds in section "INITIALISE_VARIA    [THE_MAIN_LOOP]":
(PID.TID 0000.0001)           User time:  0.581911013
(PID.TID 0000.0001)         System time:  0.0329950005
(PID.TID 0000.0001)     Wall clock time:  0.615696907
(PID.TID 0000.0001)          No. starts: 1
(PID.TID 0000.0001)           No. stops: 1
(PID.TID 0000.0001)   Seconds in section "MAIN LOOP           [THE_MAIN_LOOP]":
(PID.TID 0000.0001)           User time:  5.27219921
(PID.TID 0000.0001)         System time:  0.0529919975
(PID.TID 0000.0001)     Wall clock time:  5.331599
(PID.TID 0000.0001)          No. starts: 1
(PID.TID 0000.0001)           No. stops: 1
(PID.TID 0000.0001)   Seconds in section "FORWARD_STEP        [THE_MAIN_LOOP]":
(PID.TID 0000.0001)           User time:  5.27119923
(PID.TID 0000.0001)         System time:  0.0529919975
(PID.TID 0000.0001)     Wall clock time:  5.33115125
(PID.TID 0000.0001)          No. starts: 10
(PID.TID 0000.0001)           No. stops: 10
(PID.TID 0000.0001)   Seconds in section "DO_STATEVARS_DIAGS  [FORWARD_STEP]":
(PID.TID 0000.0001)           User time:  0.00399875641
(PID.TID 0000.0001)         System time:  0.
(PID.TID 0000.0001)     Wall clock time:  0.00207996368
(PID.TID 0000.0001)          No. starts: 20
(PID.TID 0000.0001)           No. stops: 20
(PID.TID 0000.0001)   Seconds in section "LOAD_FIELDS_DRIVER  [FORWARD_STEP]":
(PID.TID 0000.0001)           User time:  0.0929870605
(PID.TID 0000.0001)         System time:  0.000999998301
(PID.TID 0000.0001)     Wall clock time:  0.0946009159
(PID.TID 0000.0001)          No. starts: 10
(PID.TID 0000.0001)           No. stops: 10
(PID.TID 0000.0001)   Seconds in section "EXF_GETFORCING     [LOAD_FLDS_DRIVER]":
(PID.TID 0000.0001)           User time:  0.0919870138
(PID.TID 0000.0001)         System time:  0.000999998301
(PID.TID 0000.0001)     Wall clock time:  0.093788147
(PID.TID 0000.0001)          No. starts: 10
(PID.TID 0000.0001)           No. stops: 10
(PID.TID 0000.0001)   Seconds in section "DO_ATMOSPHERIC_PHYS [FORWARD_STEP]":
(PID.TID 0000.0001)           User time:  0.
(PID.TID 0000.0001)         System time:  0.
(PID.TID 0000.0001)     Wall clock time:  0.000404834747
(PID.TID 0000.0001)          No. starts: 10
(PID.TID 0000.0001)           No. stops: 10
(PID.TID 0000.0001)   Seconds in section "DO_OCEANIC_PHYS     [FORWARD_STEP]":
(PID.TID 0000.0001)           User time:  3.36948818
(PID.TID 0000.0001)         System time:  0.00199900195
(PID.TID 0000.0001)     Wall clock time:  3.37543511
(PID.TID 0000.0001)          No. starts: 10
(PID.TID 0000.0001)           No. stops: 10
(PID.TID 0000.0001)   Seconds in section "SEAICE_MODEL    [DO_OCEANIC_PHYS]":
(PID.TID 0000.0001)           User time:  2.16267055
(PID.TID 0000.0001)         System time:  0.00100000203
(PID.TID 0000.0001)     Wall clock time:  2.16921878
(PID.TID 0000.0001)          No. starts: 10
(PID.TID 0000.0001)           No. stops: 10
(PID.TID 0000.0001)   Seconds in section "SEAICE_DYNSOLVER   [SEAICE_MODEL]":
(PID.TID 0000.0001)           User time:  2.12967736
(PID.TID 0000.0001)         System time:  0.00100000203
(PID.TID 0000.0001)     Wall clock time:  2.13444638
(PID.TID 0000.0001)          No. starts: 10
(PID.TID 0000.0001)           No. stops: 10
(PID.TID 0000.0001)   Seconds in section "STATEKPP      [KPP_CALC]":
(PID.TID 0000.0001)           User time:  0.555917084
(PID.TID 0000.0001)         System time:  0.000998999923
(PID.TID 0000.0001)     Wall clock time:  0.556255817
(PID.TID 0000.0001)          No. starts: 20
(PID.TID 0000.0001)           No. stops: 20
(PID.TID 0000.0001)   Seconds in section "KPPMIX [KPP_CALC]":
(PID.TID 0000.0001)           User time:  0.218966424
(PID.TID 0000.0001)         System time:  0.
(PID.TID 0000.0001)     Wall clock time:  0.222853184
(PID.TID 0000.0001)          No. starts: 20
(PID.TID 0000.0001)           No. stops: 20
(PID.TID 0000.0001)   Seconds in section "THERMODYNAMICS      [FORWARD_STEP]":
(PID.TID 0000.0001)           User time:  0.436933756
(PID.TID 0000.0001)         System time:  0.00200000033
(PID.TID 0000.0001)     Wall clock time:  0.438611031
(PID.TID 0000.0001)          No. starts: 10
(PID.TID 0000.0001)           No. stops: 10
(PID.TID 0000.0001)   Seconds in section "DYNAMICS            [FORWARD_STEP]":
(PID.TID 0000.0001)           User time:  0.780880749
(PID.TID 0000.0001)         System time:  0.00100000203
(PID.TID 0000.0001)     Wall clock time:  0.784978867
(PID.TID 0000.0001)          No. starts: 10
(PID.TID 0000.0001)           No. stops: 10
(PID.TID 0000.0001)   Seconds in section "SOLVE_FOR_PRESSURE  [FORWARD_STEP]":
(PID.TID 0000.0001)           User time:  0.0779880285
(PID.TID 0000.0001)         System time:  0.
(PID.TID 0000.0001)     Wall clock time:  0.0789167881
(PID.TID 0000.0001)          No. starts: 10
(PID.TID 0000.0001)           No. stops: 10
(PID.TID 0000.0001)   Seconds in section "MOM_CORRECTION_STEP [FORWARD_STEP]":
(PID.TID 0000.0001)           User time:  0.0229965448
(PID.TID 0000.0001)         System time:  0.
(PID.TID 0000.0001)     Wall clock time:  0.0241942406
(PID.TID 0000.0001)          No. starts: 10
(PID.TID 0000.0001)           No. stops: 10
(PID.TID 0000.0001)   Seconds in section "TRC_CORRECTION_STEP [FORWARD_STEP]":
(PID.TID 0000.0001)           User time:  0.00999879837
(PID.TID 0000.0001)         System time:  0.
(PID.TID 0000.0001)     Wall clock time:  0.00913000107
(PID.TID 0000.0001)          No. starts: 10
(PID.TID 0000.0001)           No. stops: 10
(PID.TID 0000.0001)   Seconds in section "BLOCKING_EXCHANGES  [FORWARD_STEP]":
(PID.TID 0000.0001)           User time:  0.0449929237
(PID.TID 0000.0001)         System time:  0.
(PID.TID 0000.0001)     Wall clock time:  0.0436167717
(PID.TID 0000.0001)          No. starts: 10
(PID.TID 0000.0001)           No. stops: 10
(PID.TID 0000.0001)   Seconds in section "DO_STATEVARS_TAVE   [FORWARD_STEP]":
(PID.TID 0000.0001)           User time:  0.108983755
(PID.TID 0000.0001)         System time:  0.000999998301
(PID.TID 0000.0001)     Wall clock time:  0.109926701
(PID.TID 0000.0001)          No. starts: 10
(PID.TID 0000.0001)           No. stops: 10
(PID.TID 0000.0001)   Seconds in section "MONITOR             [FORWARD_STEP]":
(PID.TID 0000.0001)           User time:  0.140979171
(PID.TID 0000.0001)         System time:  0.000999998301
(PID.TID 0000.0001)     Wall clock time:  0.14260602
(PID.TID 0000.0001)          No. starts: 10
(PID.TID 0000.0001)           No. stops: 10
(PID.TID 0000.0001)   Seconds in section "DO_THE_MODEL_IO     [FORWARD_STEP]":
(PID.TID 0000.0001)           User time:  0.14797771
(PID.TID 0000.0001)         System time:  0.0309949964
(PID.TID 0000.0001)     Wall clock time:  0.179615021
(PID.TID 0000.0001)          No. starts: 10
(PID.TID 0000.0001)           No. stops: 10
(PID.TID 0000.0001)   Seconds in section "DO_WRITE_PICKUP     [FORWARD_STEP]":
(PID.TID 0000.0001)           User time:  0.0279960632
(PID.TID 0000.0001)         System time:  0.0129979998
(PID.TID 0000.0001)     Wall clock time:  0.0402929783
(PID.TID 0000.0001)          No. starts: 10
(PID.TID 0000.0001)           No. stops: 10
(PID.TID 0000.0001)   Seconds in section "DO_WRITE_PICKUP        [THE_MODEL_MAIN]":
(PID.TID 0000.0001)           User time:  0.
(PID.TID 0000.0001)         System time:  0.
(PID.TID 0000.0001)     Wall clock time:  4.19616699E-05
(PID.TID 0000.0001)          No. starts: 1
(PID.TID 0000.0001)           No. stops: 1
(PID.TID 0000.0001) // ======================================================
(PID.TID 0000.0001) // Tile <-> Tile communication statistics
(PID.TID 0000.0001) // ======================================================
(PID.TID 0000.0001) // o Tile number: 000001
(PID.TID 0000.0001) //         No. X exchanges =              0
(PID.TID 0000.0001) //            Max. X spins =              0
(PID.TID 0000.0001) //            Min. X spins =     1000000000
(PID.TID 0000.0001) //          Total. X spins =              0
(PID.TID 0000.0001) //            Avg. X spins =       0.00E+00
(PID.TID 0000.0001) //         No. Y exchanges =              0
(PID.TID 0000.0001) //            Max. Y spins =              0
(PID.TID 0000.0001) //            Min. Y spins =     1000000000
(PID.TID 0000.0001) //          Total. Y spins =              0
(PID.TID 0000.0001) //            Avg. Y spins =       0.00E+00
(PID.TID 0000.0001) // o Tile number: 000002
(PID.TID 0000.0001) //         No. X exchanges =              0
(PID.TID 0000.0001) //            Max. X spins =              0
(PID.TID 0000.0001) //            Min. X spins =     1000000000
(PID.TID 0000.0001) //          Total. X spins =              0
(PID.TID 0000.0001) //            Avg. X spins =       0.00E+00
(PID.TID 0000.0001) //         No. Y exchanges =              0
(PID.TID 0000.0001) //            Max. Y spins =              0
(PID.TID 0000.0001) //            Min. Y spins =     1000000000
(PID.TID 0000.0001) //          Total. Y spins =              0
(PID.TID 0000.0001) //            Avg. Y spins =       0.00E+00
(PID.TID 0000.0001) // o Thread number: 000001
(PID.TID 0000.0001) //            No. barriers =          53798
(PID.TID 0000.0001) //      Max. barrier spins =              1
(PID.TID 0000.0001) //      Min. barrier spins =              1
(PID.TID 0000.0001) //     Total barrier spins =          53798
(PID.TID 0000.0001) //      Avg. barrier spins =       1.00E+00
