(PID.TID 0000.0001) 
(PID.TID 0000.0001) // ======================================================
(PID.TID 0000.0001) //                      MITgcm UV
(PID.TID 0000.0001) //                      =========
(PID.TID 0000.0001) // ======================================================
(PID.TID 0000.0001) // execution environment starting up...
(PID.TID 0000.0001) 
(PID.TID 0000.0001) // MITgcmUV version:  checkpoint64b
(PID.TID 0000.0001) // Build user:        mlosch
(PID.TID 0000.0001) // Build host:        baudelaire
(PID.TID 0000.0001) // Build date:        Fri Jan  4 08:15:47 EST 2013
(PID.TID 0000.0001) 
(PID.TID 0000.0001) // =======================================================
(PID.TID 0000.0001) // Execution Environment parameter file "eedata"
(PID.TID 0000.0001) // =======================================================
(PID.TID 0000.0001) ># Example "eedata" file
(PID.TID 0000.0001) ># Lines beginning "#" are comments
(PID.TID 0000.0001) ># nTx - No. threads per process in X
(PID.TID 0000.0001) ># nTy - No. threads per process in Y
(PID.TID 0000.0001) > &EEPARMS
(PID.TID 0000.0001) > nTx=1,
(PID.TID 0000.0001) > nTy=1,
(PID.TID 0000.0001) > /
(PID.TID 0000.0001) ># Note: Some systems use & as the namelist terminator (as shown here).
(PID.TID 0000.0001) >#       Other systems use a / character.
(PID.TID 0000.0001) 
(PID.TID 0000.0001) // =======================================================
(PID.TID 0000.0001) // Computational Grid Specification ( see files "SIZE.h" )
(PID.TID 0000.0001) //                                  ( and "eedata"       )
(PID.TID 0000.0001) // =======================================================
(PID.TID 0000.0001)      nPx =    1 ; /* No. processes in X */
(PID.TID 0000.0001)      nPy =    1 ; /* No. processes in Y */
(PID.TID 0000.0001)      nSx =    2 ; /* No. tiles in X per process */
(PID.TID 0000.0001)      nSy =    2 ; /* No. tiles in Y per process */
(PID.TID 0000.0001)      sNx =   10 ; /* Tile size in X */
(PID.TID 0000.0001)      sNy =    8 ; /* Tile size in Y */
(PID.TID 0000.0001)      OLx =    4 ; /* Tile overlap distance in X */
(PID.TID 0000.0001)      OLy =    4 ; /* Tile overlap distance in Y */
(PID.TID 0000.0001)      nTx =    1 ; /* No. threads in X per process */
(PID.TID 0000.0001)      nTy =    1 ; /* No. threads in Y per process */
(PID.TID 0000.0001)       Nr =   23 ; /* No. levels in the vertical   */
(PID.TID 0000.0001)       Nx =   20 ; /* Total domain size in X ( = nPx*nSx*sNx ) */
(PID.TID 0000.0001)       Ny =   16 ; /* Total domain size in Y ( = nPy*nSy*sNy ) */
(PID.TID 0000.0001)   nTiles =    4 ; /* Total no. tiles per process ( = nSx*nSy ) */
(PID.TID 0000.0001)   nProcs =    1 ; /* Total no. processes ( = nPx*nPy ) */
(PID.TID 0000.0001) nThreads =    1 ; /* Total no. threads per process ( = nTx*nTy ) */
(PID.TID 0000.0001) usingMPI =    F ; /* Flag used to control whether MPI is in use */
(PID.TID 0000.0001)                   /*  note: To execute a program with MPI calls */
(PID.TID 0000.0001)                   /*  it must be launched appropriately e.g     */
(PID.TID 0000.0001)                   /*  "mpirun -np 64 ......"                    */
(PID.TID 0000.0001) useCoupler=    F ;/* Flag used to control communications with   */
(PID.TID 0000.0001)                   /*  other model components, through a coupler */
(PID.TID 0000.0001) debugMode =    F ; /* print debug msg. (sequence of S/R calls)  */
(PID.TID 0000.0001) printMapIncludesZeros=    F ; /* print zeros in Std.Output maps */
(PID.TID 0000.0001) maxLengthPrt1D=   65 /* maxLength of 1D array printed to StdOut */
(PID.TID 0000.0001) 
(PID.TID 0000.0001) // ======================================================
(PID.TID 0000.0001) // Mapping of tiles to threads
(PID.TID 0000.0001) // ======================================================
(PID.TID 0000.0001) // -o- Thread   1, tiles (   1:   2,   1:   2)
(PID.TID 0000.0001) 
(PID.TID 0000.0001) // ======================================================
(PID.TID 0000.0001) // Tile <-> Tile connectvity table
(PID.TID 0000.0001) // ======================================================
(PID.TID 0000.0001) // Tile number: 000001 (process no. = 000000)
(PID.TID 0000.0001) //        WEST: Tile = 000002, Process = 000000, Comm = put
(PID.TID 0000.0001) //                bi = 000002, bj = 000001
(PID.TID 0000.0001) //        EAST: Tile = 000002, Process = 000000, Comm = put
(PID.TID 0000.0001) //                bi = 000002, bj = 000001
(PID.TID 0000.0001) //       SOUTH: Tile = 000003, Process = 000000, Comm = put
(PID.TID 0000.0001) //                bi = 000001, bj = 000002
(PID.TID 0000.0001) //       NORTH: Tile = 000003, Process = 000000, Comm = put
(PID.TID 0000.0001) //                bi = 000001, bj = 000002
(PID.TID 0000.0001) // Tile number: 000002 (process no. = 000000)
(PID.TID 0000.0001) //        WEST: Tile = 000001, Process = 000000, Comm = put
(PID.TID 0000.0001) //                bi = 000001, bj = 000001
(PID.TID 0000.0001) //        EAST: Tile = 000001, Process = 000000, Comm = put
(PID.TID 0000.0001) //                bi = 000001, bj = 000001
(PID.TID 0000.0001) //       SOUTH: Tile = 000004, Process = 000000, Comm = put
(PID.TID 0000.0001) //                bi = 000002, bj = 000002
(PID.TID 0000.0001) //       NORTH: Tile = 000004, Process = 000000, Comm = put
(PID.TID 0000.0001) //                bi = 000002, bj = 000002
(PID.TID 0000.0001) // Tile number: 000003 (process no. = 000000)
(PID.TID 0000.0001) //        WEST: Tile = 000004, Process = 000000, Comm = put
(PID.TID 0000.0001) //                bi = 000002, bj = 000002
(PID.TID 0000.0001) //        EAST: Tile = 000004, Process = 000000, Comm = put
(PID.TID 0000.0001) //                bi = 000002, bj = 000002
(PID.TID 0000.0001) //       SOUTH: Tile = 000001, Process = 000000, Comm = put
(PID.TID 0000.0001) //                bi = 000001, bj = 000001
(PID.TID 0000.0001) //       NORTH: Tile = 000001, Process = 000000, Comm = put
(PID.TID 0000.0001) //                bi = 000001, bj = 000001
(PID.TID 0000.0001) // Tile number: 000004 (process no. = 000000)
(PID.TID 0000.0001) //        WEST: Tile = 000003, Process = 000000, Comm = put
(PID.TID 0000.0001) //                bi = 000001, bj = 000002
(PID.TID 0000.0001) //        EAST: Tile = 000003, Process = 000000, Comm = put
(PID.TID 0000.0001) //                bi = 000001, bj = 000002
(PID.TID 0000.0001) //       SOUTH: Tile = 000002, Process = 000000, Comm = put
(PID.TID 0000.0001) //                bi = 000002, bj = 000001
(PID.TID 0000.0001) //       NORTH: Tile = 000002, Process = 000000, Comm = put
(PID.TID 0000.0001) //                bi = 000002, bj = 000001
(PID.TID 0000.0001) 
(PID.TID 0000.0001)  INI_PARMS: opening model parameter file "data"
(PID.TID 0000.0001)  OPEN_COPY_DATA_FILE: opening file data
(PID.TID 0000.0001) // =======================================================
(PID.TID 0000.0001) // Parameter file "data"
(PID.TID 0000.0001) // =======================================================
(PID.TID 0000.0001) ># ====================
(PID.TID 0000.0001) ># | Model parameters |
(PID.TID 0000.0001) ># ====================
(PID.TID 0000.0001) >#
(PID.TID 0000.0001) ># Continuous equation parameters
(PID.TID 0000.0001) >#
(PID.TID 0000.0001) >#   tRef            - Reference vertical potential temperature          (deg C)
(PID.TID 0000.0001) >#   sRef            - Reference vertical salinity                         (PSU)
(PID.TID 0000.0001) >#   viscAh          - Horizontal eddy viscosity coefficient             (m^2/s)
(PID.TID 0000.0001) >#   viscAz          - Vertical eddy viscosity coefficient               (m^2/s)
(PID.TID 0000.0001) >#   diffKhT         - Horizontal temperature diffusivity                (m^2/s)
(PID.TID 0000.0001) >#   diffKzT         - Vertical temperature diffusivity                  (m^2/s)
(PID.TID 0000.0001) >#   diffKhS         - Horizontal salt diffusivity                       (m^2/s)
(PID.TID 0000.0001) >#   diffKzS         - Vertical salt diffusivity                         (m^2/s)
(PID.TID 0000.0001) >#   gravity         - Acceleration due to gravity                       (m/s^2)
(PID.TID 0000.0001) >#   rigidLid        - Set to true to use rigid lid
(PID.TID 0000.0001) >#   implicitFreeSurface - Set to true to use implicit free surface
(PID.TID 0000.0001) >#   eosType         - Flag for linear or polynomial equation of state
(PID.TID 0000.0001) >#   momAdvection    - On/Off flag for momentum self transport
(PID.TID 0000.0001) >#   momViscosity    - On/Off flag for momentum mixing
(PID.TID 0000.0001) >#
(PID.TID 0000.0001) > &PARM01
(PID.TID 0000.0001) > tRef= 24.0 , 23.0 , 22.0 , 21.0 , 20.0 ,
(PID.TID 0000.0001) >       19.0 , 18.0 , 17.0 , 16.0 , 15.0 ,
(PID.TID 0000.0001) >       14.0 , 13.0 , 12.0 , 11.0 , 10.0 ,
(PID.TID 0000.0001) >        9.0 ,  8.0 ,  7.0 ,  6.0,   5.0 ,
(PID.TID 0000.0001) >        4.0 ,  3.0 ,  2.0 ,
(PID.TID 0000.0001) > sRef= 34.65, 34.75, 34.82, 34.87, 34.90,
(PID.TID 0000.0001) >       34.90, 34.86, 34.78, 34.69, 34.60,
(PID.TID 0000.0001) >       34.58, 34.62, 34.68, 34.72, 34.73,
(PID.TID 0000.0001) >       34.74, 34.73, 34.73, 34.72, 34.72,
(PID.TID 0000.0001) >       34.71, 34.70, 34.69,
(PID.TID 0000.0001) > no_slip_sides=.FALSE.,
(PID.TID 0000.0001) > no_slip_bottom=.TRUE.,
(PID.TID 0000.0001) > viscAz=1.93e-5,
(PID.TID 0000.0001) > viscAh=5.E4,
(PID.TID 0000.0001) > diffKhT=0.0,
(PID.TID 0000.0001) > diffKzT=1.46e-5,
(PID.TID 0000.0001) > diffKhS=0.0,
(PID.TID 0000.0001) > diffKzS=1.46e-5,
(PID.TID 0000.0001) > rigidLid=.FALSE.,
(PID.TID 0000.0001) > implicitFreeSurface=.TRUE.,
(PID.TID 0000.0001) > eosType='JMD95Z',
(PID.TID 0000.0001) > saltStepping=.TRUE.,
(PID.TID 0000.0001) > tempStepping=.TRUE.,
(PID.TID 0000.0001) > momStepping=.TRUE.,
(PID.TID 0000.0001) > implicitDiffusion=.TRUE.,
(PID.TID 0000.0001) > implicitViscosity=.TRUE.,
(PID.TID 0000.0001) > allowFreezing=.FALSE.,
(PID.TID 0000.0001) >#- set wrong celsius2K to reproduce old results:
(PID.TID 0000.0001) > celsius2K=273.16,
(PID.TID 0000.0001) > HeatCapacity_Cp = 3986.D0,
(PID.TID 0000.0001) > gravity         = 9.8156,
(PID.TID 0000.0001) > rhoConst        = 1027.D0,
(PID.TID 0000.0001) > rhoConstFresh   = 999.8,
(PID.TID 0000.0001) > useCDscheme=.TRUE.,
(PID.TID 0000.0001) > useSingleCpuIO=.TRUE.,
(PID.TID 0000.0001) > readBinaryPrec=32,
(PID.TID 0000.0001) > writeBinaryPrec=32,
(PID.TID 0000.0001) > /
(PID.TID 0000.0001) >
(PID.TID 0000.0001) ># Elliptic solver parameters
(PID.TID 0000.0001) >#
(PID.TID 0000.0001) >#   cg2dMaxIters       - Maximum number of 2d solver iterations
(PID.TID 0000.0001) >#   cg2dTargetResidual - Solver target residual
(PID.TID 0000.0001) >#
(PID.TID 0000.0001) > &PARM02
(PID.TID 0000.0001) > cg2dMaxIters=500,
(PID.TID 0000.0001) > cg2dTargetResidual=1.E-12,
(PID.TID 0000.0001) > /
(PID.TID 0000.0001) >
(PID.TID 0000.0001) ># Time stepping parameters
(PID.TID 0000.0001) >#
(PID.TID 0000.0001) >#   startTime         - Integration starting time                (s)
(PID.TID 0000.0001) >#   endTime           - Integration ending time                  (s)
(PID.TID 0000.0001) >#   tauCD             - CD scheme coupling timescale             (s)
(PID.TID 0000.0001) >#   deltaTMom         - Timestep for momemtum equations          (s)
(PID.TID 0000.0001) >#   deltaTtracer      - Tracer timestep                          (s)
(PID.TID 0000.0001) >#   deltaTClock       - Timestep used as model "clock"           (s)
(PID.TID 0000.0001) >#   abEps             - Adams-Bashforth stabilising factor
(PID.TID 0000.0001) >#   pChkPtFreq        - Frequency of permanent check pointing    (s)
(PID.TID 0000.0001) >#   chkPtFreq         - Frequency of rolling check pointing      (s)
(PID.TID 0000.0001) >#   dumpFreq          - Frequency at which model state is stored (s)
(PID.TID 0000.0001) >#   tauThetaClimRelax - Relaxation to climatology time scale     (s)
(PID.TID 0000.0001) >#   tauSaltClimRelax  - Relaxation to climatology time scale     (s)
(PID.TID 0000.0001) >#
(PID.TID 0000.0001) > &PARM03
(PID.TID 0000.0001) > tauCD=172800.,
(PID.TID 0000.0001) > startTime=0.0,
(PID.TID 0000.0001) > endTime=36000.,
(PID.TID 0000.0001) > deltaTmom=3600.0,
(PID.TID 0000.0001) > deltaTtracer=3600.0,
(PID.TID 0000.0001) > deltaTClock =3600.0,
(PID.TID 0000.0001) > cAdjFreq=0.,
(PID.TID 0000.0001) > abEps=0.1,
(PID.TID 0000.0001) > forcing_In_AB = .FALSE.,
(PID.TID 0000.0001) > pChkptFreq=36000.,
(PID.TID 0000.0001) > chkptFreq= 0.,
(PID.TID 0000.0001) > dumpFreq = 0.,
(PID.TID 0000.0001) > taveFreq = 36000.,
(PID.TID 0000.0001) > monitorFreq=1.,
(PID.TID 0000.0001) > /
(PID.TID 0000.0001) >
(PID.TID 0000.0001) ># Gridding parameters
(PID.TID 0000.0001) >#
(PID.TID 0000.0001) >#   usingSphericalPolarGrid - On/Off flag for spherical polar coordinates
(PID.TID 0000.0001) >#   delX                    - Zonal grid spacing         (degrees)
(PID.TID 0000.0001) >#   delY                    - Meridional grid spacing    (degrees)
(PID.TID 0000.0001) >#   delZ                    - Vertical grid spacing      (m)
(PID.TID 0000.0001) >#   ygOrigin                - Southern boundary latitude (degrees)
(PID.TID 0000.0001) >#
(PID.TID 0000.0001) > &PARM04
(PID.TID 0000.0001) > usingSphericalPolarGrid=.TRUE.,
(PID.TID 0000.0001) > delX=20*2.E0,
(PID.TID 0000.0001) > delY=16*2.E0,
(PID.TID 0000.0001) > delZ= 10., 10., 15., 20., 20., 25., 35., 50., 75.,
(PID.TID 0000.0001) >       100., 150., 200., 275., 350., 415., 450.,
(PID.TID 0000.0001) >       500., 500., 500., 500., 500., 500., 500.,
(PID.TID 0000.0001) > ygOrigin=46.,
(PID.TID 0000.0001) > xgOrigin=280.,
(PID.TID 0000.0001) > rSphere = 6371.D3,
(PID.TID 0000.0001) > /
(PID.TID 0000.0001) >
(PID.TID 0000.0001) ># Input datasets
(PID.TID 0000.0001) >#
(PID.TID 0000.0001) >#   bathyFile       - File containing bathymetry
(PID.TID 0000.0001) >#   hydrogThetaFile - File containing initial potential temperature data
(PID.TID 0000.0001) >#   hydrogSaltFile  - File containing initial salinity data
(PID.TID 0000.0001) >#   zonalWindFile   - File containing zonal wind data
(PID.TID 0000.0001) >#   meridWindFile   - File containing meridional wind data
(PID.TID 0000.0001) >#   thetaClimFile   - File containing theta climatology used for relaxation
(PID.TID 0000.0001) >#   saltClimFile    - File containing salt climatology used for relaxation
(PID.TID 0000.0001) >#
(PID.TID 0000.0001) > &PARM05
(PID.TID 0000.0001) > bathyFile       = 'bathy_closeN.bin',
(PID.TID 0000.0001) > hydrogThetaFile = 'T.0000008760',
(PID.TID 0000.0001) > hydrogSaltFile  = 'S.0000008760',
(PID.TID 0000.0001) > uVelInitFile    = 'U.0000008760',
(PID.TID 0000.0001) > vVelInitFile    = 'V.0000008760',
(PID.TID 0000.0001) > /
(PID.TID 0000.0001) 
(PID.TID 0000.0001)  INI_PARMS ; starts to read PARM01
(PID.TID 0000.0001)  INI_PARMS ; read PARM01 : OK
(PID.TID 0000.0001)  INI_PARMS ; starts to read PARM02
(PID.TID 0000.0001)  INI_PARMS ; read PARM02 : OK
(PID.TID 0000.0001)  INI_PARMS ; starts to read PARM03
(PID.TID 0000.0001)  INI_PARMS ; read PARM03 : OK
(PID.TID 0000.0001)  INI_PARMS ; starts to read PARM04
(PID.TID 0000.0001)  INI_PARMS ; read PARM04 : OK
(PID.TID 0000.0001)  INI_PARMS ; starts to read PARM05
(PID.TID 0000.0001)  INI_PARMS ; read PARM05 : OK
(PID.TID 0000.0001)  INI_PARMS: finished reading file "data"
(PID.TID 0000.0001)  PACKAGES_BOOT: opening data.pkg
(PID.TID 0000.0001)  OPEN_COPY_DATA_FILE: opening file data.pkg
(PID.TID 0000.0001) // =======================================================
(PID.TID 0000.0001) // Parameter file "data.pkg"
(PID.TID 0000.0001) // =======================================================
(PID.TID 0000.0001) ># Packages
(PID.TID 0000.0001) > &PACKAGES
(PID.TID 0000.0001) >  useGMRedi = .TRUE.,
(PID.TID 0000.0001) >  useKPP    = .TRUE.,
(PID.TID 0000.0001) >  useEXF    = .TRUE.,
(PID.TID 0000.0001) >  useSEAICE = .TRUE.,
(PID.TID 0000.0001) >  useDiagnostics = .TRUE.,
(PID.TID 0000.0001) ># useMNC    = .TRUE.,
(PID.TID 0000.0001) > /
(PID.TID 0000.0001) 
(PID.TID 0000.0001)  PACKAGES_BOOT: finished reading data.pkg
(PID.TID 0000.0001) CAL_READPARMS: opening data.cal
(PID.TID 0000.0001)  OPEN_COPY_DATA_FILE: opening file data.cal
(PID.TID 0000.0001) // =======================================================
(PID.TID 0000.0001) // Parameter file "data.cal"
(PID.TID 0000.0001) // =======================================================
(PID.TID 0000.0001) >#
(PID.TID 0000.0001) ># *******************
(PID.TID 0000.0001) ># Calendar Parameters
(PID.TID 0000.0001) ># *******************
(PID.TID 0000.0001) > &CAL_NML
(PID.TID 0000.0001) > TheCalendar='gregorian',
(PID.TID 0000.0001) > startDate_1=19790101,
(PID.TID 0000.0001) > startDate_2=000000,
(PID.TID 0000.0001) > /
(PID.TID 0000.0001) 
(PID.TID 0000.0001) CAL_READPARMS: finished reading data.cal
(PID.TID 0000.0001) EXF_READPARMS: opening data.exf
(PID.TID 0000.0001)  OPEN_COPY_DATA_FILE: opening file data.exf
(PID.TID 0000.0001) // =======================================================
(PID.TID 0000.0001) // Parameter file "data.exf"
(PID.TID 0000.0001) // =======================================================
(PID.TID 0000.0001) >#
(PID.TID 0000.0001) ># *********************
(PID.TID 0000.0001) ># External Forcing Data
(PID.TID 0000.0001) ># *********************
(PID.TID 0000.0001) > &EXF_NML_01
(PID.TID 0000.0001) >#
(PID.TID 0000.0001) > useExfCheckRange  = .TRUE.,
(PID.TID 0000.0001) > repeatPeriod      = 31622400.0,
(PID.TID 0000.0001) > exf_iprec         = 32,
(PID.TID 0000.0001) >#
(PID.TID 0000.0001) > /
(PID.TID 0000.0001) >
(PID.TID 0000.0001) ># *********************
(PID.TID 0000.0001) > &EXF_NML_02
(PID.TID 0000.0001) >#
(PID.TID 0000.0001) > hfluxstartdate1   = 19781216,
(PID.TID 0000.0001) > hfluxstartdate2   = 180000,
(PID.TID 0000.0001) > hfluxperiod       = 2635200.0,
(PID.TID 0000.0001) >#
(PID.TID 0000.0001) > sfluxstartdate1   = 19781216,
(PID.TID 0000.0001) > sfluxstartdate2   = 180000,
(PID.TID 0000.0001) > sfluxperiod       = 2635200.0,
(PID.TID 0000.0001) >#
(PID.TID 0000.0001) > ustressstartdate1 = 19781216,
(PID.TID 0000.0001) > ustressstartdate2 = 180000,
(PID.TID 0000.0001) > ustressperiod     = 2635200.0,
(PID.TID 0000.0001) >#
(PID.TID 0000.0001) > vstressstartdate1 = 19781216,
(PID.TID 0000.0001) > vstressstartdate2 = 180000,
(PID.TID 0000.0001) > vstressperiod     = 2635200.0,
(PID.TID 0000.0001) >#
(PID.TID 0000.0001) > atempstartdate1   = 19781216,
(PID.TID 0000.0001) > atempstartdate2   = 180000,
(PID.TID 0000.0001) > atempperiod       = 2635200.0,
(PID.TID 0000.0001) >#
(PID.TID 0000.0001) > aqhstartdate1     = 19781216,
(PID.TID 0000.0001) > aqhstartdate2     = 180000,
(PID.TID 0000.0001) > aqhperiod         = 2635200.0,
(PID.TID 0000.0001) >#
(PID.TID 0000.0001) >#evapstartdate1    = 19781216,
(PID.TID 0000.0001) >#evapstartdate2    = 180000,
(PID.TID 0000.0001) >#evapperiod        = 2635200.0,
(PID.TID 0000.0001) >#
(PID.TID 0000.0001) > precipstartdate1  = 19781216,
(PID.TID 0000.0001) > precipstartdate2  = 180000,
(PID.TID 0000.0001) > precipperiod      = 2635200.0,
(PID.TID 0000.0001) >#
(PID.TID 0000.0001) > uwindstartdate1   = 19781216,
(PID.TID 0000.0001) > uwindstartdate2   = 180000,
(PID.TID 0000.0001) > uwindperiod       = 2635200.0,
(PID.TID 0000.0001) >#
(PID.TID 0000.0001) > vwindstartdate1   = 19781216,
(PID.TID 0000.0001) > vwindstartdate2   = 180000,
(PID.TID 0000.0001) > vwindperiod       = 2635200.0,
(PID.TID 0000.0001) >#
(PID.TID 0000.0001) > swfluxstartdate1  = 19781216,
(PID.TID 0000.0001) > swfluxstartdate2  = 180000,
(PID.TID 0000.0001) > swfluxperiod      = 2635200.0,
(PID.TID 0000.0001) >#
(PID.TID 0000.0001) > lwfluxstartdate1  = 19781216,
(PID.TID 0000.0001) > lwfluxstartdate2  = 180000,
(PID.TID 0000.0001) > lwfluxperiod      = 2635200.0,
(PID.TID 0000.0001) >#
(PID.TID 0000.0001) > swdownstartdate1  = 19781216,
(PID.TID 0000.0001) > swdownstartdate2  = 180000,
(PID.TID 0000.0001) > swdownperiod      = 2635200.0,
(PID.TID 0000.0001) >#
(PID.TID 0000.0001) > lwdownstartdate1  = 19781216,
(PID.TID 0000.0001) > lwdownstartdate2  = 180000,
(PID.TID 0000.0001) > lwdownperiod      = 2635200.0,
(PID.TID 0000.0001) >#
(PID.TID 0000.0001) > climsststartdate1  = 19781216,
(PID.TID 0000.0001) > climsststartdate2  = 180000,
(PID.TID 0000.0001) > climsstperiod      = 2635200.0,
(PID.TID 0000.0001) > climsstTauRelax    = 0.0,
(PID.TID 0000.0001) >#
(PID.TID 0000.0001) > climsssstartdate1  = 19781216,
(PID.TID 0000.0001) > climsssstartdate2  = 180000,
(PID.TID 0000.0001) > climsssperiod      = 2635200.0,
(PID.TID 0000.0001) > climsssTauRelax    = 4142330.0,
(PID.TID 0000.0001) >#
(PID.TID 0000.0001) > hfluxfile         = ' ',
(PID.TID 0000.0001) > sfluxfile         = ' ',
(PID.TID 0000.0001) > ustressfile       = ' ',
(PID.TID 0000.0001) > vstressfile       = ' ',
(PID.TID 0000.0001) > atempfile         = 'tair.labsea1979',
(PID.TID 0000.0001) > aqhfile           = 'qa.labsea1979',
(PID.TID 0000.0001) > uwindfile         = 'u10m.labsea1979',
(PID.TID 0000.0001) > vwindfile         = 'v10m.labsea1979',
(PID.TID 0000.0001) >#evapfile          = 'evap.labsea1979',
(PID.TID 0000.0001) > precipfile        = 'prate.labsea1979',
(PID.TID 0000.0001) > lwfluxfile        = ' ',
(PID.TID 0000.0001) > swfluxfile        = ' ',
(PID.TID 0000.0001) > lwdownfile        = 'flo.labsea1979',
(PID.TID 0000.0001) > swdownfile        = 'fsh.labsea1979',
(PID.TID 0000.0001) > runoffFile        = ' '
(PID.TID 0000.0001) > climsstfile       = ' ',
(PID.TID 0000.0001) > climsssfile       = 'SSS_monthly.labsea1979',
(PID.TID 0000.0001) >#
(PID.TID 0000.0001) > /
(PID.TID 0000.0001) >
(PID.TID 0000.0001) ># *********************
(PID.TID 0000.0001) > &EXF_NML_03
(PID.TID 0000.0001) > /
(PID.TID 0000.0001) >
(PID.TID 0000.0001) ># *********************
(PID.TID 0000.0001) > &EXF_NML_04
(PID.TID 0000.0001) > /
(PID.TID 0000.0001) 
(PID.TID 0000.0001) EXF_READPARMS: reading EXF_NML_01
(PID.TID 0000.0001) EXF_READPARMS: reading EXF_NML_02
(PID.TID 0000.0001) EXF_READPARMS: reading EXF_NML_03
(PID.TID 0000.0001) EXF_READPARMS: finished reading data.exf
(PID.TID 0000.0001)  GM_READPARMS: opening data.gmredi
(PID.TID 0000.0001)  OPEN_COPY_DATA_FILE: opening file data.gmredi
(PID.TID 0000.0001) // =======================================================
(PID.TID 0000.0001) // Parameter file "data.gmredi"
(PID.TID 0000.0001) // =======================================================
(PID.TID 0000.0001) ># GMREDI parameters
(PID.TID 0000.0001) > &GM_PARM01
(PID.TID 0000.0001) >  GM_background_K = 571.0
(PID.TID 0000.0001) >  GM_taper_scheme = 'ldd97'
(PID.TID 0000.0001) > /
(PID.TID 0000.0001) 
(PID.TID 0000.0001)  GM_READPARMS: finished reading data.gmredi
(PID.TID 0000.0001)  KPP_INIT: opening data.kpp
(PID.TID 0000.0001)  OPEN_COPY_DATA_FILE: opening file data.kpp
(PID.TID 0000.0001) // =======================================================
(PID.TID 0000.0001) // Parameter file "data.kpp"
(PID.TID 0000.0001) // =======================================================
(PID.TID 0000.0001) ># KPP parameters
(PID.TID 0000.0001) > &KPP_PARM01
(PID.TID 0000.0001) > KPPmixingMaps   = .FALSE.,
(PID.TID 0000.0001) > KPPwriteState   = .TRUE.,
(PID.TID 0000.0001) > KPP_ghatUseTotalDiffus=.TRUE.,
(PID.TID 0000.0001) > /
(PID.TID 0000.0001) 
(PID.TID 0000.0001)  KPP_INIT: finished reading data.kpp
(PID.TID 0000.0001) 
(PID.TID 0000.0001)  SEAICE_READPARMS: opening data.seaice
(PID.TID 0000.0001)  OPEN_COPY_DATA_FILE: opening file data.seaice
(PID.TID 0000.0001) // =======================================================
(PID.TID 0000.0001) // Parameter file "data.seaice"
(PID.TID 0000.0001) // =======================================================
(PID.TID 0000.0001) ># SEAICE parameters
(PID.TID 0000.0001) > &SEAICE_PARM01
(PID.TID 0000.0001) >#- seaice dynamics params:
(PID.TID 0000.0001) >  SEAICE_deltaTdyn   = 3600.,
(PID.TID 0000.0001) >  SEAICE_deltaTevp   = 30.,
(PID.TID 0000.0001) >  useHB87stressCoupling = .TRUE.,
(PID.TID 0000.0001) >  SEAICE_no_slip     = .TRUE.,
(PID.TID 0000.0001) >  SEAICE_drag        = 0.001,
(PID.TID 0000.0001) ># Depending on vertical resolution this angle should have a value > 0
(PID.TID 0000.0001) >#  (e.g., 25deg for drF(1)=10m)
(PID.TID 0000.0001) ># SEAICE_waterTurnAngle = 0.0,
(PID.TID 0000.0001) >#- seaice state & transport params:
(PID.TID 0000.0001) >  SEAICE_salt0       = 4.0,
(PID.TID 0000.0001) >#- old DIFF1 default:
(PID.TID 0000.0001) >  DIFF1 = 4.E-3,
(PID.TID 0000.0001) >#- seaice thermodyn params:
(PID.TID 0000.0001) >  SEAICE_deltaTtherm = 3600.,
(PID.TID 0000.0001) >  SEAICE_multDim     = 1,
(PID.TID 0000.0001) ># strong ice-ocean turb-flux coeff:
(PID.TID 0000.0001) >  SEAICE_mcPheePiston= 0.001,
(PID.TID 0000.0001) >  SEAICE_frazilFrac  = 0.5,
(PID.TID 0000.0001) >#- seaice I/O params:
(PID.TID 0000.0001) >  AreaFile           = 'AREA.0000008760',
(PID.TID 0000.0001) >  HsnowFile          = 'HSNOW.0000008760',
(PID.TID 0000.0001) >  HsaltFile          = 'HSALT.0000008760',
(PID.TID 0000.0001) >  HeffFile           = 'HEFF.0000008760',
(PID.TID 0000.0001) >  SEAICEwriteState   = .TRUE.,
(PID.TID 0000.0001) > /
(PID.TID 0000.0001) >
(PID.TID 0000.0001) > &SEAICE_PARM03
(PID.TID 0000.0001) >  SItrNumInUse      = 0,
(PID.TID 0000.0001) > /
(PID.TID 0000.0001) 
(PID.TID 0000.0001)  SEAICE_READPARMS: finished reading data.seaice
(PID.TID 0000.0001)  DIAGNOSTICS_READPARMS: opening data.diagnostics
(PID.TID 0000.0001)  OPEN_COPY_DATA_FILE: opening file data.diagnostics
(PID.TID 0000.0001) // =======================================================
(PID.TID 0000.0001) // Parameter file "data.diagnostics"
(PID.TID 0000.0001) // =======================================================
(PID.TID 0000.0001) ># Diagnostic Package Choices
(PID.TID 0000.0001) >#--------------------
(PID.TID 0000.0001) >#  dumpAtLast (logical): always write output at the end of simulation (default=F)
(PID.TID 0000.0001) >#  diag_mnc   (logical): write to NetCDF files (default=useMNC)
(PID.TID 0000.0001) >#--for each output-stream:
(PID.TID 0000.0001) >#  fileName(n) : prefix of the output file name (max 80c long) for outp.stream n
(PID.TID 0000.0001) >#  frequency(n):< 0 : write snap-shot output every |frequency| seconds
(PID.TID 0000.0001) >#               > 0 : write time-average output every frequency seconds
(PID.TID 0000.0001) >#  timePhase(n)     : write at time = timePhase + multiple of |frequency|
(PID.TID 0000.0001) >#    averagingFreq  : frequency (in s) for periodic averaging interval
(PID.TID 0000.0001) >#    averagingPhase : phase     (in s) for periodic averaging interval
(PID.TID 0000.0001) >#    repeatCycle    : number of averaging intervals in 1 cycle
(PID.TID 0000.0001) >#  levels(:,n) : list of levels to write to file (Notes: declared as REAL)
(PID.TID 0000.0001) >#                when this entry is missing, select all common levels of this list
(PID.TID 0000.0001) >#  fields(:,n) : list of selected diagnostics fields (8.c) in outp.stream n
(PID.TID 0000.0001) >#                (see "available_diagnostics.log" file for the full list of diags)
(PID.TID 0000.0001) >#  missing_value(n) : missing value for real-type fields in output file "n"
(PID.TID 0000.0001) >#  fileFlags(n)     : specific code (8c string) for output file "n"
(PID.TID 0000.0001) >#--------------------
(PID.TID 0000.0001) ># This example dumps EXF diagnostics as snapshot after 10 time-steps
(PID.TID 0000.0001) ># Note: EXF air-sea fluxes over Sea-Ice are wrong
(PID.TID 0000.0001) > &DIAGNOSTICS_LIST
(PID.TID 0000.0001) >   dumpAtLast  = .TRUE.,
(PID.TID 0000.0001) >#--
(PID.TID 0000.0001) >  fields(1:11,1) = 'EXFtaux ','EXFtauy ','EXFqnet ','EXFempmr',
(PID.TID 0000.0001) >                   'EXFhl   ','EXFhs   ','EXFswnet','EXFlwnet',
(PID.TID 0000.0001) >                   'EXFuwind','EXFvwind','EXFatemp',
(PID.TID 0000.0001) >   fileName(1) = 'diagsEXF',
(PID.TID 0000.0001) >  frequency(1) = -36000.,
(PID.TID 0000.0001) >
(PID.TID 0000.0001) >  fields(1:5,2)  = 'SIarea  ','SIheff  ','SIhsnow ',
(PID.TID 0000.0001) >                   'SIuice  ','SIvice  ',
(PID.TID 0000.0001) >   fileName(2) = 'diagsSI',
(PID.TID 0000.0001) >  frequency(2) =  36000.,
(PID.TID 0000.0001) >
(PID.TID 0000.0001) >  fields(1:2,3)  = 'MXLDEPTH','KPPhbl  ',
(PID.TID 0000.0001) >   fileName(3) = 'diagsKPP',
(PID.TID 0000.0001) >  frequency(3) =  36000.,
(PID.TID 0000.0001) >  fields(1,4)  = 'KPPghatK',
(PID.TID 0000.0001) >   fileName(4) = 'KPPghatK',
(PID.TID 0000.0001) >  frequency(4) =  36000.,
(PID.TID 0000.0001) > /
(PID.TID 0000.0001) >
(PID.TID 0000.0001) >#--------------------
(PID.TID 0000.0001) ># Parameter for Diagnostics of per level statistics:
(PID.TID 0000.0001) >#--------------------
(PID.TID 0000.0001) >#  diagSt_mnc (logical): write stat-diags to NetCDF files (default=diag_mnc)
(PID.TID 0000.0001) >#  diagSt_regMaskFile : file containing the region-mask to read-in
(PID.TID 0000.0001) >#  nSetRegMskFile   : number of region-mask sets within the region-mask file
(PID.TID 0000.0001) >#  set_regMask(i)   : region-mask set-index that identifies the region "i"
(PID.TID 0000.0001) >#  val_regMask(i)   : region "i" identifier value in the region mask
(PID.TID 0000.0001) >#--for each output-stream:
(PID.TID 0000.0001) >#  stat_fName(n) : prefix of the output file name (max 80c long) for outp.stream n
(PID.TID 0000.0001) >#  stat_freq(n):< 0 : write snap-shot output every |stat_freq| seconds
(PID.TID 0000.0001) >#               > 0 : write time-average output every stat_freq seconds
(PID.TID 0000.0001) >#  stat_phase(n)    : write at time = stat_phase + multiple of |stat_freq|
(PID.TID 0000.0001) >#  stat_region(:,n) : list of "regions" (default: 1 region only=global)
(PID.TID 0000.0001) >#  stat_fields(:,n) : list of selected diagnostics fields (8.c) in outp.stream n
(PID.TID 0000.0001) >#                (see "available_diagnostics.log" file for the full list of diags)
(PID.TID 0000.0001) >#--------------------
(PID.TID 0000.0001) > &DIAG_STATIS_PARMS
(PID.TID 0000.0001) >#stat_fields(1:5,1)  = 'ETAN    ','UVEL    ','VVEL    ','WVEL    ', 'THETA   ',
(PID.TID 0000.0001) ># stat_fName(1) = 'dynStDiag',
(PID.TID 0000.0001) >#  stat_freq(1) = -36000.,
(PID.TID 0000.0001) ># stat_phase(1) = 0.,
(PID.TID 0000.0001) > /
(PID.TID 0000.0001) >
(PID.TID 0000.0001) 
(PID.TID 0000.0001) S/R DIAGNOSTICS_READPARMS, read namelist "diagnostics_list": start
(PID.TID 0000.0001) S/R DIAGNOSTICS_READPARMS, read namelist "diagnostics_list": OK
(PID.TID 0000.0001) S/R DIAGNOSTICS_READPARMS, read namelist "DIAG_STATIS_PARMS": start
(PID.TID 0000.0001) S/R DIAGNOSTICS_READPARMS, read namelist "DIAG_STATIS_PARMS": OK
(PID.TID 0000.0001)  DIAGNOSTICS_READPARMS: global parameter summary:
(PID.TID 0000.0001)  dumpAtLast = /* always write time-ave diags at the end */
(PID.TID 0000.0001)                   T
(PID.TID 0000.0001)     ;
(PID.TID 0000.0001)  diag_mnc =   /* write NetCDF output files */
(PID.TID 0000.0001)                   F
(PID.TID 0000.0001)     ;
(PID.TID 0000.0001)  useMissingValue = /* put MissingValue where mask = 0 */
(PID.TID 0000.0001)                   F
(PID.TID 0000.0001)     ;
(PID.TID 0000.0001)  diagCG_maxIters = /* max number of iters in diag_cg2d */
(PID.TID 0000.0001)                     500
(PID.TID 0000.0001)     ;
(PID.TID 0000.0001)  diagCG_resTarget = /* residual target for diag_cg2d */
(PID.TID 0000.0001)                 1.000000000000000E-12
(PID.TID 0000.0001)     ;
(PID.TID 0000.0001) -----------------------------------------------------
(PID.TID 0000.0001)  DIAGNOSTICS_READPARMS: active diagnostics summary:
(PID.TID 0000.0001) -----------------------------------------------------
(PID.TID 0000.0001) Creating Output Stream: diagsEXF
(PID.TID 0000.0001) Output Frequency:     -36000.000000 ; Phase:       18000.000000
(PID.TID 0000.0001)  Averaging Freq.:          0.000000 , Phase:           0.000000 , Cycle:   1
(PID.TID 0000.0001)  missing value:  1.234567000000E+05 ; for integers:   123456789
(PID.TID 0000.0001)  Levels:    will be set later
(PID.TID 0000.0001)  Fields:    EXFtaux  EXFtauy  EXFqnet  EXFempmr EXFhl    EXFhs    EXFswnet EXFlwnet EXFuwind EXFvwind
(PID.TID 0000.0001)  Fields:    EXFatemp
(PID.TID 0000.0001) Creating Output Stream: diagsSI
(PID.TID 0000.0001) Output Frequency:      36000.000000 ; Phase:           0.000000
(PID.TID 0000.0001)  Averaging Freq.:      36000.000000 , Phase:           0.000000 , Cycle:   1
(PID.TID 0000.0001)  missing value:  1.234567000000E+05 ; for integers:   123456789
(PID.TID 0000.0001)  Levels:    will be set later
(PID.TID 0000.0001)  Fields:    SIarea   SIheff   SIhsnow  SIuice   SIvice
(PID.TID 0000.0001) Creating Output Stream: diagsKPP
(PID.TID 0000.0001) Output Frequency:      36000.000000 ; Phase:           0.000000
(PID.TID 0000.0001)  Averaging Freq.:      36000.000000 , Phase:           0.000000 , Cycle:   1
(PID.TID 0000.0001)  missing value:  1.234567000000E+05 ; for integers:   123456789
(PID.TID 0000.0001)  Levels:    will be set later
(PID.TID 0000.0001)  Fields:    MXLDEPTH KPPhbl
(PID.TID 0000.0001) Creating Output Stream: KPPghatK
(PID.TID 0000.0001) Output Frequency:      36000.000000 ; Phase:           0.000000
(PID.TID 0000.0001)  Averaging Freq.:      36000.000000 , Phase:           0.000000 , Cycle:   1
(PID.TID 0000.0001)  missing value:  1.234567000000E+05 ; for integers:   123456789
(PID.TID 0000.0001)  Levels:    will be set later
(PID.TID 0000.0001)  Fields:    KPPghatK
(PID.TID 0000.0001) -----------------------------------------------------
(PID.TID 0000.0001)  DIAGNOSTICS_READPARMS: statistics diags. summary:
(PID.TID 0000.0001) -----------------------------------------------------
(PID.TID 0000.0001) 
(PID.TID 0000.0001) SET_PARMS: done
(PID.TID 0000.0001) Enter INI_VERTICAL_GRID: setInterFDr=    T ; setCenterDr=    F
(PID.TID 0000.0001) %MON XC_max                       =   3.1900000000000E+02
(PID.TID 0000.0001) %MON XC_min                       =   2.8100000000000E+02
(PID.TID 0000.0001) %MON XC_mean                      =   3.0000000000000E+02
(PID.TID 0000.0001) %MON XC_sd                        =   1.1532562594671E+01
(PID.TID 0000.0001) %MON XG_max                       =   3.1800000000000E+02
(PID.TID 0000.0001) %MON XG_min                       =   2.8000000000000E+02
(PID.TID 0000.0001) %MON XG_mean                      =   2.9900000000000E+02
(PID.TID 0000.0001) %MON XG_sd                        =   1.1532562594671E+01
(PID.TID 0000.0001) %MON DXC_max                      =   1.5166951523772E+05
(PID.TID 0000.0001) %MON DXC_min                      =   5.0026831972764E+04
(PID.TID 0000.0001) %MON DXC_mean                     =   1.0305926321463E+05
(PID.TID 0000.0001) %MON DXC_sd                       =   3.1375805318756E+04
(PID.TID 0000.0001) %MON DXF_max                      =   1.5166951523772E+05
(PID.TID 0000.0001) %MON DXF_min                      =   5.0026831972764E+04
(PID.TID 0000.0001) %MON DXF_mean                     =   1.0305926321463E+05
(PID.TID 0000.0001) %MON DXF_sd                       =   3.1375805318756E+04
(PID.TID 0000.0001) %MON DXG_max                      =   1.5448497309243E+05
(PID.TID 0000.0001) %MON DXG_min                      =   5.3800974869835E+04
(PID.TID 0000.0001) %MON DXG_mean                     =   1.0642630187324E+05
(PID.TID 0000.0001) %MON DXG_sd                       =   3.1081829200899E+04
(PID.TID 0000.0001) %MON DXV_max                      =   1.5448497309243E+05
(PID.TID 0000.0001) %MON DXV_min                      =   5.3800974869835E+04
(PID.TID 0000.0001) %MON DXV_mean                     =   1.0642630187324E+05
(PID.TID 0000.0001) %MON DXV_sd                       =   3.1081829200899E+04
(PID.TID 0000.0001) %MON YC_max                       =   7.7000000000000E+01
(PID.TID 0000.0001) %MON YC_min                       =   4.7000000000000E+01
(PID.TID 0000.0001) %MON YC_mean                      =   6.2000000000000E+01
(PID.TID 0000.0001) %MON YC_sd                        =   9.2195444572929E+00
(PID.TID 0000.0001) %MON YG_max                       =   7.6000000000000E+01
(PID.TID 0000.0001) %MON YG_min                       =   4.6000000000000E+01
(PID.TID 0000.0001) %MON YG_mean                      =   6.1000000000000E+01
(PID.TID 0000.0001) %MON YG_sd                        =   9.2195444572929E+00
(PID.TID 0000.0001) %MON DYC_max                      =   2.2238985328912E+05
(PID.TID 0000.0001) %MON DYC_min                      =   2.2238985328912E+05
(PID.TID 0000.0001) %MON DYC_mean                     =   2.2238985328912E+05
(PID.TID 0000.0001) %MON DYC_sd                       =   1.4551915228367E-10
(PID.TID 0000.0001) %MON DYF_max                      =   2.2238985328912E+05
(PID.TID 0000.0001) %MON DYF_min                      =   2.2238985328912E+05
(PID.TID 0000.0001) %MON DYF_mean                     =   2.2238985328912E+05
(PID.TID 0000.0001) %MON DYF_sd                       =   1.4551915228367E-10
(PID.TID 0000.0001) %MON DYG_max                      =   2.2238985328912E+05
(PID.TID 0000.0001) %MON DYG_min                      =   2.2238985328912E+05
(PID.TID 0000.0001) %MON DYG_mean                     =   2.2238985328912E+05
(PID.TID 0000.0001) %MON DYG_sd                       =   1.4551915228367E-10
(PID.TID 0000.0001) %MON DYU_max                      =   2.2238985328912E+05
(PID.TID 0000.0001) %MON DYU_min                      =   2.2238985328912E+05
(PID.TID 0000.0001) %MON DYU_mean                     =   2.2238985328912E+05
(PID.TID 0000.0001) %MON DYU_sd                       =   1.4551915228367E-10
(PID.TID 0000.0001) %MON RA_max                       =   3.3728048822756E+10
(PID.TID 0000.0001) %MON RA_min                       =   1.1124894996734E+10
(PID.TID 0000.0001) %MON RA_mean                      =   2.2918170839356E+10
(PID.TID 0000.0001) %MON RA_sd                        =   6.9773064942263E+09
(PID.TID 0000.0001) %MON RAW_max                      =   3.3728048822756E+10
(PID.TID 0000.0001) %MON RAW_min                      =   1.1124894996734E+10
(PID.TID 0000.0001) %MON RAW_mean                     =   2.2918170839356E+10
(PID.TID 0000.0001) %MON RAW_sd                       =   6.9773064942263E+09
(PID.TID 0000.0001) %MON RAS_max                      =   3.4354146294179E+10
(PID.TID 0000.0001) %MON RAS_min                      =   1.1964183470077E+10
(PID.TID 0000.0001) %MON RAS_mean                     =   2.3666928057229E+10
(PID.TID 0000.0001) %MON RAS_sd                       =   6.9119325076329E+09
(PID.TID 0000.0001) %MON RAZ_max                      =   3.4354146294179E+10
(PID.TID 0000.0001) %MON RAZ_min                      =   1.1964183470077E+10
(PID.TID 0000.0001) %MON RAZ_mean                     =   2.3666928057229E+10
(PID.TID 0000.0001) %MON RAZ_sd                       =   6.9119325076329E+09
(PID.TID 0000.0001) %MON AngleCS_max                  =   1.0000000000000E+00
(PID.TID 0000.0001) %MON AngleCS_min                  =   1.0000000000000E+00
(PID.TID 0000.0001) %MON AngleCS_mean                 =   1.0000000000000E+00
(PID.TID 0000.0001) %MON AngleCS_sd                   =   0.0000000000000E+00
(PID.TID 0000.0001) %MON AngleSN_max                  =   0.0000000000000E+00
(PID.TID 0000.0001) %MON AngleSN_min                  =   0.0000000000000E+00
(PID.TID 0000.0001) %MON AngleSN_mean                 =   0.0000000000000E+00
(PID.TID 0000.0001) %MON AngleSN_sd                   =   0.0000000000000E+00
(PID.TID 0000.0001)  MDS_READ_FIELD: opening global file: bathy_closeN.bin
(PID.TID 0000.0001) // =======================================================
(PID.TID 0000.0001) // Field Model R_low (ini_masks_etc)
(PID.TID 0000.0001) // CMIN =         -4.200000000000000E+03
(PID.TID 0000.0001) // CMAX =         -5.500000000000000E+01
(PID.TID 0000.0001) // CINT =          1.535185185185185E+02
(PID.TID 0000.0001) // SYMBOLS (CMIN->CMAX): -abcdefghijklmnopqrstuvwxyz+
(PID.TID 0000.0001) //                  0.0: .
(PID.TID 0000.0001) // RANGE I (Lo:Hi:Step):(    -3:    24:     1)
(PID.TID 0000.0001) // RANGE J (Lo:Hi:Step):(    20:    -3:    -1)
(PID.TID 0000.0001) // RANGE K (Lo:Hi:Step):(   1:   1:   1)
(PID.TID 0000.0001) // =======================================================
(PID.TID 0000.0001) K =   1
(PID.TID 0000.0001) //                I=6       I=8       I=18
(PID.TID 0000.0001) // |--J--|321012345|789012347|901234567|901234
(PID.TID 0000.0001) //     20 cccg............zz......zzmgcccg....
(PID.TID 0000.0001) //     19 gcc-..........+.zz....+.zzxmgcc-....
(PID.TID 0000.0001) //     18 mjc-.......+zzz..z.+zzz..zzsmjc-....
(PID.TID 0000.0001) //     17 wwc-........++z+++..++z+++z+wwc-....
(PID.TID 0000.0001) //     16 ....................................
(PID.TID 0000.0001) //     15 ....yxwwuspxyxz...pxyxz.........yxww
(PID.TID 0000.0001) //     14 .....+wwspppsxzz..ppsxzz.........+ww
(PID.TID 0000.0001) //     13 ........zwsppsyz..sppsyz............
(PID.TID 0000.0001) //     12 ..........+ypswzz++ypswzz+..........
(PID.TID 0000.0001) //     11 ............+wwy+...+wwy+...........
(PID.TID 0000.0001) //     10 ...........zzzywy+.zzzywy+..........
(PID.TID 0000.0001) //      9 ...z.......+zxsmmm.+zxsmmm+....z....
(PID.TID 0000.0001) //      8 z..s.....zzzxumjjjzzxumjjjjuz..s....
(PID.TID 0000.0001) //      7 jpmj......z.+zmjggz.+zmjggggjpmj....
(PID.TID 0000.0001) //      6 gggg.........zxmjg...zxmjggggggg....
(PID.TID 0000.0001) //      5 gggg..........zzsj....zzsjgggggg....
(PID.TID 0000.0001) //     12 ..........+ypswzz++ypswzz+..........
(PID.TID 0000.0001) //     11 ............+wwy+...+wwy+...........
(PID.TID 0000.0001) //     10 ...........zzzywy+.zzzywy+..........
(PID.TID 0000.0001) //      9 ...z.......+zxsmmm.+zxsmmm+....z....
(PID.TID 0000.0001) //      8 z..s.....zzzxumjjjzzxumjjjjuz..s....
(PID.TID 0000.0001) //      7 jpmj......z.+zmjggz.+zmjggggjpmj....
(PID.TID 0000.0001) //      6 gggg.........zxmjg...zxmjggggggg....
(PID.TID 0000.0001) //      5 gggg..........zzsj....zzsjgggggg....
(PID.TID 0000.0001) //      4 cccg............zz......zzmgcccg....
(PID.TID 0000.0001) //      3 gcc-..........+.zz....+.zzxmgcc-....
(PID.TID 0000.0001) //      2 mjc-.......+zzz..z.+zzz..zzsmjc-....
(PID.TID 0000.0001) //      1 wwc-........++z+++..++z+++z+wwc-....
(PID.TID 0000.0001) //      0 ....................................
(PID.TID 0000.0001) //     -1 ....yxwwuspxyxz...pxyxz.........yxww
(PID.TID 0000.0001) //     -2 .....+wwspppsxzz..ppsxzz.........+ww
(PID.TID 0000.0001) //     -3 ........zwsppsyz..sppsyz............
(PID.TID 0000.0001) // =======================================================
(PID.TID 0000.0001) // END OF FIELD                                          =
(PID.TID 0000.0001) // =======================================================
(PID.TID 0000.0001) 
(PID.TID 0000.0001) // =======================================================
(PID.TID 0000.0001) // Field Model Ro_surf (ini_masks_etc)
(PID.TID 0000.0001) // CMIN =          1.000000000000000E+32
(PID.TID 0000.0001) // CMAX =         -1.000000000000000E+32
(PID.TID 0000.0001) // CINT =          0.000000000000000E+00
(PID.TID 0000.0001) // SYMBOLS (CMIN->CMAX): -abcdefghijklmnopqrstuvwxyz+
(PID.TID 0000.0001) //                  0.0: .
(PID.TID 0000.0001) // RANGE I (Lo:Hi:Step):(    -3:    24:     1)
(PID.TID 0000.0001) // RANGE J (Lo:Hi:Step):(    20:    -3:    -1)
(PID.TID 0000.0001) // RANGE K (Lo:Hi:Step):(   1:   1:   1)
(PID.TID 0000.0001) // =======================================================
(PID.TID 0000.0001) // =======================================================
(PID.TID 0000.0001) // END OF FIELD                                          =
(PID.TID 0000.0001) // =======================================================
(PID.TID 0000.0001) 
(PID.TID 0000.0001) // =======================================================
(PID.TID 0000.0001) // Field hFacC at iteration          0
(PID.TID 0000.0001) // CMIN =          1.000000000000000E+00
(PID.TID 0000.0001) // CMAX =          1.000000000000000E+00
(PID.TID 0000.0001) // CINT =          0.000000000000000E+00
(PID.TID 0000.0001) // SYMBOLS (CMIN->CMAX): -abcdefghijklmnopqrstuvwxyz+
(PID.TID 0000.0001) //                  0.0: .
(PID.TID 0000.0001) // RANGE I (Lo:Hi:Step):(    -3:    24:     1)
(PID.TID 0000.0001) // RANGE J (Lo:Hi:Step):(    20:    -3:    -1)
(PID.TID 0000.0001) // RANGE K (Lo:Hi:Step):(   1:   1:   1)
(PID.TID 0000.0001) // =======================================================
(PID.TID 0000.0001) // =======================================================
(PID.TID 0000.0001) // END OF FIELD                                          =
(PID.TID 0000.0001) // =======================================================
(PID.TID 0000.0001) 
(PID.TID 0000.0001) // =======================================================
(PID.TID 0000.0001) // Field hFacW at iteration          0
(PID.TID 0000.0001) // CMIN =          1.000000000000000E+00
(PID.TID 0000.0001) // CMAX =          1.000000000000000E+00
(PID.TID 0000.0001) // CINT =          0.000000000000000E+00
(PID.TID 0000.0001) // SYMBOLS (CMIN->CMAX): -abcdefghijklmnopqrstuvwxyz+
(PID.TID 0000.0001) //                  0.0: .
(PID.TID 0000.0001) // RANGE I (Lo:Hi:Step):(    -3:    24:     1)
(PID.TID 0000.0001) // RANGE J (Lo:Hi:Step):(    20:    -3:    -1)
(PID.TID 0000.0001) // RANGE K (Lo:Hi:Step):(   1:   1:   1)
(PID.TID 0000.0001) // =======================================================
(PID.TID 0000.0001) // =======================================================
(PID.TID 0000.0001) // END OF FIELD                                          =
(PID.TID 0000.0001) // =======================================================
(PID.TID 0000.0001) 
(PID.TID 0000.0001) // =======================================================
(PID.TID 0000.0001) // Field hFacS at iteration          0
(PID.TID 0000.0001) // CMIN =          1.000000000000000E+00
(PID.TID 0000.0001) // CMAX =          1.000000000000000E+00
(PID.TID 0000.0001) // CINT =          0.000000000000000E+00
(PID.TID 0000.0001) // SYMBOLS (CMIN->CMAX): -abcdefghijklmnopqrstuvwxyz+
(PID.TID 0000.0001) //                  0.0: .
(PID.TID 0000.0001) // RANGE I (Lo:Hi:Step):(    -3:    24:     1)
(PID.TID 0000.0001) // RANGE J (Lo:Hi:Step):(    20:    -3:    -1)
(PID.TID 0000.0001) // RANGE K (Lo:Hi:Step):(   1:   1:   1)
(PID.TID 0000.0001) // =======================================================
(PID.TID 0000.0001) // =======================================================
(PID.TID 0000.0001) // END OF FIELD                                          =
(PID.TID 0000.0001) // =======================================================
(PID.TID 0000.0001) 
(PID.TID 0000.0001) 
(PID.TID 0000.0001) // =======================================================
(PID.TID 0000.0001) // Calendar configuration >>> START <<<
(PID.TID 0000.0001) // =======================================================
(PID.TID 0000.0001) 
(PID.TID 0000.0001) modelstart = /* Start time of the model integration [s] */
(PID.TID 0000.0001)                 0.000000000000000E+00
(PID.TID 0000.0001)     ;
(PID.TID 0000.0001) modelend  = /* End time of the model integration [s] */
(PID.TID 0000.0001)                 3.600000000000000E+04
(PID.TID 0000.0001)     ;
(PID.TID 0000.0001) modelstep = /* Time interval for a model forward step [s] */
(PID.TID 0000.0001)                 3.600000000000000E+03
(PID.TID 0000.0001)     ;
(PID.TID 0000.0001) usingGregorianCalendar= /* Calendar Type: Gregorian Calendar */
(PID.TID 0000.0001)                   T
(PID.TID 0000.0001)     ;
(PID.TID 0000.0001) usingJulianCalendar = /* Calendar Type: Julian Calendar */
(PID.TID 0000.0001)                   F
(PID.TID 0000.0001)     ;
(PID.TID 0000.0001) usingModelCalendar  = /* Calendar Type: Model Calendar */
(PID.TID 0000.0001)                   F
(PID.TID 0000.0001)     ;
(PID.TID 0000.0001) modelstartdate YYYYMMDD = /* Model start date YYYY-MM-DD */
(PID.TID 0000.0001)                19790101
(PID.TID 0000.0001)     ;
(PID.TID 0000.0001)   modelstartdate HHMMSS = /* Model start date HH-MM-SS  */
(PID.TID 0000.0001)                       0
(PID.TID 0000.0001)     ;
(PID.TID 0000.0001) modelenddate   YYYYMMDD = /* Model end date YYYY-MM-DD */
(PID.TID 0000.0001)                19790101
(PID.TID 0000.0001)     ;
(PID.TID 0000.0001)   modelenddate   HHMMSS = /* Model end date HH-MM-SS  */
(PID.TID 0000.0001)                  100000
(PID.TID 0000.0001)     ;
(PID.TID 0000.0001) intyears = /* Number of calendar years affected by the integration */
(PID.TID 0000.0001)                       1
(PID.TID 0000.0001)     ;
(PID.TID 0000.0001) intmonths= /* Number of calendar months affected by the integration */
(PID.TID 0000.0001)                       1
(PID.TID 0000.0001)     ;
(PID.TID 0000.0001) intdays = /* Number of calendar days affected by the integration */
(PID.TID 0000.0001)                       1
(PID.TID 0000.0001)     ;
(PID.TID 0000.0001) modeliter0 = /* Base timestep number  */
(PID.TID 0000.0001)                       0
(PID.TID 0000.0001)     ;
(PID.TID 0000.0001) modeliterend = /* Final timestep number  */
(PID.TID 0000.0001)                      10
(PID.TID 0000.0001)     ;
(PID.TID 0000.0001) modelintsteps= /* Number of model timesteps  */
(PID.TID 0000.0001)                      10
(PID.TID 0000.0001)     ;
(PID.TID 0000.0001) 
(PID.TID 0000.0001) // =======================================================
(PID.TID 0000.0001) // Calendar configuration  >>> END <<<
(PID.TID 0000.0001) // =======================================================
(PID.TID 0000.0001) 
(PID.TID 0000.0001) GAD_INIT_FIXED: GAD_OlMinSize=  1  0  1
(PID.TID 0000.0001) 
(PID.TID 0000.0001) // ===================================
(PID.TID 0000.0001) // GAD parameters :
(PID.TID 0000.0001) // ===================================
(PID.TID 0000.0001) tempAdvScheme =   /* Temp. Horiz.Advection scheme selector */
(PID.TID 0000.0001)                       2
(PID.TID 0000.0001)     ;
(PID.TID 0000.0001) tempVertAdvScheme =   /* Temp. Vert. Advection scheme selector */
(PID.TID 0000.0001)                       2
(PID.TID 0000.0001)     ;
(PID.TID 0000.0001) tempMultiDimAdvec =   /* use Muti-Dim Advec method for Temp */
(PID.TID 0000.0001)                   F
(PID.TID 0000.0001)     ;
(PID.TID 0000.0001) tempSOM_Advection = /* use 2nd Order Moment Advection for Temp */
(PID.TID 0000.0001)                   F
(PID.TID 0000.0001)     ;
(PID.TID 0000.0001) AdamsBashforthGt = /* apply Adams-Bashforth extrapolation on Gt */
(PID.TID 0000.0001)                   T
(PID.TID 0000.0001)     ;
(PID.TID 0000.0001) AdamsBashforth_T = /* apply Adams-Bashforth extrapolation on Temp */
(PID.TID 0000.0001)                   F
(PID.TID 0000.0001)     ;
(PID.TID 0000.0001) saltAdvScheme =   /* Salt. Horiz.advection scheme selector */
(PID.TID 0000.0001)                       2
(PID.TID 0000.0001)     ;
(PID.TID 0000.0001) saltVertAdvScheme =   /* Salt. Vert. Advection scheme selector */
(PID.TID 0000.0001)                       2
(PID.TID 0000.0001)     ;
(PID.TID 0000.0001) saltMultiDimAdvec =   /* use Muti-Dim Advec method for Salt */
(PID.TID 0000.0001)                   F
(PID.TID 0000.0001)     ;
(PID.TID 0000.0001) saltSOM_Advection = /* use 2nd Order Moment Advection for Salt */
(PID.TID 0000.0001)                   F
(PID.TID 0000.0001)     ;
(PID.TID 0000.0001) AdamsBashforthGs = /* apply Adams-Bashforth extrapolation on Gs */
(PID.TID 0000.0001)                   T
(PID.TID 0000.0001)     ;
(PID.TID 0000.0001) AdamsBashforth_S = /* apply Adams-Bashforth extrapolation on Salt */
(PID.TID 0000.0001)                   F
(PID.TID 0000.0001)     ;
(PID.TID 0000.0001) // ===================================
(PID.TID 0000.0001) 
(PID.TID 0000.0001) // =======================================================
(PID.TID 0000.0001) // External forcing (EXF) configuration >>> START <<<
(PID.TID 0000.0001) // =======================================================
(PID.TID 0000.0001) 
(PID.TID 0000.0001)  EXF general parameters:
(PID.TID 0000.0001) 
(PID.TID 0000.0001) exf_iprec = /* exf file precision */
(PID.TID 0000.0001)                      32
(PID.TID 0000.0001)     ;
(PID.TID 0000.0001) useExfYearlyFields = /* add extension _YEAR to input file names */
(PID.TID 0000.0001)                   F
(PID.TID 0000.0001)     ;
(PID.TID 0000.0001) twoDigitYear = /* use 2-digit year extension */
(PID.TID 0000.0001)                   F
(PID.TID 0000.0001)     ;
(PID.TID 0000.0001) exf_verbose = /* print more messages to STDOUT */
(PID.TID 0000.0001)                   F
(PID.TID 0000.0001)     ;
(PID.TID 0000.0001) useExfCheckRange = /* check for fields range */
(PID.TID 0000.0001)                   T
(PID.TID 0000.0001)     ;
(PID.TID 0000.0001) exf_monFreq = /* EXF monitor frequency [ s ] */
(PID.TID 0000.0001)                 1.000000000000000E+00
(PID.TID 0000.0001)     ;
(PID.TID 0000.0001) repeatPeriod = /* period for cycling forcing dataset [ s ] */
(PID.TID 0000.0001)                 3.162240000000000E+07
(PID.TID 0000.0001)     ;
(PID.TID 0000.0001) climTempFreeze= /* Minimum climatological temperature [deg.C] */
(PID.TID 0000.0001)                -1.900000000000000E+00
(PID.TID 0000.0001)     ;
(PID.TID 0000.0001) windStressMax = /* Maximum absolute windstress [ Pa ] */
(PID.TID 0000.0001)                 2.000000000000000E+00
(PID.TID 0000.0001)     ;
(PID.TID 0000.0001) stressIsOnCgrid = /* set u,v_stress on Arakawa C-grid */
(PID.TID 0000.0001)                   F
(PID.TID 0000.0001)     ;
(PID.TID 0000.0001) cen2kel = /* conversion of deg. Centigrade to Kelvin [K] */
(PID.TID 0000.0001)                 2.731500000000000E+02
(PID.TID 0000.0001)     ;
(PID.TID 0000.0001) gravity_mks= /* gravitational acceleration [m/s^2] */
(PID.TID 0000.0001)                 9.810000000000000E+00
(PID.TID 0000.0001)     ;
(PID.TID 0000.0001) atmrho =  /* mean atmospheric density [kg/m^3] */
(PID.TID 0000.0001)                 1.200000000000000E+00
(PID.TID 0000.0001)     ;
(PID.TID 0000.0001) atmcp =  /* mean atmospheric specific heat [J/kg/K] */
(PID.TID 0000.0001)                 1.005000000000000E+03
(PID.TID 0000.0001)     ;
(PID.TID 0000.0001) flamb =  /* latent heat of evaporation [J/kg] */
(PID.TID 0000.0001)                 2.500000000000000E+06
(PID.TID 0000.0001)     ;
(PID.TID 0000.0001) flami =  /* latent heat of pure-ice melting [J/kg] */
(PID.TID 0000.0001)                 3.340000000000000E+05
(PID.TID 0000.0001)     ;
(PID.TID 0000.0001) cvapor_fac = /* const. for Saturation calculation [?] */
(PID.TID 0000.0001)                 6.403800000000000E+05
(PID.TID 0000.0001)     ;
(PID.TID 0000.0001) cvapor_exp = /* const. for Saturation calculation [?] */
(PID.TID 0000.0001)                 5.107400000000000E+03
(PID.TID 0000.0001)     ;
(PID.TID 0000.0001) cvapor_fac_ice= /* const. for Saturation calculation [?] */
(PID.TID 0000.0001)                 1.163780000000000E+07
(PID.TID 0000.0001)     ;
(PID.TID 0000.0001) cvapor_exp_ice= /* const. for Saturation calculation [?] */
(PID.TID 0000.0001)                 5.897800000000000E+03
(PID.TID 0000.0001)     ;
(PID.TID 0000.0001) humid_fac = /* humidity coef. in virtual temp. [(kg/kg)^-1] */
(PID.TID 0000.0001)                 6.060000000000000E-01
(PID.TID 0000.0001)     ;
(PID.TID 0000.0001) gamma_blk = /* adiabatic lapse rate [?] */
(PID.TID 0000.0001)                 1.000000000000000E-02
(PID.TID 0000.0001)     ;
(PID.TID 0000.0001) saltsat = /* reduction of Qsat over salty water [-] */
(PID.TID 0000.0001)                 9.800000000000000E-01
(PID.TID 0000.0001)     ;
(PID.TID 0000.0001) noNegativeEvap = /* prevent negative Evaporation */
(PID.TID 0000.0001)                   F
(PID.TID 0000.0001)     ;
(PID.TID 0000.0001) sstExtrapol = /* extrapolation coeff from lev. 1 & 2 to surf [-] */
(PID.TID 0000.0001)                 0.000000000000000E+00
(PID.TID 0000.0001)     ;
(PID.TID 0000.0001) cDrag_1 = /* coef used in drag calculation [?] */
(PID.TID 0000.0001)                 2.700000000000000E-03
(PID.TID 0000.0001)     ;
(PID.TID 0000.0001) cDrag_2 = /* coef used in drag calculation [?] */
(PID.TID 0000.0001)                 1.420000000000000E-04
(PID.TID 0000.0001)     ;
(PID.TID 0000.0001) cDrag_3 = /* coef used in drag calculation [?] */
(PID.TID 0000.0001)                 7.640000000000000E-05
(PID.TID 0000.0001)     ;
(PID.TID 0000.0001) cStanton_1 = /* coef used in Stanton number calculation [?] */
(PID.TID 0000.0001)                 3.270000000000000E-02
(PID.TID 0000.0001)     ;
(PID.TID 0000.0001) cStanton_2 = /* coef used in Stanton number calculation [?] */
(PID.TID 0000.0001)                 1.800000000000000E-02
(PID.TID 0000.0001)     ;
(PID.TID 0000.0001) cDalton = /* coef used in Dalton number calculation [?] */
(PID.TID 0000.0001)                 3.460000000000000E-02
(PID.TID 0000.0001)     ;
(PID.TID 0000.0001) exf_scal_BulkCdn= /* Drag coefficient scaling factor [-] */
(PID.TID 0000.0001)                 1.000000000000000E+00
(PID.TID 0000.0001)     ;
(PID.TID 0000.0001) zolmin = /* minimum stability parameter [?] */
(PID.TID 0000.0001)                -1.000000000000000E+02
(PID.TID 0000.0001)     ;
(PID.TID 0000.0001) psim_fac = /* coef used in turbulent fluxes calculation [-] */
(PID.TID 0000.0001)                 5.000000000000000E+00
(PID.TID 0000.0001)     ;
(PID.TID 0000.0001) zref =  /* reference height [ m ] */
(PID.TID 0000.0001)                 1.000000000000000E+01
(PID.TID 0000.0001)     ;
(PID.TID 0000.0001) hu =  /* height of mean wind [ m ] */
(PID.TID 0000.0001)                 1.000000000000000E+01
(PID.TID 0000.0001)     ;
(PID.TID 0000.0001) ht =  /* height of mean temperature [ m ] */
(PID.TID 0000.0001)                 2.000000000000000E+00
(PID.TID 0000.0001)     ;
(PID.TID 0000.0001) hq =  /* height of mean spec.humidity [ m ] */
(PID.TID 0000.0001)                 2.000000000000000E+00
(PID.TID 0000.0001)     ;
(PID.TID 0000.0001) uMin = /* minimum wind speed [m/s] */
(PID.TID 0000.0001)                 5.000000000000000E-01
(PID.TID 0000.0001)     ;
(PID.TID 0000.0001) useStabilityFct_overIce= /* transfert Coeffs over sea-ice depend on stability */
(PID.TID 0000.0001)                   F
(PID.TID 0000.0001)     ;
(PID.TID 0000.0001) exf_iceCd = /* drag coefficient over sea-ice (fixed) [-] */
(PID.TID 0000.0001)                 1.630000000000000E-03
(PID.TID 0000.0001)     ;
(PID.TID 0000.0001) exf_iceCe = /* transfert coeff. over sea-ice, for Evap (fixed) [-] */
(PID.TID 0000.0001)                 1.630000000000000E-03
(PID.TID 0000.0001)     ;
(PID.TID 0000.0001) exf_iceCh = /* transfert coeff. over sea-ice, Sens.Heat.(fixed)[-] */
(PID.TID 0000.0001)                 1.630000000000000E-03
(PID.TID 0000.0001)     ;
(PID.TID 0000.0001) exf_albedo =  /* Sea-water albedo [-] */
(PID.TID 0000.0001)                 1.000000000000000E-01
(PID.TID 0000.0001)     ;
(PID.TID 0000.0001) useExfZenAlbedo = /* Sea-water albedo varies with zenith angle */
(PID.TID 0000.0001)                   F
(PID.TID 0000.0001)     ;
(PID.TID 0000.0001) select_ZenAlbedo = /* Sea-water albedo computation method */
(PID.TID 0000.0001)                       0
(PID.TID 0000.0001)     ;
(PID.TID 0000.0001) useExfZenIncoming = /* compute incoming solar radiation */
(PID.TID 0000.0001)                   F
(PID.TID 0000.0001)     ;
(PID.TID 0000.0001) ocean_emissivity = /* longwave ocean-surface emissivity [-] */
(PID.TID 0000.0001)                 9.700176366843034E-01
(PID.TID 0000.0001)     ;
(PID.TID 0000.0001) ice_emissivity = /* longwave seaice emissivity [-] */
(PID.TID 0000.0001)                 9.500000000000000E-01
(PID.TID 0000.0001)     ;
(PID.TID 0000.0001) snow_emissivity = /* longwave snow  emissivity [-] */
(PID.TID 0000.0001)                 9.500000000000000E-01
(PID.TID 0000.0001)     ;
(PID.TID 0000.0001) 
(PID.TID 0000.0001)  EXF main CPP flags:
(PID.TID 0000.0001) 
(PID.TID 0000.0001) // USE_EXF_INTERPOLATION:          NOT defined
(PID.TID 0000.0001) // ALLOW_ATM_TEMP:                     defined
(PID.TID 0000.0001) // ALLOW_ATM_WIND (useAtmWind):        defined
(PID.TID 0000.0001) // ALLOW_DOWNWARD_RADIATION:           defined
(PID.TID 0000.0001) // ALLOW_BULKFORMULAE:                 defined
(PID.TID 0000.0001) 
(PID.TID 0000.0001)    Net shortwave flux forcing starts at                0.
(PID.TID 0000.0001)    Net shortwave flux forcing period is          2635200.
(PID.TID 0000.0001)    Net shortwave flux forcing is read from file:
(PID.TID 0000.0001)    >>    <<
(PID.TID 0000.0001) 
(PID.TID 0000.0001)    Zonal wind forcing starts at                   -1317600.
(PID.TID 0000.0001)    Zonal wind forcing period is                    2635200.
(PID.TID 0000.0001)    Zonal wind forcing is read from file:
(PID.TID 0000.0001)    >>  u10m.labsea1979  <<
(PID.TID 0000.0001) 
(PID.TID 0000.0001)    Meridional wind forcing starts at              -1317600.
(PID.TID 0000.0001)    Meridional wind forcing period is               2635200.
(PID.TID 0000.0001)    Meridional wind forcing is read from file:
(PID.TID 0000.0001)    >>  v10m.labsea1979  <<
(PID.TID 0000.0001) 
(PID.TID 0000.0001)    Atmospheric temperature starts at              -1317600.
(PID.TID 0000.0001)    Atmospheric temperature period is               2635200.
(PID.TID 0000.0001)    Atmospheric temperature is read from file:
(PID.TID 0000.0001)    >>  tair.labsea1979  <<
(PID.TID 0000.0001) 
(PID.TID 0000.0001)    Atmospheric specific humidity starts at        -1317600.
(PID.TID 0000.0001)    Atmospheric specific humidity period is         2635200.
(PID.TID 0000.0001)    Atmospheric specific humidity is read from file:
(PID.TID 0000.0001)    >>  qa.labsea1979  <<
(PID.TID 0000.0001) 
(PID.TID 0000.0001)    Net longwave flux forcing starts at                 0.
(PID.TID 0000.0001)    Net longwave flux forcing period is           2635200.
(PID.TID 0000.0001)    Net longwave flux forcing is read from file:
(PID.TID 0000.0001)    >>    <<
(PID.TID 0000.0001) 
(PID.TID 0000.0001)    Precipitation data set starts at               -1317600.
(PID.TID 0000.0001)    Precipitation data period is                    2635200.
(PID.TID 0000.0001)    Precipitation data is read from file:
(PID.TID 0000.0001)    >>  prate.labsea1979  <<
(PID.TID 0000.0001) 
(PID.TID 0000.0001) // EXF_READ_EVAP:                  NOT defined
(PID.TID 0000.0001) 
(PID.TID 0000.0001) // ALLOW_RUNOFF:                       defined
(PID.TID 0000.0001)    Runoff starts at               0.
(PID.TID 0000.0001)    Runoff period is               0.
(PID.TID 0000.0001)    Runoff is read from file:
(PID.TID 0000.0001)    >>    <<
(PID.TID 0000.0001) 
(PID.TID 0000.0001)    Downward shortwave flux forcing starts at         -1317600.
(PID.TID 0000.0001)    Downward shortwave flux forcing period is          2635200.
(PID.TID 0000.0001)    Downward shortwave flux forcing is read from file:
(PID.TID 0000.0001)    >>  fsh.labsea1979  <<
(PID.TID 0000.0001) 
(PID.TID 0000.0001)    Downward longwave flux forcing starts at          -1317600.
(PID.TID 0000.0001)    Downward longwave flux forcing period is           2635200.
(PID.TID 0000.0001)    Downward longwave flux forcing is read from file:
(PID.TID 0000.0001)    >>  flo.labsea1979  <<
(PID.TID 0000.0001) 
(PID.TID 0000.0001)    Atmospheric pressure forcing starts at                0.
(PID.TID 0000.0001)    Atmospheric pressure forcing period is                0.
(PID.TID 0000.0001)    Atmospheric pressureforcing is read from file:
(PID.TID 0000.0001)    >>    <<
(PID.TID 0000.0001) 
(PID.TID 0000.0001) // =======================================================
(PID.TID 0000.0001) // External forcing (EXF) climatology configuration :
(PID.TID 0000.0001) // =======================================================
(PID.TID 0000.0001) 
(PID.TID 0000.0001) // ALLOW_CLIMSST_RELAXATION:           defined
(PID.TID 0000.0001) // ALLOW_CLIMSSS_RELAXATION:           defined
(PID.TID 0000.0001) 
(PID.TID 0000.0001)    Climatological SST starts at                   0.
(PID.TID 0000.0001)    Climatological SST period is             2635200.
(PID.TID 0000.0001)    Climatological SST is read from file:
(PID.TID 0000.0001)    >>    <<
(PID.TID 0000.0001) 
(PID.TID 0000.0001)    Climatological SSS starts at            -1317600.
(PID.TID 0000.0001)    Climatological SSS period is             2635200.
(PID.TID 0000.0001)    Climatological SSS is read from file:
(PID.TID 0000.0001)    >>  SSS_monthly.labsea1979  <<
(PID.TID 0000.0001) 
(PID.TID 0000.0001) // =======================================================
(PID.TID 0000.0001) // External forcing (EXF) configuration  >>> END <<<
(PID.TID 0000.0001) // =======================================================
(PID.TID 0000.0001) 
(PID.TID 0000.0001) // =======================================================
(PID.TID 0000.0001) // Seaice configuration (SEAICE_PARM01) >>> START <<<
(PID.TID 0000.0001) // =======================================================
(PID.TID 0000.0001) 
(PID.TID 0000.0001)    Seaice time stepping configuration   > START <
(PID.TID 0000.0001)    ----------------------------------------------
(PID.TID 0000.0001) SEAICE_deltaTtherm= /* thermodynamic timestep */
(PID.TID 0000.0001)                 3.600000000000000E+03
(PID.TID 0000.0001)     ;
(PID.TID 0000.0001) SEAICE_deltaTdyn  = /* dynamic timestep */
(PID.TID 0000.0001)                 3.600000000000000E+03
(PID.TID 0000.0001)     ;
(PID.TID 0000.0001) SEAICE_deltaTevp  = /* EVP timestep */
(PID.TID 0000.0001)                 3.000000000000000E+01
(PID.TID 0000.0001)     ;
(PID.TID 0000.0001) SEAICErestoreUnderIce  = /* restore T and S under ice */
(PID.TID 0000.0001)                   F
(PID.TID 0000.0001)     ;
(PID.TID 0000.0001) 
(PID.TID 0000.0001)    Seaice dynamics configuration   > START <
(PID.TID 0000.0001)    ------------------------------------------
(PID.TID 0000.0001) SEAICEuseDYNAMICS = /* use dynamics */
(PID.TID 0000.0001)                   T
(PID.TID 0000.0001)     ;
(PID.TID 0000.0001) model grid type   = /* type of sea ice model grid */
(PID.TID 0000.0001)               'C-GRID'
(PID.TID 0000.0001)     ;
(PID.TID 0000.0001) SEAICEuseEVP      = /* use EVP solver rather than LSR */
(PID.TID 0000.0001)                   T
(PID.TID 0000.0001)     ;
(PID.TID 0000.0001) SEAICEuseFREEDRIFT = /* use free drift solution */
(PID.TID 0000.0001)                   F
(PID.TID 0000.0001)     ;
(PID.TID 0000.0001) OCEAN_drag        = /* air-ocean drag coefficient */
(PID.TID 0000.0001)                 1.000000000000000E-03
(PID.TID 0000.0001)     ;
(PID.TID 0000.0001) SEAICE_drag       = /* air-ice drag coefficient */
(PID.TID 0000.0001)                 1.000000000000000E-03
(PID.TID 0000.0001)     ;
(PID.TID 0000.0001) SEAICE_drag_south      = /* Southern Ocean SEAICE_drag */
(PID.TID 0000.0001)                 1.000000000000000E-03
(PID.TID 0000.0001)     ;
(PID.TID 0000.0001) SEAICE_waterDrag  = /* water-ice drag * density */
(PID.TID 0000.0001)                 5.500000000000000E+00
(PID.TID 0000.0001)     ;
(PID.TID 0000.0001) SEAICE_waterDrag_south = /* Southern Ocean waterDrag */
(PID.TID 0000.0001)                 5.500000000000000E+00
(PID.TID 0000.0001)     ;
(PID.TID 0000.0001) SEAICEuseTilt     = /* include surface tilt in dyna. */
(PID.TID 0000.0001)                   T
(PID.TID 0000.0001)     ;
(PID.TID 0000.0001) SEAICEuseTEM      = /* use truncated ellipse rheology */
(PID.TID 0000.0001)                   F
(PID.TID 0000.0001)     ;
(PID.TID 0000.0001) SEAICE_strength   = /* sea-ice strength Pstar */
(PID.TID 0000.0001)                 2.750000000000000E+04
(PID.TID 0000.0001)     ;
(PID.TID 0000.0001) SEAICEpresH0   = /* sea-ice strength Heff threshold */
(PID.TID 0000.0001)                 1.000000000000000E+00
(PID.TID 0000.0001)     ;
(PID.TID 0000.0001) SEAICEpresPow0 = /* exponent for Heff<SEAICEpresH0 */
(PID.TID 0000.0001)                       1
(PID.TID 0000.0001)     ;
(PID.TID 0000.0001) SEAICEpresPow1 = /* exponent for Heff>SEAICEpresH0 */
(PID.TID 0000.0001)                       1
(PID.TID 0000.0001)     ;
(PID.TID 0000.0001) SEAICEetaZmethod = /* method computing eta at Z-point */
(PID.TID 0000.0001)                       0
(PID.TID 0000.0001)     ;
(PID.TID 0000.0001) SEAICE_zetaMin    = /* lower bound for viscosity */
(PID.TID 0000.0001)                 0.000000000000000E+00
(PID.TID 0000.0001)     ;
(PID.TID 0000.0001) SEAICE_eccen    = /* elliptical yield curve eccent */
(PID.TID 0000.0001)                 2.000000000000000E+00
(PID.TID 0000.0001)     ;
(PID.TID 0000.0001) SEAICEstressFactor    = /* wind stress scaling factor */
(PID.TID 0000.0001)                 1.000000000000000E+00
(PID.TID 0000.0001)     ;
(PID.TID 0000.0001) SEAICE_airTurnAngle    = /* air-ice turning angle */
(PID.TID 0000.0001)                 0.000000000000000E+00
(PID.TID 0000.0001)     ;
(PID.TID 0000.0001) SEAICE_waterTurnAngle  = /* ice-water turning angle */
(PID.TID 0000.0001)                 0.000000000000000E+00
(PID.TID 0000.0001)     ;
(PID.TID 0000.0001) SEAICEuseMetricTerms = /* use metric terms */
(PID.TID 0000.0001)                   T
(PID.TID 0000.0001)     ;
(PID.TID 0000.0001) SEAICE_no_slip    = /* no slip boundary conditions */
(PID.TID 0000.0001)                   T
(PID.TID 0000.0001)     ;
(PID.TID 0000.0001) SEAICE_clipVeloctities = /* impose max. vels. */
(PID.TID 0000.0001)                   F
(PID.TID 0000.0001)     ;
(PID.TID 0000.0001) useHB87stressCoupling  = /* altern. ice-ocean stress */
(PID.TID 0000.0001)                   T
(PID.TID 0000.0001)     ;
(PID.TID 0000.0001) SEAICE_maskRHS    = /* mask RHS of solver */
(PID.TID 0000.0001)                   F
(PID.TID 0000.0001)     ;
(PID.TID 0000.0001) SEAICE_elasticParm= /* EVP elastic parameter */
(PID.TID 0000.0001)                 3.333333333333333E-01
(PID.TID 0000.0001)     ;
(PID.TID 0000.0001) SEAICE_evpTauRelax= /* EVP relaxation timescale */
(PID.TID 0000.0001)                 1.200000000000000E+03
(PID.TID 0000.0001)     ;
(PID.TID 0000.0001) SEAICE_evpDampC   = /* EVP damping parameter */
(PID.TID 0000.0001)                -1.000000000000000E+00
(PID.TID 0000.0001)     ;
(PID.TID 0000.0001) SEAICEuseEVPstar= /* use EVP* solver */
(PID.TID 0000.0001)                   F
(PID.TID 0000.0001)     ;
(PID.TID 0000.0001) SEAICE_evpAlpha   = /* EVP* parameter*/
(PID.TID 0000.0001)                 8.000000000000000E+01
(PID.TID 0000.0001)     ;
(PID.TID 0000.0001) SEAICE_evpBeta    = /* EVP*  parameter */
(PID.TID 0000.0001)                 1.200000000000000E+02
(PID.TID 0000.0001)     ;
(PID.TID 0000.0001) SEAICEnEVPstarSteps = /* num. of EVP* steps */
(PID.TID 0000.0001)               123456789
(PID.TID 0000.0001)     ;
(PID.TID 0000.0001) SEAICEuseEVPpickup= /* start EVP solver with EVP pickup*/
(PID.TID 0000.0001)                   T
(PID.TID 0000.0001)     ;
(PID.TID 0000.0001) 
(PID.TID 0000.0001)    Seaice advection diffusion config,   > START <
(PID.TID 0000.0001)    -----------------------------------------------
(PID.TID 0000.0001) SEAICEadvHeff = /* advect effective ice thickness */
(PID.TID 0000.0001)                   T
(PID.TID 0000.0001)     ;
(PID.TID 0000.0001) SEAICEadvArea = /* advect fractional ice area */
(PID.TID 0000.0001)                   T
(PID.TID 0000.0001)     ;
(PID.TID 0000.0001) SEAICEadvSnow = /* advect snow layer together with ice */
(PID.TID 0000.0001)                   T
(PID.TID 0000.0001)     ;
(PID.TID 0000.0001) SEAICEadvScheme   = /* advection scheme for ice */
(PID.TID 0000.0001)                       2
(PID.TID 0000.0001)     ;
(PID.TID 0000.0001) SEAICEuseFluxForm = /* advection in FV flux form */
(PID.TID 0000.0001)                   T
(PID.TID 0000.0001)     ;
(PID.TID 0000.0001) SEAICEadvSchArea   = /* advection scheme for area */
(PID.TID 0000.0001)                       2
(PID.TID 0000.0001)     ;
(PID.TID 0000.0001) SEAICEadvSchHeff   = /* advection scheme for thickness */
(PID.TID 0000.0001)                       2
(PID.TID 0000.0001)     ;
(PID.TID 0000.0001) SEAICEadvSchSnow   = /* advection scheme for snow */
(PID.TID 0000.0001)                       2
(PID.TID 0000.0001)     ;
(PID.TID 0000.0001) SEAICEdiffKhArea   = /* diffusivity (m^2/s) for area */
(PID.TID 0000.0001)                 0.000000000000000E+00
(PID.TID 0000.0001)     ;
(PID.TID 0000.0001) SEAICEdiffKhHeff   = /* diffusivity (m^2/s) for heff */
(PID.TID 0000.0001)                 0.000000000000000E+00
(PID.TID 0000.0001)     ;
(PID.TID 0000.0001) SEAICEdiffKhSnow   = /* diffusivity (m^2/s) for snow */
(PID.TID 0000.0001)                 0.000000000000000E+00
(PID.TID 0000.0001)     ;
(PID.TID 0000.0001) DIFF1             = /* parameter used in advect.F [m/s] */
(PID.TID 0000.0001)                 4.000000000000000E-03
(PID.TID 0000.0001)     ;
(PID.TID 0000.0001) 
(PID.TID 0000.0001)    Seaice thermodynamics configuration   > START <
(PID.TID 0000.0001)    -----------------------------------------------
(PID.TID 0000.0001) SEAICE_rhoIce     = /* density of sea ice (kg/m3) */
(PID.TID 0000.0001)                 9.100000000000000E+02
(PID.TID 0000.0001)     ;
(PID.TID 0000.0001) SEAICE_rhoSnow    = /* density of snow (kg/m3) */
(PID.TID 0000.0001)                 3.300000000000000E+02
(PID.TID 0000.0001)     ;
(PID.TID 0000.0001) SEAICE_rhoAir     = /* density of air (kg/m3) */
(PID.TID 0000.0001)                 1.200000000000000E+00
(PID.TID 0000.0001)     ;
(PID.TID 0000.0001) usePW79thermodynamics  = /* default 0-layer TD */
(PID.TID 0000.0001)                   T
(PID.TID 0000.0001)     ;
(PID.TID 0000.0001) SEAICE_lhEvap     = /* latent heat of evaporation */
(PID.TID 0000.0001)                 2.500000000000000E+06
(PID.TID 0000.0001)     ;
(PID.TID 0000.0001) SEAICE_lhFusion   = /* latent heat of fusion */
(PID.TID 0000.0001)                 3.340000000000000E+05
(PID.TID 0000.0001)     ;
(PID.TID 0000.0001) SEAICE_mcPheePiston = /* turbulent flux "piston velocity" a la McPhee (m/s) */
(PID.TID 0000.0001)                 1.000000000000000E-03
(PID.TID 0000.0001)     ;
(PID.TID 0000.0001) SEAICE_mcPheeTaper = /* tapering of turbulent flux (0.< <1.) for AREA=1. */
(PID.TID 0000.0001)                 0.000000000000000E+00
(PID.TID 0000.0001)     ;
(PID.TID 0000.0001) SEAICE_mcPheeStepFunc = /* replace linear tapering with step funct. */
(PID.TID 0000.0001)                   F
(PID.TID 0000.0001)     ;
(PID.TID 0000.0001) SEAICE_frazilFrac = /* frazil (T<tempFrz) to seaice conversion rate (0.< <1.) */
(PID.TID 0000.0001)                 5.000000000000000E-01
(PID.TID 0000.0001)     ;
(PID.TID 0000.0001) SEAICE_tempFrz0   = /* freezing temp. of sea water (intercept) */
(PID.TID 0000.0001)                 9.010000000000000E-02
(PID.TID 0000.0001)     ;
(PID.TID 0000.0001) SEAICE_dTempFrz_dS= /* freezing temp. of sea water (slope) */
(PID.TID 0000.0001)                -5.750000000000000E-02
(PID.TID 0000.0001)     ;
(PID.TID 0000.0001) SEAICE_areaGainFormula = /* ice cover gain formula (1,2)*/
(PID.TID 0000.0001)                       1
(PID.TID 0000.0001)     1=from growth by ATM
(PID.TID 0000.0001)     2=from predicted growth by ATM
(PID.TID 0000.0001)     ;
(PID.TID 0000.0001) SEAICE_areaLossFormula = /* ice cover loss formula (1,2)*/
(PID.TID 0000.0001)                       1
(PID.TID 0000.0001)     1=from all but only melt conributions by ATM and OCN
(PID.TID 0000.0001)     2=from net melt-grow>0 by ATM and OCN
(PID.TID 0000.0001)     3=from predicted melt by ATM
(PID.TID 0000.0001)     ;
(PID.TID 0000.0001) HO                = /* nominal thickness of new ice */
(PID.TID 0000.0001)                 5.000000000000000E-01
(PID.TID 0000.0001)     ;
(PID.TID 0000.0001) HO_south               = /* Southern Ocean HO */
(PID.TID 0000.0001)                 5.000000000000000E-01
(PID.TID 0000.0001)     ;
(PID.TID 0000.0001) SEAICE_area_max        = /* set to les than 1. to mimic open leads */
(PID.TID 0000.0001)                 1.000000000000000E+00
(PID.TID 0000.0001)     ;
(PID.TID 0000.0001) SEAICE_salt0   = /* constant sea ice salinity */
(PID.TID 0000.0001)                 4.000000000000000E+00
(PID.TID 0000.0001)     ;
(PID.TID 0000.0001) SEAICE_salinityTracer = /* test SITR varia. salinity */
(PID.TID 0000.0001)                   F
(PID.TID 0000.0001)     ;
(PID.TID 0000.0001) SEAICEuseFlooding = /* turn submerged snow into ice */
(PID.TID 0000.0001)                   T
(PID.TID 0000.0001)     ;
(PID.TID 0000.0001) 
(PID.TID 0000.0001)    Seaice air-sea fluxes configuration,   > START <
(PID.TID 0000.0001)    -----------------------------------------------
(PID.TID 0000.0001) SEAICEheatConsFix  = /* accound for ocn<->seaice advect. heat flux */
(PID.TID 0000.0001)                   F
(PID.TID 0000.0001)     ;
(PID.TID 0000.0001) SEAICE_multDim    = /* number of ice categories (1 or 7) */
(PID.TID 0000.0001)                       1
(PID.TID 0000.0001)     ;
(PID.TID 0000.0001) IMAX_TICE         = /* iterations for ice surface temp */
(PID.TID 0000.0001)                      10
(PID.TID 0000.0001)     ;
(PID.TID 0000.0001) postSolvTempIter= /* flux calculation after surf. temp iter */
(PID.TID 0000.0001)                       2
(PID.TID 0000.0001)     ;
(PID.TID 0000.0001) SEAICE_dryIceAlb  = /* winter albedo */
(PID.TID 0000.0001)                 7.500000000000000E-01
(PID.TID 0000.0001)     ;
(PID.TID 0000.0001) SEAICE_wetIceAlb  = /* summer albedo */
(PID.TID 0000.0001)                 6.600000000000000E-01
(PID.TID 0000.0001)     ;
(PID.TID 0000.0001) SEAICE_drySnowAlb = /* dry snow albedo */
(PID.TID 0000.0001)                 8.400000000000000E-01
(PID.TID 0000.0001)     ;
(PID.TID 0000.0001) SEAICE_wetSnowAlb = /* wet snow albedo */
(PID.TID 0000.0001)                 7.000000000000000E-01
(PID.TID 0000.0001)     ;
(PID.TID 0000.0001) SEAICE_dryIceAlb_south = /* Southern Ocean dryIceAlb */
(PID.TID 0000.0001)                 7.500000000000000E-01
(PID.TID 0000.0001)     ;
(PID.TID 0000.0001) SEAICE_wetIceAlb_south = /* Southern Ocean wetIceAlb */
(PID.TID 0000.0001)                 6.600000000000000E-01
(PID.TID 0000.0001)     ;
(PID.TID 0000.0001) SEAICE_drySnowAlb_south= /* Southern Ocean drySnowAlb */
(PID.TID 0000.0001)                 8.400000000000000E-01
(PID.TID 0000.0001)     ;
(PID.TID 0000.0001) SEAICE_wetSnowAlb_south= /* Southern Ocean wetSnowAlb */
(PID.TID 0000.0001)                 7.000000000000000E-01
(PID.TID 0000.0001)     ;
(PID.TID 0000.0001) SEAICE_wetAlbTemp= /* Temp (o.C) threshold for wet-albedo */
(PID.TID 0000.0001)                -1.000000000000000E-03
(PID.TID 0000.0001)     ;
(PID.TID 0000.0001) SEAICE_snow_emiss = /* snow emissivity */
(PID.TID 0000.0001)                 9.500000000000000E-01
(PID.TID 0000.0001)     ;
(PID.TID 0000.0001) SEAICE_ice_emiss = /* seaice emissivity */
(PID.TID 0000.0001)                 9.500000000000000E-01
(PID.TID 0000.0001)     ;
(PID.TID 0000.0001) SEAICE_cpAir      = /* heat capacity of air */
(PID.TID 0000.0001)                 1.005000000000000E+03
(PID.TID 0000.0001)     ;
(PID.TID 0000.0001) SEAICE_dalton     = /* constant dalton number */
(PID.TID 0000.0001)                 1.750000000000000E-03
(PID.TID 0000.0001)     ;
(PID.TID 0000.0001) SEAICE_iceConduct = /* sea-ice conductivity */
(PID.TID 0000.0001)                 2.165600000000000E+00
(PID.TID 0000.0001)     ;
(PID.TID 0000.0001) SEAICE_snowConduct= /* snow conductivity */
(PID.TID 0000.0001)                 3.100000000000000E-01
(PID.TID 0000.0001)     ;
(PID.TID 0000.0001) SEAICE_snowThick  = /* cutoff snow thickness (for albedo) */
(PID.TID 0000.0001)                 1.500000000000000E-01
(PID.TID 0000.0001)     ;
(PID.TID 0000.0001) SEAICE_shortwave  = /* penetration shortwave radiation */
(PID.TID 0000.0001)                 3.000000000000000E-01
(PID.TID 0000.0001)     ;
(PID.TID 0000.0001) useMaykutSatVapPoly = /* use Maykut Polynomial for Sat.Vap.Pr */
(PID.TID 0000.0001)                   F
(PID.TID 0000.0001)     ;
(PID.TID 0000.0001) MIN_ATEMP         = /* minimum air temperature */
(PID.TID 0000.0001)                -5.000000000000000E+01
(PID.TID 0000.0001)     ;
(PID.TID 0000.0001) MIN_LWDOWN        = /* minimum downward longwave */
(PID.TID 0000.0001)                 6.000000000000000E+01
(PID.TID 0000.0001)     ;
(PID.TID 0000.0001) MIN_TICE          = /* minimum ice temperature */
(PID.TID 0000.0001)                -5.000000000000000E+01
(PID.TID 0000.0001)     ;
(PID.TID 0000.0001) 
(PID.TID 0000.0001)    Seaice initialization and IO config.,   > START <
(PID.TID 0000.0001)    -------------------------------------------------
(PID.TID 0000.0001) SEAICE_initialHEFF= /* initial sea-ice thickness */
(PID.TID 0000.0001)                 0.000000000000000E+00
(PID.TID 0000.0001)     ;
(PID.TID 0000.0001) AreaFile = /* Initial ice concentration File */
(PID.TID 0000.0001)               'AREA.0000008760'
(PID.TID 0000.0001)     ;
(PID.TID 0000.0001) HeffFile = /* Initial effective ice thickness File */
(PID.TID 0000.0001)               'HEFF.0000008760'
(PID.TID 0000.0001)     ;
(PID.TID 0000.0001) HsnowFile = /* Initial snow thickness File */
(PID.TID 0000.0001)               'HSNOW.0000008760'
(PID.TID 0000.0001)     ;
(PID.TID 0000.0001) uIceFile = /* Initial U-ice velocity File */
(PID.TID 0000.0001)               ''
(PID.TID 0000.0001)     ;
(PID.TID 0000.0001) vIceFile = /* Initial V-ice velocity File */
(PID.TID 0000.0001)               ''
(PID.TID 0000.0001)     ;
(PID.TID 0000.0001) SEAICEwriteState  = /* write sea ice state to file */
(PID.TID 0000.0001)                   T
(PID.TID 0000.0001)     ;
(PID.TID 0000.0001) SEAICE_monFreq  = /* monitor frequency */
(PID.TID 0000.0001)                 1.000000000000000E+00
(PID.TID 0000.0001)     ;
(PID.TID 0000.0001) SEAICE_dumpFreq   = /* dump frequency */
(PID.TID 0000.0001)                 0.000000000000000E+00
(PID.TID 0000.0001)     ;
(PID.TID 0000.0001) SEAICE_taveFreq   = /* time-averaging frequency */
(PID.TID 0000.0001)                 3.600000000000000E+04
(PID.TID 0000.0001)     ;
(PID.TID 0000.0001) SEAICE_mon_stdio  = /* write monitor to std-outp */
(PID.TID 0000.0001)                   T
(PID.TID 0000.0001)     ;
(PID.TID 0000.0001) SEAICE_dump_mdsio = /* write snap-shot   using MDSIO */
(PID.TID 0000.0001)                   T
(PID.TID 0000.0001)     ;
(PID.TID 0000.0001) SEAICE_tave_mdsio = /* write TimeAverage using MDSIO */
(PID.TID 0000.0001)                   T
(PID.TID 0000.0001)     ;
(PID.TID 0000.0001) SEAICE_mon_mnc    = /* write monitor to netcdf file */
(PID.TID 0000.0001)                   F
(PID.TID 0000.0001)     ;
(PID.TID 0000.0001) SEAICE_dump_mnc   = /* write snap-shot   using MNC */
(PID.TID 0000.0001)                   F
(PID.TID 0000.0001)     ;
(PID.TID 0000.0001) SEAICE_tave_mnc   = /* write TimeAverage using MNC */
(PID.TID 0000.0001)                   F
(PID.TID 0000.0001)     ;
(PID.TID 0000.0001) SItrNumInUse = /* number of tracers that are in use (<SItrMaxNum) */
(PID.TID 0000.0001)                       0
(PID.TID 0000.0001)     ;
(PID.TID 0000.0001) 
(PID.TID 0000.0001)    Seaice regularization numbers,   > START <
(PID.TID 0000.0001)    -----------------------------------------------
(PID.TID 0000.0001) SEAICE_EPS        = /* reduce derivative singularities */
(PID.TID 0000.0001)                 1.000000000000000E-10
(PID.TID 0000.0001)     ;
(PID.TID 0000.0001) SEAICE_EPS_SQ     = /* reduce derivative singularities */
(PID.TID 0000.0001)                 1.000000000000000E-20
(PID.TID 0000.0001)     ;
(PID.TID 0000.0001) SEAICE_area_reg   = /* reduce derivative singularities */
(PID.TID 0000.0001)                 1.000000000000000E-05
(PID.TID 0000.0001)     ;
(PID.TID 0000.0001) SEAICE_hice_reg   = /* reduce derivative singularities */
(PID.TID 0000.0001)                 5.000000000000000E-02
(PID.TID 0000.0001)     ;
(PID.TID 0000.0001) SEAICE_area_floor = /* reduce derivative singularities */
(PID.TID 0000.0001)                 1.000000000000000E-05
(PID.TID 0000.0001)     ;
(PID.TID 0000.0001) 
(PID.TID 0000.0001) // =======================================================
(PID.TID 0000.0001) // Seaice configuration (SEAICE_PARM01) >>> END <<<
(PID.TID 0000.0001) // =======================================================
(PID.TID 0000.0001) 
(PID.TID 0000.0001) ------------------------------------------------------------
(PID.TID 0000.0001) DIAGNOSTICS_SET_LEVELS: done
(PID.TID 0000.0001)  Total Nb of available Diagnostics: ndiagt=   308
(PID.TID 0000.0001)  write list of available Diagnostics to file: available_diagnostics.log
(PID.TID 0000.0001) SETDIAG: Allocate  1 x  1 Levels for Diagnostic #   190 EXFtaux
(PID.TID 0000.0001) SETDIAG: Allocate  1 x  1 Levels for Diagnostic #   191 EXFtauy
(PID.TID 0000.0001) SETDIAG: Allocate  1 x  1 Levels for Diagnostic #   189 EXFqnet
(PID.TID 0000.0001) SETDIAG: Allocate  1 x  1 Levels for Diagnostic #   200 EXFempmr
(PID.TID 0000.0001) SETDIAG: Allocate  1 x  1 Levels for Diagnostic #   184 EXFhl
(PID.TID 0000.0001) SETDIAG: Allocate  1 x  1 Levels for Diagnostic #   183 EXFhs
(PID.TID 0000.0001) SETDIAG: Allocate  1 x  1 Levels for Diagnostic #   186 EXFswnet
(PID.TID 0000.0001) SETDIAG: Allocate  1 x  1 Levels for Diagnostic #   185 EXFlwnet
(PID.TID 0000.0001) SETDIAG: Allocate  1 x  1 Levels for Diagnostic #   192 EXFuwind
(PID.TID 0000.0001) SETDIAG: Allocate  1 x  1 Levels for Diagnostic #   193 EXFvwind
(PID.TID 0000.0001) SETDIAG: Allocate  1 x  1 Levels for Diagnostic #   195 EXFatemp
(PID.TID 0000.0001) SETDIAG: Allocate  1 x  1 Levels for Diagnostic #   242 SIarea
(PID.TID 0000.0001) SETDIAG: Allocate  1 x  1 Levels for Diagnostic #   245 SIheff
(PID.TID 0000.0001) SETDIAG: Allocate  1 x  1 Levels for Diagnostic #   247 SIhsnow
(PID.TID 0000.0001) SETDIAG: Allocate  1 x  1 Levels for Diagnostic #   251 SIuice
(PID.TID 0000.0001) SETDIAG: Allocate  1 x  1 Levels for Diagnostic #   252 SIvice
(PID.TID 0000.0001) SETDIAG: Allocate  1 x  1 Levels for Diagnostic #    75 MXLDEPTH
(PID.TID 0000.0001) SETDIAG: Allocate  1 x  1 Levels for Diagnostic #   228 KPPhbl
(PID.TID 0000.0001) SETDIAG: Allocate 23 x  1 Levels for Diagnostic #   227 KPPghatK
(PID.TID 0000.0001)   space allocated for all diagnostics:      41 levels
(PID.TID 0000.0001)   set mate pointer for diag #   251  SIuice   , Parms: UU      M1 , mate:   252
(PID.TID 0000.0001)   set mate pointer for diag #   252  SIvice   , Parms: VV      M1 , mate:   251
(PID.TID 0000.0001) DIAGNOSTICS_SET_POINTERS: Set levels for Outp.Stream: diagsEXF
(PID.TID 0000.0001)  Levels:       1.
(PID.TID 0000.0001) DIAGNOSTICS_SET_POINTERS: Set levels for Outp.Stream: diagsSI
(PID.TID 0000.0001)  Levels:       1.
(PID.TID 0000.0001) DIAGNOSTICS_SET_POINTERS: Set levels for Outp.Stream: diagsKPP
(PID.TID 0000.0001)  Levels:       1.
(PID.TID 0000.0001) DIAGNOSTICS_SET_POINTERS: Set levels for Outp.Stream: KPPghatK
(PID.TID 0000.0001)  Levels:       1.   2.   3.   4.   5.   6.   7.   8.   9.  10.  11.  12.  13.  14.  15.  16.  17.  18.  19.  20.
(PID.TID 0000.0001)  Levels:      21.  22.  23.
(PID.TID 0000.0001) DIAGNOSTICS_SET_POINTERS: done
(PID.TID 0000.0001) ------------------------------------------------------------
(PID.TID 0000.0001) DIAGSTATS_SET_REGIONS: define no region
(PID.TID 0000.0001) ------------------------------------------------------------
(PID.TID 0000.0001)   space allocated for all stats-diags:       0 levels
(PID.TID 0000.0001) DIAGSTATS_SET_POINTERS: done
(PID.TID 0000.0001) ------------------------------------------------------------
(PID.TID 0000.0001) %MON fCori_max                    =   1.4210453727344E-04
(PID.TID 0000.0001) %MON fCori_min                    =   1.0666243053630E-04
(PID.TID 0000.0001) %MON fCori_mean                   =   1.2711058365303E-04
(PID.TID 0000.0001) %MON fCori_sd                     =   1.1031533875266E-05
(PID.TID 0000.0001) %MON fCoriG_max                   =   1.4151032568025E-04
(PID.TID 0000.0001) %MON fCoriG_min                   =   1.0491029349513E-04
(PID.TID 0000.0001) %MON fCoriG_mean                  =   1.2591168756569E-04
(PID.TID 0000.0001) %MON fCoriG_sd                    =   1.1383815633153E-05
(PID.TID 0000.0001) %MON fCoriCos_max                 =   9.9464325599212E-05
(PID.TID 0000.0001) %MON fCoriCos_min                 =   3.2807417471054E-05
(PID.TID 0000.0001) %MON fCoriCos_mean                =   6.7585896192312E-05
(PID.TID 0000.0001) %MON fCoriCos_sd                  =   2.0576140902612E-05
(PID.TID 0000.0001) INI_CG2D: CG2D normalisation factor =  1.6094939840939192E-04
(PID.TID 0000.0001) 
(PID.TID 0000.0001) // =======================================================
(PID.TID 0000.0001) // Model configuration
(PID.TID 0000.0001) // =======================================================
(PID.TID 0000.0001) //
(PID.TID 0000.0001) // "Physical" paramters ( PARM01 in namelist )
(PID.TID 0000.0001) //
(PID.TID 0000.0001) buoyancyRelation = /* Type of relation to get Buoyancy */
(PID.TID 0000.0001)               'OCEANIC'
(PID.TID 0000.0001)     ;
(PID.TID 0000.0001) fluidIsAir   =  /* fluid major constituent is Air */
(PID.TID 0000.0001)                   F
(PID.TID 0000.0001)     ;
(PID.TID 0000.0001) fluidIsWater =  /* fluid major constituent is Water */
(PID.TID 0000.0001)                   T
(PID.TID 0000.0001)     ;
(PID.TID 0000.0001) usingPCoords =  /* use p (or p*) vertical coordinate */
(PID.TID 0000.0001)                   F
(PID.TID 0000.0001)     ;
(PID.TID 0000.0001) usingZCoords =  /* use z (or z*) vertical coordinate */
(PID.TID 0000.0001)                   T
(PID.TID 0000.0001)     ;
(PID.TID 0000.0001) tRef =   /* Reference temperature profile ( oC or K ) */
(PID.TID 0000.0001)                 2.400000000000000E+01,      /* K =  1 */
(PID.TID 0000.0001)                 2.300000000000000E+01,      /* K =  2 */
(PID.TID 0000.0001)                 2.200000000000000E+01,      /* K =  3 */
(PID.TID 0000.0001)                 2.100000000000000E+01,      /* K =  4 */
(PID.TID 0000.0001)                 2.000000000000000E+01,      /* K =  5 */
(PID.TID 0000.0001)                 1.900000000000000E+01,      /* K =  6 */
(PID.TID 0000.0001)                 1.800000000000000E+01,      /* K =  7 */
(PID.TID 0000.0001)                 1.700000000000000E+01,      /* K =  8 */
(PID.TID 0000.0001)                 1.600000000000000E+01,      /* K =  9 */
(PID.TID 0000.0001)                 1.500000000000000E+01,      /* K = 10 */
(PID.TID 0000.0001)                 1.400000000000000E+01,      /* K = 11 */
(PID.TID 0000.0001)                 1.300000000000000E+01,      /* K = 12 */
(PID.TID 0000.0001)                 1.200000000000000E+01,      /* K = 13 */
(PID.TID 0000.0001)                 1.100000000000000E+01,      /* K = 14 */
(PID.TID 0000.0001)                 1.000000000000000E+01,      /* K = 15 */
(PID.TID 0000.0001)                 9.000000000000000E+00,      /* K = 16 */
(PID.TID 0000.0001)                 8.000000000000000E+00,      /* K = 17 */
(PID.TID 0000.0001)                 7.000000000000000E+00,      /* K = 18 */
(PID.TID 0000.0001)                 6.000000000000000E+00,      /* K = 19 */
(PID.TID 0000.0001)                 5.000000000000000E+00,      /* K = 20 */
(PID.TID 0000.0001)                 4.000000000000000E+00,      /* K = 21 */
(PID.TID 0000.0001)                 3.000000000000000E+00,      /* K = 22 */
(PID.TID 0000.0001)                 2.000000000000000E+00       /* K = 23 */
(PID.TID 0000.0001)     ;
(PID.TID 0000.0001) sRef =   /* Reference salinity profile ( psu ) */
(PID.TID 0000.0001)                 3.465000000000000E+01,      /* K =  1 */
(PID.TID 0000.0001)                 3.475000000000000E+01,      /* K =  2 */
(PID.TID 0000.0001)                 3.482000000000000E+01,      /* K =  3 */
(PID.TID 0000.0001)                 3.487000000000000E+01,      /* K =  4 */
(PID.TID 0000.0001)     2 @  3.490000000000000E+01,             /* K =  5:  6 */
(PID.TID 0000.0001)                 3.486000000000000E+01,      /* K =  7 */
(PID.TID 0000.0001)                 3.478000000000000E+01,      /* K =  8 */
(PID.TID 0000.0001)                 3.469000000000000E+01,      /* K =  9 */
(PID.TID 0000.0001)                 3.460000000000000E+01,      /* K = 10 */
(PID.TID 0000.0001)                 3.458000000000000E+01,      /* K = 11 */
(PID.TID 0000.0001)                 3.462000000000000E+01,      /* K = 12 */
(PID.TID 0000.0001)                 3.468000000000000E+01,      /* K = 13 */
(PID.TID 0000.0001)                 3.472000000000000E+01,      /* K = 14 */
(PID.TID 0000.0001)                 3.473000000000000E+01,      /* K = 15 */
(PID.TID 0000.0001)                 3.474000000000000E+01,      /* K = 16 */
(PID.TID 0000.0001)     2 @  3.473000000000000E+01,             /* K = 17: 18 */
(PID.TID 0000.0001)     2 @  3.472000000000000E+01,             /* K = 19: 20 */
(PID.TID 0000.0001)                 3.471000000000000E+01,      /* K = 21 */
(PID.TID 0000.0001)                 3.470000000000000E+01,      /* K = 22 */
(PID.TID 0000.0001)                 3.469000000000000E+01       /* K = 23 */
(PID.TID 0000.0001)     ;
(PID.TID 0000.0001) viscAh  =   /* Lateral eddy viscosity ( m^2/s ) */
(PID.TID 0000.0001)                 5.000000000000000E+04
(PID.TID 0000.0001)     ;
(PID.TID 0000.0001) viscAhMax = /* Maximum lateral eddy viscosity ( m^2/s ) */
(PID.TID 0000.0001)                 1.000000000000000E+21
(PID.TID 0000.0001)     ;
(PID.TID 0000.0001) viscAhGrid = /* Grid dependent lateral eddy viscosity ( non-dim. ) */
(PID.TID 0000.0001)                 0.000000000000000E+00
(PID.TID 0000.0001)     ;
(PID.TID 0000.0001) useFullLeith = /* Use Full Form of Leith Viscosity on/off flag*/
(PID.TID 0000.0001)                   F
(PID.TID 0000.0001)     ;
(PID.TID 0000.0001) useStrainTensionVisc= /* Use StrainTension Form of Viscous Operator flag*/
(PID.TID 0000.0001)                   F
(PID.TID 0000.0001)     ;
(PID.TID 0000.0001) useAreaViscLength = /* Use area for visc length instead of geom. mean*/
(PID.TID 0000.0001)                   F
(PID.TID 0000.0001)     ;
(PID.TID 0000.0001) viscC2leith = /* Leith harmonic visc. factor (on grad(vort),non-dim.) */
(PID.TID 0000.0001)                 0.000000000000000E+00
(PID.TID 0000.0001)     ;
(PID.TID 0000.0001) viscC2leithD = /* Leith harmonic viscosity factor (on grad(div),non-dim.)*/
(PID.TID 0000.0001)                 0.000000000000000E+00
(PID.TID 0000.0001)     ;
(PID.TID 0000.0001) viscC2smag = /* Smagorinsky harmonic viscosity factor (non-dim.) */
(PID.TID 0000.0001)                 0.000000000000000E+00
(PID.TID 0000.0001)     ;
(PID.TID 0000.0001) viscA4  =   /* Lateral biharmonic viscosity ( m^4/s ) */
(PID.TID 0000.0001)                 0.000000000000000E+00
(PID.TID 0000.0001)     ;
(PID.TID 0000.0001) viscA4Max = /* Maximum biharmonic viscosity ( m^2/s ) */
(PID.TID 0000.0001)                 1.000000000000000E+21
(PID.TID 0000.0001)     ;
(PID.TID 0000.0001) viscA4Grid = /* Grid dependent biharmonic viscosity ( non-dim. ) */
(PID.TID 0000.0001)                 0.000000000000000E+00
(PID.TID 0000.0001)     ;
(PID.TID 0000.0001) viscC4leith = /* Leith biharm viscosity factor (on grad(vort), non-dim.)*/
(PID.TID 0000.0001)                 0.000000000000000E+00
(PID.TID 0000.0001)     ;
(PID.TID 0000.0001) viscC4leithD = /* Leith biharm viscosity factor (on grad(div), non-dim.) */
(PID.TID 0000.0001)                 0.000000000000000E+00
(PID.TID 0000.0001)     ;
(PID.TID 0000.0001) viscC4Smag = /* Smagorinsky biharm viscosity factor (non-dim) */
(PID.TID 0000.0001)                 0.000000000000000E+00
(PID.TID 0000.0001)     ;
(PID.TID 0000.0001) no_slip_sides =  /* Viscous BCs: No-slip sides */
(PID.TID 0000.0001)                   F
(PID.TID 0000.0001)     ;
(PID.TID 0000.0001) sideDragFactor = /* side-drag scaling factor (non-dim) */
(PID.TID 0000.0001)                 2.000000000000000E+00
(PID.TID 0000.0001)     ;
(PID.TID 0000.0001) viscArNr = /* vertical profile of vertical viscosity ( m^2/s )*/
(PID.TID 0000.0001)    23 @  1.930000000000000E-05              /* K =  1: 23 */
(PID.TID 0000.0001)     ;
(PID.TID 0000.0001) no_slip_bottom =  /* Viscous BCs: No-slip bottom */
(PID.TID 0000.0001)                   T
(PID.TID 0000.0001)     ;
(PID.TID 0000.0001) bottomDragLinear = /* linear bottom-drag coefficient ( m/s ) */
(PID.TID 0000.0001)                 0.000000000000000E+00
(PID.TID 0000.0001)     ;
(PID.TID 0000.0001) bottomDragQuadratic = /* quadratic bottom-drag coefficient (-) */
(PID.TID 0000.0001)                 0.000000000000000E+00
(PID.TID 0000.0001)     ;
(PID.TID 0000.0001) diffKhT =   /* Laplacian diffusion of heat laterally ( m^2/s ) */
(PID.TID 0000.0001)                 0.000000000000000E+00
(PID.TID 0000.0001)     ;
(PID.TID 0000.0001) diffK4T =   /* Biharmonic diffusion of heat laterally ( m^4/s ) */
(PID.TID 0000.0001)                 0.000000000000000E+00
(PID.TID 0000.0001)     ;
(PID.TID 0000.0001) diffKhS =   /* Laplacian diffusion of salt laterally ( m^2/s ) */
(PID.TID 0000.0001)                 0.000000000000000E+00
(PID.TID 0000.0001)     ;
(PID.TID 0000.0001) diffK4S =   /* Biharmonic diffusion of salt laterally ( m^4/s ) */
(PID.TID 0000.0001)                 0.000000000000000E+00
(PID.TID 0000.0001)     ;
(PID.TID 0000.0001) diffKrNrT = /* vertical profile of vertical diffusion of Temp ( m^2/s )*/
(PID.TID 0000.0001)    23 @  1.460000000000000E-05              /* K =  1: 23 */
(PID.TID 0000.0001)     ;
(PID.TID 0000.0001) diffKrNrS = /* vertical profile of vertical diffusion of Salt ( m^2/s )*/
(PID.TID 0000.0001)    23 @  1.460000000000000E-05              /* K =  1: 23 */
(PID.TID 0000.0001)     ;
(PID.TID 0000.0001) diffKrBL79surf = /* Surface diffusion for Bryan and Lewis 79 ( m^2/s ) */
(PID.TID 0000.0001)                 0.000000000000000E+00
(PID.TID 0000.0001)     ;
(PID.TID 0000.0001) diffKrBL79deep = /* Deep diffusion for Bryan and Lewis 1979 ( m^2/s ) */
(PID.TID 0000.0001)                 0.000000000000000E+00
(PID.TID 0000.0001)     ;
(PID.TID 0000.0001) diffKrBL79scl = /* Depth scale for Bryan and Lewis 1979 ( m ) */
(PID.TID 0000.0001)                 2.000000000000000E+02
(PID.TID 0000.0001)     ;
(PID.TID 0000.0001) diffKrBL79Ho = /* Turning depth for Bryan and Lewis 1979 ( m ) */
(PID.TID 0000.0001)                -2.000000000000000E+03
(PID.TID 0000.0001)     ;
(PID.TID 0000.0001) ivdc_kappa = /* Implicit Vertical Diffusivity for Convection ( m^2/s) */
(PID.TID 0000.0001)                 0.000000000000000E+00
(PID.TID 0000.0001)     ;
(PID.TID 0000.0001) hMixCriteria=  /* Criteria for mixed-layer diagnostic */
(PID.TID 0000.0001)                -8.000000000000000E-01
(PID.TID 0000.0001)     ;
(PID.TID 0000.0001) dRhoSmall =  /* Parameter for mixed-layer diagnostic */
(PID.TID 0000.0001)                 1.000000000000000E-06
(PID.TID 0000.0001)     ;
(PID.TID 0000.0001) hMixSmooth=  /* Smoothing parameter for mixed-layer diagnostic */
(PID.TID 0000.0001)                 0.000000000000000E+00
(PID.TID 0000.0001)     ;
(PID.TID 0000.0001) eosType =  /* Type of Equation of State */
(PID.TID 0000.0001)               'JMD95Z'
(PID.TID 0000.0001)     ;
(PID.TID 0000.0001) celsius2K = /* 0 degree Celsius converted to Kelvin ( K ) */
(PID.TID 0000.0001)                 2.731600000000000E+02
(PID.TID 0000.0001)     ;
(PID.TID 0000.0001) rhoConst  = /* Reference density (Boussinesq)  ( kg/m^3 ) */
(PID.TID 0000.0001)                 1.027000000000000E+03
(PID.TID 0000.0001)     ;
(PID.TID 0000.0001) rhoFacC = /* normalized Reference density @ cell-Center (-) */
(PID.TID 0000.0001)    23 @  1.000000000000000E+00              /* K =  1: 23 */
(PID.TID 0000.0001)     ;
(PID.TID 0000.0001) rhoFacF = /* normalized Reference density @ W-Interface (-) */
(PID.TID 0000.0001)    24 @  1.000000000000000E+00              /* K =  1: 24 */
(PID.TID 0000.0001)     ;
(PID.TID 0000.0001) rhoConstFresh = /* Fresh-water reference density ( kg/m^3 ) */
(PID.TID 0000.0001)                 9.998000000000000E+02
(PID.TID 0000.0001)     ;
(PID.TID 0000.0001) gravity =   /* Gravitational acceleration ( m/s^2 ) */
(PID.TID 0000.0001)                 9.815600000000000E+00
(PID.TID 0000.0001)     ;
(PID.TID 0000.0001) gBaro =   /* Barotropic gravity ( m/s^2 ) */
(PID.TID 0000.0001)                 9.815600000000000E+00
(PID.TID 0000.0001)     ;
(PID.TID 0000.0001) rotationPeriod =   /* Rotation Period ( s ) */
(PID.TID 0000.0001)                 8.616400000000000E+04
(PID.TID 0000.0001)     ;
(PID.TID 0000.0001) omega =   /* Angular velocity ( rad/s ) */
(PID.TID 0000.0001)                 7.292123516990375E-05
(PID.TID 0000.0001)     ;
(PID.TID 0000.0001) f0 =   /* Reference coriolis parameter ( 1/s ) */
(PID.TID 0000.0001)                 1.000000000000000E-04
(PID.TID 0000.0001)     ;
(PID.TID 0000.0001) beta =   /* Beta ( 1/(m.s) ) */
(PID.TID 0000.0001)                 9.999999999999999E-12
(PID.TID 0000.0001)     ;
(PID.TID 0000.0001) fPrime =   /* Second coriolis parameter ( 1/s ) */
(PID.TID 0000.0001)                 0.000000000000000E+00
(PID.TID 0000.0001)     ;
(PID.TID 0000.0001) rigidLid =   /* Rigid lid on/off flag */
(PID.TID 0000.0001)                   F
(PID.TID 0000.0001)     ;
(PID.TID 0000.0001) implicitFreeSurface =   /* Implicit free surface on/off flag */
(PID.TID 0000.0001)                   T
(PID.TID 0000.0001)     ;
(PID.TID 0000.0001) freeSurfFac =   /* Implicit free surface factor */
(PID.TID 0000.0001)                 1.000000000000000E+00
(PID.TID 0000.0001)     ;
(PID.TID 0000.0001) implicSurfPress =  /* Surface Pressure implicit factor (0-1)*/
(PID.TID 0000.0001)                 1.000000000000000E+00
(PID.TID 0000.0001)     ;
(PID.TID 0000.0001) implicDiv2Dflow =  /* Barot. Flow Div. implicit factor (0-1)*/
(PID.TID 0000.0001)                 1.000000000000000E+00
(PID.TID 0000.0001)     ;
(PID.TID 0000.0001) uniformLin_PhiSurf = /* use uniform Bo_surf on/off flag*/
(PID.TID 0000.0001)                   T
(PID.TID 0000.0001)     ;
(PID.TID 0000.0001) uniformFreeSurfLev = /* free-surface level-index is uniform */
(PID.TID 0000.0001)                   T
(PID.TID 0000.0001)     ;
(PID.TID 0000.0001) hFacMin =   /* minimum partial cell factor (hFac) */
(PID.TID 0000.0001)                 1.000000000000000E+00
(PID.TID 0000.0001)     ;
(PID.TID 0000.0001) hFacMinDr = /* minimum partial cell thickness ( m) */
(PID.TID 0000.0001)                 1.000000000000000E+00
(PID.TID 0000.0001)     ;
(PID.TID 0000.0001) exactConserv =  /* Exact Volume Conservation on/off flag*/
(PID.TID 0000.0001)                   F
(PID.TID 0000.0001)     ;
(PID.TID 0000.0001) linFSConserveTr = /* Tracer correction for Lin Free Surface on/off flag*/
(PID.TID 0000.0001)                   F
(PID.TID 0000.0001)     ;
(PID.TID 0000.0001) nonlinFreeSurf = /* Non-linear Free Surf. options (-1,0,1,2,3)*/
(PID.TID 0000.0001)                       0
(PID.TID 0000.0001)      -1,0= Off ; 1,2,3= On, 2=+rescale gU,gV, 3=+update cg2d solv.
(PID.TID 0000.0001)     ;
(PID.TID 0000.0001) hFacInf =   /* lower threshold for hFac (nonlinFreeSurf only)*/
(PID.TID 0000.0001)                 2.000000000000000E-01
(PID.TID 0000.0001)     ;
(PID.TID 0000.0001) hFacSup =   /* upper threshold for hFac (nonlinFreeSurf only)*/
(PID.TID 0000.0001)                 2.000000000000000E+00
(PID.TID 0000.0001)     ;
(PID.TID 0000.0001) select_rStar = /* r* Vertical coord. options (=0 r coord.; >0 uses r*)*/
(PID.TID 0000.0001)                       0
(PID.TID 0000.0001)     ;
(PID.TID 0000.0001) useRealFreshWaterFlux = /* Real Fresh Water Flux on/off flag*/
(PID.TID 0000.0001)                   F
(PID.TID 0000.0001)     ;
(PID.TID 0000.0001) temp_EvPrRn = /* Temp. of Evap/Prec/R (UNSET=use local T)(oC)*/
(PID.TID 0000.0001)                 1.234567000000000E+05
(PID.TID 0000.0001)     ;
(PID.TID 0000.0001) salt_EvPrRn = /* Salin. of Evap/Prec/R (UNSET=use local S)(psu)*/
(PID.TID 0000.0001)                 0.000000000000000E+00
(PID.TID 0000.0001)     ;
(PID.TID 0000.0001) selectAddFluid = /* option for mass source/sink of fluid (=0: off) */
(PID.TID 0000.0001)                       0
(PID.TID 0000.0001)     ;
(PID.TID 0000.0001) temp_addMass = /* Temp. of addMass array (UNSET=use local T)(oC)*/
(PID.TID 0000.0001)                 1.234567000000000E+05
(PID.TID 0000.0001)     ;
(PID.TID 0000.0001) salt_addMass = /* Salin. of addMass array (UNSET=use local S)(psu)*/
(PID.TID 0000.0001)                 0.000000000000000E+00
(PID.TID 0000.0001)     ;
(PID.TID 0000.0001) convertFW2Salt = /* convert F.W. Flux to Salt Flux (-1=use local S)(psu)*/
(PID.TID 0000.0001)                 3.500000000000000E+01
(PID.TID 0000.0001)     ;
(PID.TID 0000.0001) use3Dsolver = /* use 3-D pressure solver on/off flag */
(PID.TID 0000.0001)                   F
(PID.TID 0000.0001)     ;
(PID.TID 0000.0001) nonHydrostatic =  /* Non-Hydrostatic on/off flag */
(PID.TID 0000.0001)                   F
(PID.TID 0000.0001)     ;
(PID.TID 0000.0001) nh_Am2 = /* Non-Hydrostatic terms scaling factor */
(PID.TID 0000.0001)                 1.000000000000000E+00
(PID.TID 0000.0001)     ;
(PID.TID 0000.0001) implicitNHPress = /* Non-Hyd Pressure implicit factor (0-1)*/
(PID.TID 0000.0001)                 1.000000000000000E+00
(PID.TID 0000.0001)     ;
(PID.TID 0000.0001) selectNHfreeSurf = /* Non-Hyd (free-)Surface option */
(PID.TID 0000.0001)                       0
(PID.TID 0000.0001)     ;
(PID.TID 0000.0001) quasiHydrostatic = /* Quasi-Hydrostatic on/off flag */
(PID.TID 0000.0001)                   F
(PID.TID 0000.0001)     ;
(PID.TID 0000.0001) calc_wVelocity = /* vertical velocity calculation on/off flag */
(PID.TID 0000.0001)                   T
(PID.TID 0000.0001)     ;
(PID.TID 0000.0001) momStepping =  /* Momentum equation on/off flag */
(PID.TID 0000.0001)                   T
(PID.TID 0000.0001)     ;
(PID.TID 0000.0001) vectorInvariantMomentum= /* Vector-Invariant Momentum on/off */
(PID.TID 0000.0001)                   F
(PID.TID 0000.0001)     ;
(PID.TID 0000.0001) momAdvection =  /* Momentum advection on/off flag */
(PID.TID 0000.0001)                   T
(PID.TID 0000.0001)     ;
(PID.TID 0000.0001) momViscosity =  /* Momentum viscosity on/off flag */
(PID.TID 0000.0001)                   T
(PID.TID 0000.0001)     ;
(PID.TID 0000.0001) momImplVertAdv= /* Momentum implicit vert. advection on/off*/
(PID.TID 0000.0001)                   F
(PID.TID 0000.0001)     ;
(PID.TID 0000.0001) implicitViscosity = /* Implicit viscosity on/off flag */
(PID.TID 0000.0001)                   T
(PID.TID 0000.0001)     ;
(PID.TID 0000.0001) metricTerms =  /* metric-Terms on/off flag */
(PID.TID 0000.0001)                   T
(PID.TID 0000.0001)     ;
(PID.TID 0000.0001) useNHMTerms = /* Non-Hydrostatic Metric-Terms on/off */
(PID.TID 0000.0001)                   F
(PID.TID 0000.0001)     ;
(PID.TID 0000.0001) selectCoriMap = /* Coriolis Map options (0,1,2,3)*/
(PID.TID 0000.0001)                       2
(PID.TID 0000.0001)     0= f-Plane ; 1= Beta-Plane ; 2= Spherical ; 3= read from file
(PID.TID 0000.0001)     ;
(PID.TID 0000.0001) use3dCoriolis = /* 3-D Coriolis on/off flag */
(PID.TID 0000.0001)                   F
(PID.TID 0000.0001)     ;
(PID.TID 0000.0001) useCoriolis =  /* Coriolis on/off flag */
(PID.TID 0000.0001)                   T
(PID.TID 0000.0001)     ;
(PID.TID 0000.0001) useCDscheme =  /* CD scheme on/off flag */
(PID.TID 0000.0001)                   T
(PID.TID 0000.0001)     ;
(PID.TID 0000.0001) useEnergyConservingCoriolis= /* Flx-Form Coriolis scheme flag */
(PID.TID 0000.0001)                   F
(PID.TID 0000.0001)     ;
(PID.TID 0000.0001) useJamartWetPoints= /* Coriolis WetPoints method flag */
(PID.TID 0000.0001)                   F
(PID.TID 0000.0001)     ;
(PID.TID 0000.0001) useJamartMomAdv= /* V.I Non-linear terms Jamart flag */
(PID.TID 0000.0001)                   F
(PID.TID 0000.0001)     ;
(PID.TID 0000.0001) useAbsVorticity= /* V.I Works with f+zeta in Coriolis */
(PID.TID 0000.0001)                   F
(PID.TID 0000.0001)     ;
(PID.TID 0000.0001) selectVortScheme= /* V.I Scheme selector for Vorticity-Term */
(PID.TID 0000.0001)               123456789
(PID.TID 0000.0001)    = 0 : enstrophy (Shallow-Water Eq.) conserving scheme by Sadourny, JAS 75
(PID.TID 0000.0001)    = 1 : same as 0 with modified hFac
(PID.TID 0000.0001)    = 2 : energy conserving scheme (used by Sadourny in JAS 75 paper)
(PID.TID 0000.0001)    = 3 : energy (general) and enstrophy (2D, nonDiv.) conserving scheme
(PID.TID 0000.0001)          from Sadourny (Burridge & Haseler, ECMWF Rep.4, 1977)
(PID.TID 0000.0001)     ;
(PID.TID 0000.0001) upwindVorticity= /* V.I Upwind bias vorticity flag */
(PID.TID 0000.0001)                   F
(PID.TID 0000.0001)     ;
(PID.TID 0000.0001) highOrderVorticity= /* V.I High order vort. advect. flag */
(PID.TID 0000.0001)                   F
(PID.TID 0000.0001)     ;
(PID.TID 0000.0001) upwindShear= /* V.I Upwind vertical Shear advection flag */
(PID.TID 0000.0001)                   F
(PID.TID 0000.0001)     ;
(PID.TID 0000.0001) selectKEscheme= /* V.I Kinetic Energy scheme selector */
(PID.TID 0000.0001)                       0
(PID.TID 0000.0001)     ;
(PID.TID 0000.0001) momForcing =  /* Momentum forcing on/off flag */
(PID.TID 0000.0001)                   T
(PID.TID 0000.0001)     ;
(PID.TID 0000.0001) momPressureForcing =  /* Momentum pressure term on/off flag */
(PID.TID 0000.0001)                   T
(PID.TID 0000.0001)     ;
(PID.TID 0000.0001) implicitIntGravWave= /* Implicit Internal Gravity Wave flag */
(PID.TID 0000.0001)                   F
(PID.TID 0000.0001)     ;
(PID.TID 0000.0001) staggerTimeStep =    /* Stagger time stepping on/off flag */
(PID.TID 0000.0001)                   F
(PID.TID 0000.0001)     ;
(PID.TID 0000.0001) doResetHFactors = /* reset thickness factors @ each time-step */
(PID.TID 0000.0001)                   F
(PID.TID 0000.0001)     ;
(PID.TID 0000.0001) multiDimAdvection =  /* enable/disable Multi-Dim Advection */
(PID.TID 0000.0001)                   T
(PID.TID 0000.0001)     ;
(PID.TID 0000.0001) useMultiDimAdvec =   /* Multi-Dim Advection is/is-not used */
(PID.TID 0000.0001)                   F
(PID.TID 0000.0001)     ;
(PID.TID 0000.0001) implicitDiffusion = /* Implicit Diffusion on/off flag */
(PID.TID 0000.0001)                   T
(PID.TID 0000.0001)     ;
(PID.TID 0000.0001) tempStepping =  /* Temperature equation on/off flag */
(PID.TID 0000.0001)                   T
(PID.TID 0000.0001)     ;
(PID.TID 0000.0001) tempAdvection = /* Temperature advection on/off flag */
(PID.TID 0000.0001)                   T
(PID.TID 0000.0001)     ;
(PID.TID 0000.0001) tempImplVertAdv = /* Temp. implicit vert. advection on/off */
(PID.TID 0000.0001)                   F
(PID.TID 0000.0001)     ;
(PID.TID 0000.0001) tempForcing  =  /* Temperature forcing on/off flag */
(PID.TID 0000.0001)                   T
(PID.TID 0000.0001)     ;
(PID.TID 0000.0001) doThetaClimRelax = /* apply SST relaxation on/off flag */
(PID.TID 0000.0001)                   F
(PID.TID 0000.0001)     ;
(PID.TID 0000.0001) tempIsActiveTr = /* Temp. is a dynamically Active Tracer */
(PID.TID 0000.0001)                   T
(PID.TID 0000.0001)     ;
(PID.TID 0000.0001) saltStepping =  /* Salinity equation on/off flag */
(PID.TID 0000.0001)                   T
(PID.TID 0000.0001)     ;
(PID.TID 0000.0001) saltAdvection = /* Salinity advection on/off flag */
(PID.TID 0000.0001)                   T
(PID.TID 0000.0001)     ;
(PID.TID 0000.0001) saltImplVertAdv = /* Sali. implicit vert. advection on/off */
(PID.TID 0000.0001)                   F
(PID.TID 0000.0001)     ;
(PID.TID 0000.0001) saltForcing  =  /* Salinity forcing on/off flag */
(PID.TID 0000.0001)                   T
(PID.TID 0000.0001)     ;
(PID.TID 0000.0001) doSaltClimRelax = /* apply SSS relaxation on/off flag */
(PID.TID 0000.0001)                   T
(PID.TID 0000.0001)     ;
(PID.TID 0000.0001) saltIsActiveTr = /* Salt  is a dynamically Active Tracer */
(PID.TID 0000.0001)                   T
(PID.TID 0000.0001)     ;
(PID.TID 0000.0001)  readBinaryPrec = /* Precision used for reading binary files */
(PID.TID 0000.0001)                      32
(PID.TID 0000.0001)     ;
(PID.TID 0000.0001) writeBinaryPrec = /* Precision used for writing binary files */
(PID.TID 0000.0001)                      32
(PID.TID 0000.0001)     ;
(PID.TID 0000.0001)  globalFiles = /* write "global" (=not per tile) files */
(PID.TID 0000.0001)                   F
(PID.TID 0000.0001)     ;
(PID.TID 0000.0001)  useSingleCpuIO = /* only master MPI process does I/O */
(PID.TID 0000.0001)                   T
(PID.TID 0000.0001)     ;
(PID.TID 0000.0001) /* debLev[*]  : level of debug & auxiliary message printing */
(PID.TID 0000.0001) debLevZero =  0 ; /* level of disabled aux. msg printing */
(PID.TID 0000.0001)    debLevA =  1 ; /* level of minimum  aux. msg printing */
(PID.TID 0000.0001)    debLevB =  2 ; /* level of low aux. print (report read-file opening)*/
(PID.TID 0000.0001)    debLevC =  3 ; /* level of moderate debug prt (most pkgs debug msg) */
(PID.TID 0000.0001)    debLevD =  4 ; /* level of enhanced debug prt (add DEBUG_STATS prt) */
(PID.TID 0000.0001)    debLevE =  5 ; /* level of extensive debug printing */
(PID.TID 0000.0001) debugLevel =  /* select debug printing level */
(PID.TID 0000.0001)                       2
(PID.TID 0000.0001)     ;
(PID.TID 0000.0001) //
(PID.TID 0000.0001) // Elliptic solver(s) paramters ( PARM02 in namelist )
(PID.TID 0000.0001) //
(PID.TID 0000.0001) cg2dMaxIters =   /* Upper limit on 2d con. grad iterations  */
(PID.TID 0000.0001)                     500
(PID.TID 0000.0001)     ;
(PID.TID 0000.0001) cg2dChkResFreq =   /* 2d con. grad convergence test frequency */
(PID.TID 0000.0001)                       1
(PID.TID 0000.0001)     ;
(PID.TID 0000.0001) cg2dUseMinResSol= /* use cg2d last-iter(=0) / min-resid.(=1) solution */
(PID.TID 0000.0001)                       0
(PID.TID 0000.0001)     ;
(PID.TID 0000.0001) cg2dTargetResidual =   /* 2d con. grad target residual  */
(PID.TID 0000.0001)                 1.000000000000000E-12
(PID.TID 0000.0001)     ;
(PID.TID 0000.0001) cg2dTargetResWunit =   /* CG2d target residual [W units] */
(PID.TID 0000.0001)                -1.000000000000000E+00
(PID.TID 0000.0001)     ;
(PID.TID 0000.0001) cg2dPreCondFreq =   /* Freq. for updating cg2d preconditioner */
(PID.TID 0000.0001)                       1
(PID.TID 0000.0001)     ;
(PID.TID 0000.0001) useSRCGSolver =  /* use single reduction CG solver(s) */
(PID.TID 0000.0001)                   F
(PID.TID 0000.0001)     ;
(PID.TID 0000.0001) printResidualFreq = /* Freq. for printing CG residual */
(PID.TID 0000.0001)                       0
(PID.TID 0000.0001)     ;
(PID.TID 0000.0001) //
(PID.TID 0000.0001) // Time stepping paramters ( PARM03 in namelist )
(PID.TID 0000.0001) //
(PID.TID 0000.0001) deltaTMom =   /* Momentum equation timestep ( s ) */
(PID.TID 0000.0001)                 3.600000000000000E+03
(PID.TID 0000.0001)     ;
(PID.TID 0000.0001) deltaTFreeSurf = /* FreeSurface equation timestep ( s ) */
(PID.TID 0000.0001)                 3.600000000000000E+03
(PID.TID 0000.0001)     ;
(PID.TID 0000.0001) dTtracerLev =  /* Tracer equation timestep ( s ) */
(PID.TID 0000.0001)    23 @  3.600000000000000E+03              /* K =  1: 23 */
(PID.TID 0000.0001)     ;
(PID.TID 0000.0001) deltaTClock  =   /* Model clock timestep ( s ) */
(PID.TID 0000.0001)                 3.600000000000000E+03
(PID.TID 0000.0001)     ;
(PID.TID 0000.0001) cAdjFreq =   /* Convective adjustment interval ( s ) */
(PID.TID 0000.0001)                 0.000000000000000E+00
(PID.TID 0000.0001)     ;
(PID.TID 0000.0001) momForcingOutAB = /* =1: take Momentum Forcing out of Adams-Bash. stepping */
(PID.TID 0000.0001)                       1
(PID.TID 0000.0001)     ;
(PID.TID 0000.0001) tracForcingOutAB = /* =1: take T,S,pTr Forcing out of Adams-Bash. stepping */
(PID.TID 0000.0001)                       1
(PID.TID 0000.0001)     ;
(PID.TID 0000.0001) momDissip_In_AB = /* put Dissipation Tendency in Adams-Bash. stepping */
(PID.TID 0000.0001)                   T
(PID.TID 0000.0001)     ;
(PID.TID 0000.0001) doAB_onGtGs = /* apply AB on Tendencies (rather than on T,S)*/
(PID.TID 0000.0001)                   T
(PID.TID 0000.0001)     ;
(PID.TID 0000.0001) abEps =   /* Adams-Bashforth-2 stabilizing weight */
(PID.TID 0000.0001)                 1.000000000000000E-01
(PID.TID 0000.0001)     ;
(PID.TID 0000.0001) tauCD =   /* CD coupling time-scale ( s ) */
(PID.TID 0000.0001)                 1.728000000000000E+05
(PID.TID 0000.0001)     ;
(PID.TID 0000.0001) rCD =   /* Normalised CD coupling parameter */
(PID.TID 0000.0001)                 9.791666666666666E-01
(PID.TID 0000.0001)     ;
(PID.TID 0000.0001) epsAB_CD = /* AB-2 stabilizing weight for CD-scheme*/
(PID.TID 0000.0001)                 1.000000000000000E-01
(PID.TID 0000.0001)     ;
(PID.TID 0000.0001) pickupStrictlyMatch= /* stop if pickup do not strictly match */
(PID.TID 0000.0001)                   T
(PID.TID 0000.0001)     ;
(PID.TID 0000.0001) nIter0   =   /* Run starting timestep number */
(PID.TID 0000.0001)                       0
(PID.TID 0000.0001)     ;
(PID.TID 0000.0001) nTimeSteps = /* Number of timesteps */
(PID.TID 0000.0001)                      10
(PID.TID 0000.0001)     ;
(PID.TID 0000.0001) nEndIter =   /* Run ending timestep number */
(PID.TID 0000.0001)                      10
(PID.TID 0000.0001)     ;
(PID.TID 0000.0001) baseTime =   /* Model base time ( s ) */
(PID.TID 0000.0001)                 0.000000000000000E+00
(PID.TID 0000.0001)     ;
(PID.TID 0000.0001) startTime =  /* Run start time ( s ) */
(PID.TID 0000.0001)                 0.000000000000000E+00
(PID.TID 0000.0001)     ;
(PID.TID 0000.0001) endTime  =   /* Integration ending time ( s ) */
(PID.TID 0000.0001)                 3.600000000000000E+04
(PID.TID 0000.0001)     ;
(PID.TID 0000.0001) pChkPtFreq = /* Permanent restart/pickup file interval ( s ) */
(PID.TID 0000.0001)                 3.600000000000000E+04
(PID.TID 0000.0001)     ;
(PID.TID 0000.0001) chkPtFreq  = /* Rolling restart/pickup file interval ( s ) */
(PID.TID 0000.0001)                 0.000000000000000E+00
(PID.TID 0000.0001)     ;
(PID.TID 0000.0001) pickup_write_mdsio =   /* Model IO flag. */
(PID.TID 0000.0001)                   T
(PID.TID 0000.0001)     ;
(PID.TID 0000.0001) pickup_read_mdsio =   /* Model IO flag. */
(PID.TID 0000.0001)                   T
(PID.TID 0000.0001)     ;
(PID.TID 0000.0001) pickup_write_mnc =   /* Model IO flag. */
(PID.TID 0000.0001)                   F
(PID.TID 0000.0001)     ;
(PID.TID 0000.0001) pickup_read_mnc =   /* Model IO flag. */
(PID.TID 0000.0001)                   F
(PID.TID 0000.0001)     ;
(PID.TID 0000.0001) pickup_write_immed =   /* Model IO flag. */
(PID.TID 0000.0001)                   F
(PID.TID 0000.0001)     ;
(PID.TID 0000.0001) writePickupAtEnd =   /* Model IO flag. */
(PID.TID 0000.0001)                   T
(PID.TID 0000.0001)     ;
(PID.TID 0000.0001) dumpFreq =   /* Model state write out interval ( s ). */
(PID.TID 0000.0001)                 0.000000000000000E+00
(PID.TID 0000.0001)     ;
(PID.TID 0000.0001) dumpInitAndLast= /* write out Initial & Last iter. model state */
(PID.TID 0000.0001)                   T
(PID.TID 0000.0001)     ;
(PID.TID 0000.0001) snapshot_mdsio =   /* Model IO flag. */
(PID.TID 0000.0001)                   T
(PID.TID 0000.0001)     ;
(PID.TID 0000.0001) snapshot_mnc =   /* Model IO flag. */
(PID.TID 0000.0001)                   F
(PID.TID 0000.0001)     ;
(PID.TID 0000.0001) monitorFreq =   /* Monitor output interval ( s ). */
(PID.TID 0000.0001)                 1.000000000000000E+00
(PID.TID 0000.0001)     ;
(PID.TID 0000.0001) monitorSelect = /* select group of variables to monitor */
(PID.TID 0000.0001)                       3
(PID.TID 0000.0001)     ;
(PID.TID 0000.0001) monitor_stdio =   /* Model IO flag. */
(PID.TID 0000.0001)                   T
(PID.TID 0000.0001)     ;
(PID.TID 0000.0001) monitor_mnc =   /* Model IO flag. */
(PID.TID 0000.0001)                   F
(PID.TID 0000.0001)     ;
(PID.TID 0000.0001) externForcingPeriod =   /* forcing period (s) */
(PID.TID 0000.0001)                 0.000000000000000E+00
(PID.TID 0000.0001)     ;
(PID.TID 0000.0001) externForcingCycle =   /* period of the cyle (s). */
(PID.TID 0000.0001)                 0.000000000000000E+00
(PID.TID 0000.0001)     ;
(PID.TID 0000.0001) tauThetaClimRelax =   /* relaxation time scale (s) */
(PID.TID 0000.0001)                 0.000000000000000E+00
(PID.TID 0000.0001)     ;
(PID.TID 0000.0001) tauSaltClimRelax =   /* relaxation time scale (s) */
(PID.TID 0000.0001)                 4.142330000000000E+06
(PID.TID 0000.0001)     ;
(PID.TID 0000.0001) latBandClimRelax =   /* max. Lat. where relaxation */
(PID.TID 0000.0001)                 1.800000000000000E+02
(PID.TID 0000.0001)     ;
(PID.TID 0000.0001) //
(PID.TID 0000.0001) // Gridding paramters ( PARM04 in namelist )
(PID.TID 0000.0001) //
(PID.TID 0000.0001) usingCartesianGrid = /* Cartesian coordinates flag ( True/False ) */
(PID.TID 0000.0001)                   F
(PID.TID 0000.0001)     ;
(PID.TID 0000.0001) usingCylindricalGrid = /* Cylindrical coordinates flag ( True/False ) */
(PID.TID 0000.0001)                   F
(PID.TID 0000.0001)     ;
(PID.TID 0000.0001) usingSphericalPolarGrid = /* Spherical coordinates flag ( True/False ) */
(PID.TID 0000.0001)                   T
(PID.TID 0000.0001)     ;
(PID.TID 0000.0001) usingCurvilinearGrid = /* Curvilinear coordinates flag ( True/False ) */
(PID.TID 0000.0001)                   F
(PID.TID 0000.0001)     ;
(PID.TID 0000.0001) selectSigmaCoord = /* Hybrid-Sigma Vert. Coordinate option */
(PID.TID 0000.0001)                       0
(PID.TID 0000.0001)     ;
(PID.TID 0000.0001) Ro_SeaLevel = /* r(1) ( units of r ==  m ) */
(PID.TID 0000.0001)                 0.000000000000000E+00
(PID.TID 0000.0001)     ;
(PID.TID 0000.0001) rSigmaBnd = /* r/sigma transition ( units of r ==  m ) */
(PID.TID 0000.0001)                 1.234567000000000E+05
(PID.TID 0000.0001)     ;
(PID.TID 0000.0001) rkSign =   /* index orientation relative to vertical coordinate */
(PID.TID 0000.0001)                -1.000000000000000E+00
(PID.TID 0000.0001)     ;
(PID.TID 0000.0001) gravitySign = /* gravity orientation relative to vertical coordinate */
(PID.TID 0000.0001)                -1.000000000000000E+00
(PID.TID 0000.0001)     ;
(PID.TID 0000.0001) mass2rUnit = /* convert mass per unit area [kg/m2] to r-units [m] */
(PID.TID 0000.0001)                 9.737098344693282E-04
(PID.TID 0000.0001)     ;
(PID.TID 0000.0001) rUnit2mass = /* convert r-units [m] to mass per unit area [kg/m2] */
(PID.TID 0000.0001)                 1.027000000000000E+03
(PID.TID 0000.0001)     ;
(PID.TID 0000.0001) drC =   /* C spacing ( units of r ) */
(PID.TID 0000.0001)                 5.000000000000000E+00,      /* K =  1 */
(PID.TID 0000.0001)                 1.000000000000000E+01,      /* K =  2 */
(PID.TID 0000.0001)                 1.250000000000000E+01,      /* K =  3 */
(PID.TID 0000.0001)                 1.750000000000000E+01,      /* K =  4 */
(PID.TID 0000.0001)                 2.000000000000000E+01,      /* K =  5 */
(PID.TID 0000.0001)                 2.250000000000000E+01,      /* K =  6 */
(PID.TID 0000.0001)                 3.000000000000000E+01,      /* K =  7 */
(PID.TID 0000.0001)                 4.250000000000000E+01,      /* K =  8 */
(PID.TID 0000.0001)                 6.250000000000000E+01,      /* K =  9 */
(PID.TID 0000.0001)                 8.750000000000000E+01,      /* K = 10 */
(PID.TID 0000.0001)                 1.250000000000000E+02,      /* K = 11 */
(PID.TID 0000.0001)                 1.750000000000000E+02,      /* K = 12 */
(PID.TID 0000.0001)                 2.375000000000000E+02,      /* K = 13 */
(PID.TID 0000.0001)                 3.125000000000000E+02,      /* K = 14 */
(PID.TID 0000.0001)                 3.825000000000000E+02,      /* K = 15 */
(PID.TID 0000.0001)                 4.325000000000000E+02,      /* K = 16 */
(PID.TID 0000.0001)                 4.750000000000000E+02,      /* K = 17 */
(PID.TID 0000.0001)     6 @  5.000000000000000E+02              /* K = 18: 23 */
(PID.TID 0000.0001)     ;
(PID.TID 0000.0001) drF =   /* W spacing ( units of r ) */
(PID.TID 0000.0001)     2 @  1.000000000000000E+01,             /* K =  1:  2 */
(PID.TID 0000.0001)                 1.500000000000000E+01,      /* K =  3 */
(PID.TID 0000.0001)     2 @  2.000000000000000E+01,             /* K =  4:  5 */
(PID.TID 0000.0001)                 2.500000000000000E+01,      /* K =  6 */
(PID.TID 0000.0001)                 3.500000000000000E+01,      /* K =  7 */
(PID.TID 0000.0001)                 5.000000000000000E+01,      /* K =  8 */
(PID.TID 0000.0001)                 7.500000000000000E+01,      /* K =  9 */
(PID.TID 0000.0001)                 1.000000000000000E+02,      /* K = 10 */
(PID.TID 0000.0001)                 1.500000000000000E+02,      /* K = 11 */
(PID.TID 0000.0001)                 2.000000000000000E+02,      /* K = 12 */
(PID.TID 0000.0001)                 2.750000000000000E+02,      /* K = 13 */
(PID.TID 0000.0001)                 3.500000000000000E+02,      /* K = 14 */
(PID.TID 0000.0001)                 4.150000000000000E+02,      /* K = 15 */
(PID.TID 0000.0001)                 4.500000000000000E+02,      /* K = 16 */
(PID.TID 0000.0001)     7 @  5.000000000000000E+02              /* K = 17: 23 */
(PID.TID 0000.0001)     ;
(PID.TID 0000.0001) delX = /* U spacing ( m - cartesian, degrees - spherical ) */
(PID.TID 0000.0001)    20 @  2.000000000000000E+00              /* I =  1: 20 */
(PID.TID 0000.0001)     ;
(PID.TID 0000.0001) delY = /* V spacing ( m - cartesian, degrees - spherical ) */
(PID.TID 0000.0001)    16 @  2.000000000000000E+00              /* J =  1: 16 */
(PID.TID 0000.0001)     ;
(PID.TID 0000.0001) xgOrigin = /* X-axis origin of West  edge (cartesian: m, lat-lon: deg) */
(PID.TID 0000.0001)                 2.800000000000000E+02
(PID.TID 0000.0001)     ;
(PID.TID 0000.0001) ygOrigin = /* Y-axis origin of South edge (cartesian: m, lat-lon: deg) */
(PID.TID 0000.0001)                 4.600000000000000E+01
(PID.TID 0000.0001)     ;
(PID.TID 0000.0001) rSphere =  /* Radius ( ignored - cartesian, m - spherical ) */
(PID.TID 0000.0001)                 6.371000000000000E+06
(PID.TID 0000.0001)     ;
(PID.TID 0000.0001) deepAtmosphere = /* Deep/Shallow Atmosphere flag (True/False) */
(PID.TID 0000.0001)                   F
(PID.TID 0000.0001)     ;
(PID.TID 0000.0001) xC =  /* xC(:,1,:,1) : P-point X coord ( deg. or m if cartesian) */
(PID.TID 0000.0001)                 2.810000000000000E+02,      /* I =  1 */
(PID.TID 0000.0001)                 2.830000000000000E+02,      /* I =  2 */
(PID.TID 0000.0001)                 2.850000000000000E+02,      /* I =  3 */
(PID.TID 0000.0001)                 2.870000000000000E+02,      /* I =  4 */
(PID.TID 0000.0001)                 2.890000000000000E+02,      /* I =  5 */
(PID.TID 0000.0001)                 2.910000000000000E+02,      /* I =  6 */
(PID.TID 0000.0001)                 2.930000000000000E+02,      /* I =  7 */
(PID.TID 0000.0001)                 2.950000000000000E+02,      /* I =  8 */
(PID.TID 0000.0001)                 2.970000000000000E+02,      /* I =  9 */
(PID.TID 0000.0001)                 2.990000000000000E+02,      /* I = 10 */
(PID.TID 0000.0001)                 3.010000000000000E+02,      /* I = 11 */
(PID.TID 0000.0001)                 3.030000000000000E+02,      /* I = 12 */
(PID.TID 0000.0001)                 3.050000000000000E+02,      /* I = 13 */
(PID.TID 0000.0001)                 3.070000000000000E+02,      /* I = 14 */
(PID.TID 0000.0001)                 3.090000000000000E+02,      /* I = 15 */
(PID.TID 0000.0001)                 3.110000000000000E+02,      /* I = 16 */
(PID.TID 0000.0001)                 3.130000000000000E+02,      /* I = 17 */
(PID.TID 0000.0001)                 3.150000000000000E+02,      /* I = 18 */
(PID.TID 0000.0001)                 3.170000000000000E+02,      /* I = 19 */
(PID.TID 0000.0001)                 3.190000000000000E+02       /* I = 20 */
(PID.TID 0000.0001)     ;
(PID.TID 0000.0001) yC =  /* yC(1,:,1,:) : P-point Y coord ( deg. or m if cartesian) */
(PID.TID 0000.0001)                 4.700000000000000E+01,      /* J =  1 */
(PID.TID 0000.0001)                 4.900000000000000E+01,      /* J =  2 */
(PID.TID 0000.0001)                 5.100000000000000E+01,      /* J =  3 */
(PID.TID 0000.0001)                 5.300000000000000E+01,      /* J =  4 */
(PID.TID 0000.0001)                 5.500000000000000E+01,      /* J =  5 */
(PID.TID 0000.0001)                 5.700000000000000E+01,      /* J =  6 */
(PID.TID 0000.0001)                 5.900000000000000E+01,      /* J =  7 */
(PID.TID 0000.0001)                 6.100000000000000E+01,      /* J =  8 */
(PID.TID 0000.0001)                 6.300000000000000E+01,      /* J =  9 */
(PID.TID 0000.0001)                 6.500000000000000E+01,      /* J = 10 */
(PID.TID 0000.0001)                 6.700000000000000E+01,      /* J = 11 */
(PID.TID 0000.0001)                 6.900000000000000E+01,      /* J = 12 */
(PID.TID 0000.0001)                 7.100000000000000E+01,      /* J = 13 */
(PID.TID 0000.0001)                 7.300000000000000E+01,      /* J = 14 */
(PID.TID 0000.0001)                 7.500000000000000E+01,      /* J = 15 */
(PID.TID 0000.0001)                 7.700000000000000E+01       /* J = 16 */
(PID.TID 0000.0001)     ;
(PID.TID 0000.0001) rcoord = /* P-point R coordinate (  units of r ) */
(PID.TID 0000.0001)                -5.000000000000000E+00,      /* K =  1 */
(PID.TID 0000.0001)                -1.500000000000000E+01,      /* K =  2 */
(PID.TID 0000.0001)                -2.750000000000000E+01,      /* K =  3 */
(PID.TID 0000.0001)                -4.500000000000000E+01,      /* K =  4 */
(PID.TID 0000.0001)                -6.500000000000000E+01,      /* K =  5 */
(PID.TID 0000.0001)                -8.750000000000000E+01,      /* K =  6 */
(PID.TID 0000.0001)                -1.175000000000000E+02,      /* K =  7 */
(PID.TID 0000.0001)                -1.600000000000000E+02,      /* K =  8 */
(PID.TID 0000.0001)                -2.225000000000000E+02,      /* K =  9 */
(PID.TID 0000.0001)                -3.100000000000000E+02,      /* K = 10 */
(PID.TID 0000.0001)                -4.350000000000000E+02,      /* K = 11 */
(PID.TID 0000.0001)                -6.100000000000000E+02,      /* K = 12 */
(PID.TID 0000.0001)                -8.475000000000000E+02,      /* K = 13 */
(PID.TID 0000.0001)                -1.160000000000000E+03,      /* K = 14 */
(PID.TID 0000.0001)                -1.542500000000000E+03,      /* K = 15 */
(PID.TID 0000.0001)                -1.975000000000000E+03,      /* K = 16 */
(PID.TID 0000.0001)                -2.450000000000000E+03,      /* K = 17 */
(PID.TID 0000.0001)                -2.950000000000000E+03,      /* K = 18 */
(PID.TID 0000.0001)                -3.450000000000000E+03,      /* K = 19 */
(PID.TID 0000.0001)                -3.950000000000000E+03,      /* K = 20 */
(PID.TID 0000.0001)                -4.450000000000000E+03,      /* K = 21 */
(PID.TID 0000.0001)                -4.950000000000000E+03,      /* K = 22 */
(PID.TID 0000.0001)                -5.450000000000000E+03       /* K = 23 */
(PID.TID 0000.0001)     ;
(PID.TID 0000.0001) rF =   /* W-Interf. R coordinate (  units of r ) */
(PID.TID 0000.0001)                 0.000000000000000E+00,      /* K =  1 */
(PID.TID 0000.0001)                -1.000000000000000E+01,      /* K =  2 */
(PID.TID 0000.0001)                -2.000000000000000E+01,      /* K =  3 */
(PID.TID 0000.0001)                -3.500000000000000E+01,      /* K =  4 */
(PID.TID 0000.0001)                -5.500000000000000E+01,      /* K =  5 */
(PID.TID 0000.0001)                -7.500000000000000E+01,      /* K =  6 */
(PID.TID 0000.0001)                -1.000000000000000E+02,      /* K =  7 */
(PID.TID 0000.0001)                -1.350000000000000E+02,      /* K =  8 */
(PID.TID 0000.0001)                -1.850000000000000E+02,      /* K =  9 */
(PID.TID 0000.0001)                -2.600000000000000E+02,      /* K = 10 */
(PID.TID 0000.0001)                -3.600000000000000E+02,      /* K = 11 */
(PID.TID 0000.0001)                -5.100000000000000E+02,      /* K = 12 */
(PID.TID 0000.0001)                -7.100000000000000E+02,      /* K = 13 */
(PID.TID 0000.0001)                -9.850000000000000E+02,      /* K = 14 */
(PID.TID 0000.0001)                -1.335000000000000E+03,      /* K = 15 */
(PID.TID 0000.0001)                -1.750000000000000E+03,      /* K = 16 */
(PID.TID 0000.0001)                -2.200000000000000E+03,      /* K = 17 */
(PID.TID 0000.0001)                -2.700000000000000E+03,      /* K = 18 */
(PID.TID 0000.0001)                -3.200000000000000E+03,      /* K = 19 */
(PID.TID 0000.0001)                -3.700000000000000E+03,      /* K = 20 */
(PID.TID 0000.0001)                -4.200000000000000E+03,      /* K = 21 */
(PID.TID 0000.0001)                -4.700000000000000E+03,      /* K = 22 */
(PID.TID 0000.0001)                -5.200000000000000E+03,      /* K = 23 */
(PID.TID 0000.0001)                -5.700000000000000E+03       /* K = 24 */
(PID.TID 0000.0001)     ;
(PID.TID 0000.0001) deepFacC = /* deep-model grid factor @ cell-Center (-) */
(PID.TID 0000.0001)    23 @  1.000000000000000E+00              /* K =  1: 23 */
(PID.TID 0000.0001)     ;
(PID.TID 0000.0001) deepFacF = /* deep-model grid factor @ W-Interface (-) */
(PID.TID 0000.0001)    24 @  1.000000000000000E+00              /* K =  1: 24 */
(PID.TID 0000.0001)     ;
(PID.TID 0000.0001) rVel2wUnit = /* convert units: rVel -> wSpeed (=1 if z-coord)*/
(PID.TID 0000.0001)    24 @  1.000000000000000E+00              /* K =  1: 24 */
(PID.TID 0000.0001)     ;
(PID.TID 0000.0001) wUnit2rVel = /* convert units: wSpeed -> rVel (=1 if z-coord)*/
(PID.TID 0000.0001)    24 @  1.000000000000000E+00              /* K =  1: 24 */
(PID.TID 0000.0001)     ;
(PID.TID 0000.0001) dBdrRef = /* Vertical grad. of reference buoyancy [(m/s/r)^2] */
(PID.TID 0000.0001)                 0.000000000000000E+00,      /* K =  1 */
(PID.TID 0000.0001)                 3.513461801096672E-04,      /* K =  2 */
(PID.TID 0000.0001)                 2.578462793867026E-04,      /* K =  3 */
(PID.TID 0000.0001)                 1.716535447918954E-04,      /* K =  4 */
(PID.TID 0000.0001)                 1.391849606744939E-04,      /* K =  5 */
(PID.TID 0000.0001)                 1.106038973987551E-04,      /* K =  6 */
(PID.TID 0000.0001)                 7.062448315028799E-05,      /* K =  7 */
(PID.TID 0000.0001)                 4.112152780686669E-05,      /* K =  8 */
(PID.TID 0000.0001)                 2.554455911799560E-05,      /* K =  9 */
(PID.TID 0000.0001)                 1.739274227427603E-05,      /* K = 10 */
(PID.TID 0000.0001)                 1.573008010125636E-05,      /* K = 11 */
(PID.TID 0000.0001)                 1.341763357458043E-05,      /* K = 12 */
(PID.TID 0000.0001)                 1.029886793911016E-05,      /* K = 13 */
(PID.TID 0000.0001)                 7.244777660794312E-06,      /* K = 14 */
(PID.TID 0000.0001)                 5.291061202791868E-06,      /* K = 15 */
(PID.TID 0000.0001)                 4.668992652371521E-06,      /* K = 16 */
(PID.TID 0000.0001)                 3.952349989520169E-06,      /* K = 17 */
(PID.TID 0000.0001)                 3.937600045035830E-06,      /* K = 18 */
(PID.TID 0000.0001)                 3.833348475309353E-06,      /* K = 19 */
(PID.TID 0000.0001)                 4.027570774400333E-06,      /* K = 20 */
(PID.TID 0000.0001)                 3.935806005392895E-06,      /* K = 21 */
(PID.TID 0000.0001)                 3.995673930141529E-06,      /* K = 22 */
(PID.TID 0000.0001)                 4.061338744769299E-06       /* K = 23 */
(PID.TID 0000.0001)     ;
(PID.TID 0000.0001) rotateGrid = /* use rotated grid ( True/False ) */
(PID.TID 0000.0001)                   F
(PID.TID 0000.0001)     ;
(PID.TID 0000.0001) phiEuler = /* Euler angle, rotation about original z-coordinate [rad] */
(PID.TID 0000.0001)                 0.000000000000000E+00
(PID.TID 0000.0001)     ;
(PID.TID 0000.0001) thetaEuler = /* Euler angle, rotation about new x-coordinate [rad] */
(PID.TID 0000.0001)                 0.000000000000000E+00
(PID.TID 0000.0001)     ;
(PID.TID 0000.0001) psiEuler = /* Euler angle, rotation about new z-coordinate [rad] */
(PID.TID 0000.0001)                 0.000000000000000E+00
(PID.TID 0000.0001)     ;
(PID.TID 0000.0001) dxF =  /* dxF(:,1,:,1) ( units: m ) */
(PID.TID 0000.0001)    20 @  1.516695152377178E+05              /* I =  1: 20 */
(PID.TID 0000.0001)     ;
(PID.TID 0000.0001) dxF =  /* dxF(1,:,1,:) ( units: m ) */
(PID.TID 0000.0001)                 1.516695152377178E+05,      /* J =  1 */
(PID.TID 0000.0001)                 1.459008712061998E+05,      /* J =  2 */
(PID.TID 0000.0001)                 1.399544694374234E+05,      /* J =  3 */
(PID.TID 0000.0001)                 1.338375547059709E+05,      /* J =  4 */
(PID.TID 0000.0001)                 1.275575795302040E+05,      /* J =  5 */
(PID.TID 0000.0001)                 1.211221950925184E+05,      /* J =  6 */
(PID.TID 0000.0001)                 1.145392419175564E+05,      /* J =  7 */
(PID.TID 0000.0001)                 1.078167403197357E+05,      /* J =  8 */
(PID.TID 0000.0001)                 1.009628806317309E+05,      /* J =  9 */
(PID.TID 0000.0001)                 9.398601322581600E+04,      /* J = 10 */
(PID.TID 0000.0001)                 8.689463834022089E+04,      /* J = 11 */
(PID.TID 0000.0001)                 7.969739572290120E+04,      /* J = 12 */
(PID.TID 0000.0001)                 7.240305410533583E+04,      /* J = 13 */
(PID.TID 0000.0001)                 6.502050051917860E+04,      /* J = 14 */
(PID.TID 0000.0001)                 5.755872946877906E+04,      /* J = 15 */
(PID.TID 0000.0001)                 5.002683197276441E+04       /* J = 16 */
(PID.TID 0000.0001)     ;
(PID.TID 0000.0001) dyF =  /* dyF(:,1,:,1) ( units: m ) */
(PID.TID 0000.0001)    20 @  2.223898532891175E+05              /* I =  1: 20 */
(PID.TID 0000.0001)     ;
(PID.TID 0000.0001) dyF =  /* dyF(1,:,1,:) ( units: m ) */
(PID.TID 0000.0001)    16 @  2.223898532891175E+05              /* J =  1: 16 */
(PID.TID 0000.0001)     ;
(PID.TID 0000.0001) dxG =  /* dxG(:,1,:,1) ( units: m ) */
(PID.TID 0000.0001)    20 @  1.544849730924338E+05              /* I =  1: 20 */
(PID.TID 0000.0001)     ;
(PID.TID 0000.0001) dxG =  /* dxG(1,:,1,:) ( units: m ) */
(PID.TID 0000.0001)                 1.544849730924338E+05,      /* J =  1 */
(PID.TID 0000.0001)                 1.488078573794047E+05,      /* J =  2 */
(PID.TID 0000.0001)                 1.429494422142520E+05,      /* J =  3 */
(PID.TID 0000.0001)                 1.369168651734348E+05,      /* J =  4 */
(PID.TID 0000.0001)                 1.307174760228300E+05,      /* J =  5 */
(PID.TID 0000.0001)                 1.243588277631750E+05,      /* J =  6 */
(PID.TID 0000.0001)                 1.178486674278995E+05,      /* J =  7 */
(PID.TID 0000.0001)                 1.111949266445588E+05,      /* J =  8 */
(PID.TID 0000.0001)                 1.044057119713670E+05,      /* J =  9 */
(PID.TID 0000.0001)                 9.748929502060512E+04,      /* J = 10 */
(PID.TID 0000.0001)                 9.045410238093534E+04,      /* J = 11 */
(PID.TID 0000.0001)                 8.330870535090075E+04,      /* J = 12 */
(PID.TID 0000.0001)                 7.606180949611843E+04,      /* J = 13 */
(PID.TID 0000.0001)                 6.872224404288860E+04,      /* J = 14 */
(PID.TID 0000.0001)                 6.129895112114271E+04,      /* J = 15 */
(PID.TID 0000.0001)                 5.380097486983529E+04       /* J = 16 */
(PID.TID 0000.0001)     ;
(PID.TID 0000.0001) dyG =  /* dyG(:,1,:,1) ( units: m ) */
(PID.TID 0000.0001)    20 @  2.223898532891175E+05              /* I =  1: 20 */
(PID.TID 0000.0001)     ;
(PID.TID 0000.0001) dyG =  /* dyG(1,:,1,:) ( units: m ) */
(PID.TID 0000.0001)    16 @  2.223898532891175E+05              /* J =  1: 16 */
(PID.TID 0000.0001)     ;
(PID.TID 0000.0001) dxC =  /* dxC(:,1,:,1) ( units: m ) */
(PID.TID 0000.0001)    20 @  1.516695152377178E+05              /* I =  1: 20 */
(PID.TID 0000.0001)     ;
(PID.TID 0000.0001) dxC =  /* dxC(1,:,1,:) ( units: m ) */
(PID.TID 0000.0001)                 1.516695152377178E+05,      /* J =  1 */
(PID.TID 0000.0001)                 1.459008712061998E+05,      /* J =  2 */
(PID.TID 0000.0001)                 1.399544694374234E+05,      /* J =  3 */
(PID.TID 0000.0001)                 1.338375547059709E+05,      /* J =  4 */
(PID.TID 0000.0001)                 1.275575795302040E+05,      /* J =  5 */
(PID.TID 0000.0001)                 1.211221950925184E+05,      /* J =  6 */
(PID.TID 0000.0001)                 1.145392419175564E+05,      /* J =  7 */
(PID.TID 0000.0001)                 1.078167403197357E+05,      /* J =  8 */
(PID.TID 0000.0001)                 1.009628806317309E+05,      /* J =  9 */
(PID.TID 0000.0001)                 9.398601322581600E+04,      /* J = 10 */
(PID.TID 0000.0001)                 8.689463834022089E+04,      /* J = 11 */
(PID.TID 0000.0001)                 7.969739572290120E+04,      /* J = 12 */
(PID.TID 0000.0001)                 7.240305410533583E+04,      /* J = 13 */
(PID.TID 0000.0001)                 6.502050051917860E+04,      /* J = 14 */
(PID.TID 0000.0001)                 5.755872946877906E+04,      /* J = 15 */
(PID.TID 0000.0001)                 5.002683197276441E+04       /* J = 16 */
(PID.TID 0000.0001)     ;
(PID.TID 0000.0001) dyC =  /* dyC(:,1,:,1) ( units: m ) */
(PID.TID 0000.0001)    20 @  2.223898532891175E+05              /* I =  1: 20 */
(PID.TID 0000.0001)     ;
(PID.TID 0000.0001) dyC =  /* dyC(1,:,1,:) ( units: m ) */
(PID.TID 0000.0001)    16 @  2.223898532891175E+05              /* J =  1: 16 */
(PID.TID 0000.0001)     ;
(PID.TID 0000.0001) dxV =  /* dxV(:,1,:,1) ( units: m ) */
(PID.TID 0000.0001)    20 @  1.544849730924338E+05              /* I =  1: 20 */
(PID.TID 0000.0001)     ;
(PID.TID 0000.0001) dxV =  /* dxV(1,:,1,:) ( units: m ) */
(PID.TID 0000.0001)                 1.544849730924338E+05,      /* J =  1 */
(PID.TID 0000.0001)                 1.488078573794047E+05,      /* J =  2 */
(PID.TID 0000.0001)                 1.429494422142520E+05,      /* J =  3 */
(PID.TID 0000.0001)                 1.369168651734348E+05,      /* J =  4 */
(PID.TID 0000.0001)                 1.307174760228300E+05,      /* J =  5 */
(PID.TID 0000.0001)                 1.243588277631750E+05,      /* J =  6 */
(PID.TID 0000.0001)                 1.178486674278995E+05,      /* J =  7 */
(PID.TID 0000.0001)                 1.111949266445588E+05,      /* J =  8 */
(PID.TID 0000.0001)                 1.044057119713670E+05,      /* J =  9 */
(PID.TID 0000.0001)                 9.748929502060512E+04,      /* J = 10 */
(PID.TID 0000.0001)                 9.045410238093534E+04,      /* J = 11 */
(PID.TID 0000.0001)                 8.330870535090075E+04,      /* J = 12 */
(PID.TID 0000.0001)                 7.606180949611843E+04,      /* J = 13 */
(PID.TID 0000.0001)                 6.872224404288860E+04,      /* J = 14 */
(PID.TID 0000.0001)                 6.129895112114271E+04,      /* J = 15 */
(PID.TID 0000.0001)                 5.380097486983529E+04       /* J = 16 */
(PID.TID 0000.0001)     ;
(PID.TID 0000.0001) dyU =  /* dyU(:,1,:,1) ( units: m ) */
(PID.TID 0000.0001)    20 @  2.223898532891175E+05              /* I =  1: 20 */
(PID.TID 0000.0001)     ;
(PID.TID 0000.0001) dyU =  /* dyU(1,:,1,:) ( units: m ) */
(PID.TID 0000.0001)    16 @  2.223898532891175E+05              /* J =  1: 16 */
(PID.TID 0000.0001)     ;
(PID.TID 0000.0001) rA  =  /* rA (:,1,:,1) ( units: m^2 ) */
(PID.TID 0000.0001)    20 @  3.372804882275630E+10              /* I =  1: 20 */
(PID.TID 0000.0001)     ;
(PID.TID 0000.0001) rA  =  /* rA (1,:,1,:) ( units: m^2 ) */
(PID.TID 0000.0001)                 3.372804882275630E+10,      /* J =  1 */
(PID.TID 0000.0001)                 3.244522605358471E+10,      /* J =  2 */
(PID.TID 0000.0001)                 3.112287377427108E+10,      /* J =  3 */
(PID.TID 0000.0001)                 2.976260306737437E+10,      /* J =  4 */
(PID.TID 0000.0001)                 2.836607121321784E+10,      /* J =  5 */
(PID.TID 0000.0001)                 2.693497967074614E+10,      /* J =  6 */
(PID.TID 0000.0001)                 2.547107200456132E+10,      /* J =  7 */
(PID.TID 0000.0001)                 2.397613176065682E+10,      /* J =  8 */
(PID.TID 0000.0001)                 2.245198029344207E+10,      /* J =  9 */
(PID.TID 0000.0001)                 2.090047454670177E+10,      /* J = 10 */
(PID.TID 0000.0001)                 1.932350479119805E+10,      /* J = 11 */
(PID.TID 0000.0001)                 1.772299232166360E+10,      /* J = 12 */
(PID.TID 0000.0001)                 1.610088711600326E+10,      /* J = 13 */
(PID.TID 0000.0001)                 1.445916545954351E+10,      /* J = 14 */
(PID.TID 0000.0001)                 1.279982753723478E+10,      /* J = 15 */
(PID.TID 0000.0001)                 1.112489499673432E+10       /* J = 16 */
(PID.TID 0000.0001)     ;
(PID.TID 0000.0001) rAw =  /* rAw(:,1,:,1) ( units: m^2 ) */
(PID.TID 0000.0001)    20 @  3.372804882275630E+10              /* I =  1: 20 */
(PID.TID 0000.0001)     ;
(PID.TID 0000.0001) rAw =  /* rAw(1,:,1,:) ( units: m^2 ) */
(PID.TID 0000.0001)                 3.372804882275630E+10,      /* J =  1 */
(PID.TID 0000.0001)                 3.244522605358471E+10,      /* J =  2 */
(PID.TID 0000.0001)                 3.112287377427108E+10,      /* J =  3 */
(PID.TID 0000.0001)                 2.976260306737437E+10,      /* J =  4 */
(PID.TID 0000.0001)                 2.836607121321784E+10,      /* J =  5 */
(PID.TID 0000.0001)                 2.693497967074614E+10,      /* J =  6 */
(PID.TID 0000.0001)                 2.547107200456132E+10,      /* J =  7 */
(PID.TID 0000.0001)                 2.397613176065682E+10,      /* J =  8 */
(PID.TID 0000.0001)                 2.245198029344207E+10,      /* J =  9 */
(PID.TID 0000.0001)                 2.090047454670177E+10,      /* J = 10 */
(PID.TID 0000.0001)                 1.932350479119805E+10,      /* J = 11 */
(PID.TID 0000.0001)                 1.772299232166360E+10,      /* J = 12 */
(PID.TID 0000.0001)                 1.610088711600326E+10,      /* J = 13 */
(PID.TID 0000.0001)                 1.445916545954351E+10,      /* J = 14 */
(PID.TID 0000.0001)                 1.279982753723478E+10,      /* J = 15 */
(PID.TID 0000.0001)                 1.112489499673432E+10       /* J = 16 */
(PID.TID 0000.0001)     ;
(PID.TID 0000.0001) rAs =  /* rAs(:,1,:,1) ( units: m^2 ) */
(PID.TID 0000.0001)    20 @  3.435414629417918E+10              /* I =  1: 20 */
(PID.TID 0000.0001)     ;
(PID.TID 0000.0001) rAs =  /* rAs(1,:,1,:) ( units: m^2 ) */
(PID.TID 0000.0001)                 3.435414629417918E+10,      /* J =  1 */
(PID.TID 0000.0001)                 3.309167746093097E+10,      /* J =  2 */
(PID.TID 0000.0001)                 3.178889151607872E+10,      /* J =  3 */
(PID.TID 0000.0001)                 3.044737570361747E+10,      /* J =  4 */
(PID.TID 0000.0001)                 2.906876445392020E+10,      /* J =  5 */
(PID.TID 0000.0001)                 2.765473739243563E+10,      /* J =  6 */
(PID.TID 0000.0001)                 2.620701729332415E+10,      /* J =  7 */
(PID.TID 0000.0001)                 2.472736798052209E+10,      /* J =  8 */
(PID.TID 0000.0001)                 2.321759217879512E+10,      /* J =  9 */
(PID.TID 0000.0001)                 2.167952931739416E+10,      /* J = 10 */
(PID.TID 0000.0001)                 2.011505328899539E+10,      /* J = 11 */
(PID.TID 0000.0001)                 1.852607016665020E+10,      /* J = 12 */
(PID.TID 0000.0001)                 1.691451588152944E+10,      /* J = 13 */
(PID.TID 0000.0001)                 1.528235386428863E+10,      /* J = 14 */
(PID.TID 0000.0001)                 1.363157265293026E+10,      /* J = 15 */
(PID.TID 0000.0001)                 1.196418347007692E+10       /* J = 16 */
(PID.TID 0000.0001)     ;
(PID.TID 0000.0001) globalArea = /* Integrated horizontal Area (m^2) */
(PID.TID 0000.0001)                 3.518028525317939E+12
(PID.TID 0000.0001)     ;
(PID.TID 0000.0001) // =======================================================
(PID.TID 0000.0001) // End of Model config. summary
(PID.TID 0000.0001) // =======================================================
(PID.TID 0000.0001) 
(PID.TID 0000.0001) == Packages configuration : Check & print summary ==
(PID.TID 0000.0001) 
(PID.TID 0000.0001) KPP_CHECK: #define ALLOW_KPP
(PID.TID 0000.0001) GMREDI_CHECK: #define GMREDI
(PID.TID 0000.0001) GM_AdvForm =     /* if FALSE => use SkewFlux Form */
(PID.TID 0000.0001)                   F
(PID.TID 0000.0001)     ;
(PID.TID 0000.0001) GM_InMomAsStress = /* if TRUE => apply as Eddy Stress */
(PID.TID 0000.0001)                   F
(PID.TID 0000.0001)     ;
(PID.TID 0000.0001) GM_AdvSeparate = /* Calc Bolus & Euler Adv. separately */
(PID.TID 0000.0001)                   F
(PID.TID 0000.0001)     ;
(PID.TID 0000.0001) GM_ExtraDiag =   /* Tensor Extra Diag (line 1&2) non 0 */
(PID.TID 0000.0001)                   F
(PID.TID 0000.0001)     ;
(PID.TID 0000.0001) GM_isopycK =    /* Background Isopyc. Diffusivity [m^2/s] */
(PID.TID 0000.0001)                 5.710000000000000E+02
(PID.TID 0000.0001)     ;
(PID.TID 0000.0001) GM_skewflx*K =  /* Background GM_SkewFlx Diffusivity [m^2/s] */
(PID.TID 0000.0001)                 5.710000000000000E+02
(PID.TID 0000.0001)     ;
(PID.TID 0000.0001) GM_advec*K =    /* Backg. GM-Advec(=Bolus) Diffusivity [m^2/s]*/
(PID.TID 0000.0001)                 0.000000000000000E+00
(PID.TID 0000.0001)     ;
(PID.TID 0000.0001) GM_Kmin_horiz = /* Minimum Horizontal Diffusivity [m^2/s] */
(PID.TID 0000.0001)                 0.000000000000000E+00
(PID.TID 0000.0001)     ;
(PID.TID 0000.0001) GM_Visbeck_alpha = /* Visbeck alpha coeff. [-] */
(PID.TID 0000.0001)                 0.000000000000000E+00
(PID.TID 0000.0001)     ;
(PID.TID 0000.0001) GM_Small_Number =  /* epsilon used in slope calc */
(PID.TID 0000.0001)                 9.999999999999999E-21
(PID.TID 0000.0001)     ;
(PID.TID 0000.0001) GM_slopeSqCutoff = /* Slope^2 cut-off value */
(PID.TID 0000.0001)                 1.000000000000000E+48
(PID.TID 0000.0001)     ;
(PID.TID 0000.0001) GM_taper_scheme =  /* Type of Tapering/Clipping scheme */
(PID.TID 0000.0001)               'ldd97                                   '
(PID.TID 0000.0001)     ;
(PID.TID 0000.0001) GM_maxSlope =  /* Maximum Slope (Tapering/Clipping) */
(PID.TID 0000.0001)                 1.000000000000000E-02
(PID.TID 0000.0001)     ;
(PID.TID 0000.0001) GM_facTrL2dz = /* Minimum Trans.Layer Thick. (factor of dz) */
(PID.TID 0000.0001)                 1.000000000000000E+00
(PID.TID 0000.0001)     ;
(PID.TID 0000.0001) GM_facTrL2ML = /* Max.Trans.Layer Thick. (factor of MxL Depth)*/
(PID.TID 0000.0001)                 5.000000000000000E+00
(PID.TID 0000.0001)     ;
(PID.TID 0000.0001) GM_maxTransLay = /* Maximum Transition Layer Thickness [m] */
(PID.TID 0000.0001)                 5.000000000000000E+02
(PID.TID 0000.0001)     ;
(PID.TID 0000.0001) GM_UseBVP = /* if TRUE => use bvp a la Ferrari et al. (2010) */
(PID.TID 0000.0001)                   F
(PID.TID 0000.0001)     ;
(PID.TID 0000.0001) GM_BVP_ModeNumber = /* Vertical mode number for BVP wave speed */
(PID.TID 0000.0001)                       1
(PID.TID 0000.0001)     ;
(PID.TID 0000.0001) GM_BVP_cMin = /* Minimum wave speed for BVP [m/s] */
(PID.TID 0000.0001)                 1.000000000000000E-01
(PID.TID 0000.0001)     ;
(PID.TID 0000.0001) GM_useSubMeso = /* if TRUE => use Sub-Meso param. (B.Fox-Kemper) */
(PID.TID 0000.0001)                   F
(PID.TID 0000.0001)     ;
(PID.TID 0000.0001) subMeso_Ceff = /* efficiency coeff. of Mixed-Layer Eddies [-] */
(PID.TID 0000.0001)                 7.000000000000001E-02
(PID.TID 0000.0001)     ;
(PID.TID 0000.0001) subMeso_invTau = /* inverse of Sub-Meso mixing time-scale [/s] */
(PID.TID 0000.0001)                 2.000000000000000E-06
(PID.TID 0000.0001)     ;
(PID.TID 0000.0001) subMeso_LfMin = /* minimum length-scale "Lf" [m] */
(PID.TID 0000.0001)                 1.000000000000000E+03
(PID.TID 0000.0001)     ;
(PID.TID 0000.0001) subMeso_Lmax = /* maximum grid-scale length [m] */
(PID.TID 0000.0001)                 1.100000000000000E+05
(PID.TID 0000.0001)     ;
(PID.TID 0000.0001) SEAICE_CHECK: #define ALLOW_SEAICE
(PID.TID 0000.0001) GAD_CHECK: #define ALLOW_GENERIC_ADVDIFF
(PID.TID 0000.0001) // =======================================================
(PID.TID 0000.0001) // Check Model config. (CONFIG_CHECK):
(PID.TID 0000.0001) // CONFIG_CHECK : Normal End
(PID.TID 0000.0001) // =======================================================
(PID.TID 0000.0001) 
(PID.TID 0000.0001)  MDS_READ_FIELD: opening global file: U.0000008760
(PID.TID 0000.0001)  MDS_READ_FIELD: opening global file: V.0000008760
(PID.TID 0000.0001)  MDS_READ_FIELD: opening global file: T.0000008760
(PID.TID 0000.0001)  MDS_READ_FIELD: opening global file: S.0000008760
(PID.TID 0000.0001) Start initial hydrostatic pressure computation
(PID.TID 0000.0001) Pressure is predetermined for buoyancyRelation OCEANIC
(PID.TID 0000.0001) 
(PID.TID 0000.0001)  write diagnostics summary to file ioUnit:      6
Iter.Nb:         0 ; Time(s):  0.0000000000000E+00
------------------------------------------------------------------------
2D/3D diagnostics: Number of lists:     4
------------------------------------------------------------------------
listId=    1 ; file name: diagsEXF
 nFlds, nActive,       freq     &     phase        , nLev               
   11  |   11  |    -36000.000000     18000.000000 |   1
 levels:   1
 diag# | name   |   ipt  |  iMate | kLev|   count |   mate.C|           
   190 |EXFtaux |      1 |      0 |   1 |       0 |
   191 |EXFtauy |      2 |      0 |   1 |       0 |
   189 |EXFqnet |      3 |      0 |   1 |       0 |
   200 |EXFempmr|      4 |      0 |   1 |       0 |
   184 |EXFhl   |      5 |      0 |   1 |       0 |
   183 |EXFhs   |      6 |      0 |   1 |       0 |
   186 |EXFswnet|      7 |      0 |   1 |       0 |
   185 |EXFlwnet|      8 |      0 |   1 |       0 |
   192 |EXFuwind|      9 |      0 |   1 |       0 |
   193 |EXFvwind|     10 |      0 |   1 |       0 |
   195 |EXFatemp|     11 |      0 |   1 |       0 |
------------------------------------------------------------------------
listId=    2 ; file name: diagsSI
 nFlds, nActive,       freq     &     phase        , nLev               
    5  |    5  |     36000.000000         0.000000 |   1
 levels:   1
 diag# | name   |   ipt  |  iMate | kLev|   count |   mate.C|           
   242 |SIarea  |     12 |      0 |   1 |       0 |
   245 |SIheff  |     13 |      0 |   1 |       0 |
   247 |SIhsnow |     14 |      0 |   1 |       0 |
   251 |SIuice  |     15 |     16 |   1 |       0 |       0 |
   252 |SIvice  |     16 |     15 |   1 |       0 |       0 |
------------------------------------------------------------------------
listId=    3 ; file name: diagsKPP
 nFlds, nActive,       freq     &     phase        , nLev               
    2  |    2  |     36000.000000         0.000000 |   1
 levels:   1
 diag# | name   |   ipt  |  iMate | kLev|   count |   mate.C|           
    75 |MXLDEPTH|     17 |      0 |   1 |       0 |
   228 |KPPhbl  |     18 |      0 |   1 |       0 |
------------------------------------------------------------------------
listId=    4 ; file name: KPPghatK
 nFlds, nActive,       freq     &     phase        , nLev               
    1  |    1  |     36000.000000         0.000000 |  23
 levels:   1   2   3   4   5   6   7   8   9  10  11  12  13  14  15  16  17  18  19  20  21  22  23
 diag# | name   |   ipt  |  iMate | kLev|   count |   mate.C|           
   227 |KPPghatK|     19 |      0 |  23 |       0 |
------------------------------------------------------------------------
Global & Regional Statistics diagnostics: Number of lists:     0
------------------------------------------------------------------------
(PID.TID 0000.0001)  MDS_READ_FIELD: opening global file: HEFF.0000008760
(PID.TID 0000.0001)  MDS_READ_FIELD: opening global file: AREA.0000008760
(PID.TID 0000.0001)  MDS_READ_FIELD: opening global file: HSNOW.0000008760
(PID.TID 0000.0001) // =======================================================
(PID.TID 0000.0001) // Model current state
(PID.TID 0000.0001) // =======================================================
(PID.TID 0000.0001) 
(PID.TID 0000.0001) // =======================================================
(PID.TID 0000.0001) // Begin MONITOR dynamic field statistics
(PID.TID 0000.0001) // =======================================================
(PID.TID 0000.0001) %MON time_tsnumber                =                     0
(PID.TID 0000.0001) %MON time_secondsf                =   0.0000000000000E+00
(PID.TID 0000.0001) %MON dynstat_eta_max              =   0.0000000000000E+00
(PID.TID 0000.0001) %MON dynstat_eta_min              =   0.0000000000000E+00
(PID.TID 0000.0001) %MON dynstat_eta_mean             =   0.0000000000000E+00
(PID.TID 0000.0001) %MON dynstat_eta_sd               =   0.0000000000000E+00
(PID.TID 0000.0001) %MON dynstat_eta_del2             =   0.0000000000000E+00
(PID.TID 0000.0001) %MON dynstat_uvel_max             =   2.9562119394541E-02
(PID.TID 0000.0001) %MON dynstat_uvel_min             =  -3.2116800546646E-02
(PID.TID 0000.0001) %MON dynstat_uvel_mean            =   7.3966954467095E-05
(PID.TID 0000.0001) %MON dynstat_uvel_sd              =   2.8230133755452E-03
(PID.TID 0000.0001) %MON dynstat_uvel_del2            =   1.2245555781964E-04
(PID.TID 0000.0001) %MON dynstat_vvel_max             =   3.0230753123760E-02
(PID.TID 0000.0001) %MON dynstat_vvel_min             =  -7.2915598750114E-02
(PID.TID 0000.0001) %MON dynstat_vvel_mean            =   5.8901812847223E-07
(PID.TID 0000.0001) %MON dynstat_vvel_sd              =   4.3557675503319E-03
(PID.TID 0000.0001) %MON dynstat_vvel_del2            =   1.6659165051517E-04
(PID.TID 0000.0001) %MON dynstat_wvel_max             =   1.0391598228656E-05
(PID.TID 0000.0001) %MON dynstat_wvel_min             =  -1.2985526788947E-05
(PID.TID 0000.0001) %MON dynstat_wvel_mean            =  -4.9544570483770E-23
(PID.TID 0000.0001) %MON dynstat_wvel_sd              =   2.9907165852535E-06
(PID.TID 0000.0001) %MON dynstat_wvel_del2            =   6.3614550255606E-08
(PID.TID 0000.0001) %MON dynstat_theta_max            =   1.2478986740112E+01
(PID.TID 0000.0001) %MON dynstat_theta_min            =  -1.8580783605576E+00
(PID.TID 0000.0001) %MON dynstat_theta_mean           =   3.0888161803488E+00
(PID.TID 0000.0001) %MON dynstat_theta_sd             =   1.4316734913970E+00
(PID.TID 0000.0001) %MON dynstat_theta_del2           =   1.7776530850766E-02
(PID.TID 0000.0001) %MON dynstat_salt_max             =   3.5292900085449E+01
(PID.TID 0000.0001) %MON dynstat_salt_min             =   3.0708011627197E+01
(PID.TID 0000.0001) %MON dynstat_salt_mean            =   3.4759291324509E+01
(PID.TID 0000.0001) %MON dynstat_salt_sd              =   4.2875014836398E-01
(PID.TID 0000.0001) %MON dynstat_salt_del2            =   4.0406357442838E-03
(PID.TID 0000.0001) %MON forcing_qnet_max             =   0.0000000000000E+00
(PID.TID 0000.0001) %MON forcing_qnet_min             =   0.0000000000000E+00
(PID.TID 0000.0001) %MON forcing_qnet_mean            =   0.0000000000000E+00
(PID.TID 0000.0001) %MON forcing_qnet_sd              =   0.0000000000000E+00
(PID.TID 0000.0001) %MON forcing_qnet_del2            =   0.0000000000000E+00
(PID.TID 0000.0001) %MON forcing_qsw_max              =   0.0000000000000E+00
(PID.TID 0000.0001) %MON forcing_qsw_min              =   0.0000000000000E+00
(PID.TID 0000.0001) %MON forcing_qsw_mean             =   0.0000000000000E+00
(PID.TID 0000.0001) %MON forcing_qsw_sd               =   0.0000000000000E+00
(PID.TID 0000.0001) %MON forcing_qsw_del2             =   0.0000000000000E+00
(PID.TID 0000.0001) %MON forcing_empmr_max            =   0.0000000000000E+00
(PID.TID 0000.0001) %MON forcing_empmr_min            =   0.0000000000000E+00
(PID.TID 0000.0001) %MON forcing_empmr_mean           =   0.0000000000000E+00
(PID.TID 0000.0001) %MON forcing_empmr_sd             =   0.0000000000000E+00
(PID.TID 0000.0001) %MON forcing_empmr_del2           =   0.0000000000000E+00
(PID.TID 0000.0001) %MON forcing_fu_max               =   0.0000000000000E+00
(PID.TID 0000.0001) %MON forcing_fu_min               =   0.0000000000000E+00
(PID.TID 0000.0001) %MON forcing_fu_mean              =   0.0000000000000E+00
(PID.TID 0000.0001) %MON forcing_fu_sd                =   0.0000000000000E+00
(PID.TID 0000.0001) %MON forcing_fu_del2              =   0.0000000000000E+00
(PID.TID 0000.0001) %MON forcing_fv_max               =   0.0000000000000E+00
(PID.TID 0000.0001) %MON forcing_fv_min               =   0.0000000000000E+00
(PID.TID 0000.0001) %MON forcing_fv_mean              =   0.0000000000000E+00
(PID.TID 0000.0001) %MON forcing_fv_sd                =   0.0000000000000E+00
(PID.TID 0000.0001) %MON forcing_fv_del2              =   0.0000000000000E+00
(PID.TID 0000.0001) %MON advcfl_uvel_max              =   1.1451781213500E-03
(PID.TID 0000.0001) %MON advcfl_vvel_max              =   1.1803423205606E-03
(PID.TID 0000.0001) %MON advcfl_wvel_max              =   1.0648112049042E-03
(PID.TID 0000.0001) %MON advcfl_W_hf_max              =   1.3310140061302E-03
(PID.TID 0000.0001) %MON pe_b_mean                    =   0.0000000000000E+00
(PID.TID 0000.0001) %MON ke_max                       =   2.6765885298295E-03
(PID.TID 0000.0001) %MON ke_mean                      =   1.0530059811557E-05
(PID.TID 0000.0001) %MON ke_vol                       =   5.2906584519726E+15
(PID.TID 0000.0001) %MON vort_r_min                   =  -6.7404961605360E-07
(PID.TID 0000.0001) %MON vort_r_max                   =   3.0863779721037E-07
(PID.TID 0000.0001) %MON vort_a_mean                  =   1.2074434650046E-04
(PID.TID 0000.0001) %MON vort_a_sd                    =   8.7672828044144E-06
(PID.TID 0000.0001) %MON vort_p_mean                  =   1.7734550359553E-04
(PID.TID 0000.0001) %MON vort_p_sd                    =   1.1734445415025E-04
(PID.TID 0000.0001) %MON surfExpan_theta_mean         =  -2.5234750939970E-09
(PID.TID 0000.0001) %MON surfExpan_salt_mean          =  -8.7139792668703E-10
(PID.TID 0000.0001) // =======================================================
(PID.TID 0000.0001) // End MONITOR dynamic field statistics
(PID.TID 0000.0001) // =======================================================
(PID.TID 0000.0001) // =======================================================
(PID.TID 0000.0001) // Begin MONITOR SEAICE statistics
(PID.TID 0000.0001) // =======================================================
(PID.TID 0000.0001) %MON seaice_tsnumber              =                     0
(PID.TID 0000.0001) %MON seaice_time_sec              =   0.0000000000000E+00
(PID.TID 0000.0001) %MON seaice_uice_max              =   0.0000000000000E+00
(PID.TID 0000.0001) %MON seaice_uice_min              =   0.0000000000000E+00
(PID.TID 0000.0001) %MON seaice_uice_mean             =   0.0000000000000E+00
(PID.TID 0000.0001) %MON seaice_uice_sd               =   0.0000000000000E+00
(PID.TID 0000.0001) %MON seaice_uice_del2             =   0.0000000000000E+00
(PID.TID 0000.0001) %MON seaice_vice_max              =   0.0000000000000E+00
(PID.TID 0000.0001) %MON seaice_vice_min              =   0.0000000000000E+00
(PID.TID 0000.0001) %MON seaice_vice_mean             =   0.0000000000000E+00
(PID.TID 0000.0001) %MON seaice_vice_sd               =   0.0000000000000E+00
(PID.TID 0000.0001) %MON seaice_vice_del2             =   0.0000000000000E+00
(PID.TID 0000.0001) %MON seaice_area_max              =   1.0000000000000E+00
(PID.TID 0000.0001) %MON seaice_area_min              =   0.0000000000000E+00
(PID.TID 0000.0001) %MON seaice_area_mean             =   3.1892242654168E-01
(PID.TID 0000.0001) %MON seaice_area_sd               =   4.4180255965464E-01
(PID.TID 0000.0001) %MON seaice_area_del2             =   2.1825388263643E-02
(PID.TID 0000.0001) %MON seaice_heff_max              =   1.6267043352127E+00
(PID.TID 0000.0001) %MON seaice_heff_min              =   0.0000000000000E+00
(PID.TID 0000.0001) %MON seaice_heff_mean             =   1.7018417713279E-01
(PID.TID 0000.0001) %MON seaice_heff_sd               =   3.3133654245466E-01
(PID.TID 0000.0001) %MON seaice_heff_del2             =   9.3768935006999E-03
(PID.TID 0000.0001) %MON seaice_hsnow_max             =   3.4525874257088E-01
(PID.TID 0000.0001) %MON seaice_hsnow_min             =   0.0000000000000E+00
(PID.TID 0000.0001) %MON seaice_hsnow_mean            =   3.0355852354147E-02
(PID.TID 0000.0001) %MON seaice_hsnow_sd              =   6.5055228569974E-02
(PID.TID 0000.0001) %MON seaice_hsnow_del2            =   2.1092246502145E-03
(PID.TID 0000.0001) // =======================================================
(PID.TID 0000.0001) // End MONITOR SEAICE statistics
(PID.TID 0000.0001) // =======================================================
(PID.TID 0000.0001)  MDS_READ_FIELD: opening global file: SSS_monthly.labsea1979
(PID.TID 0000.0001)  MDS_READ_FIELD: opening global file: SSS_monthly.labsea1979
(PID.TID 0000.0001)  MDS_READ_FIELD: opening global file: u10m.labsea1979
(PID.TID 0000.0001)  MDS_READ_FIELD: opening global file: u10m.labsea1979
(PID.TID 0000.0001)  MDS_READ_FIELD: opening global file: v10m.labsea1979
(PID.TID 0000.0001)  MDS_READ_FIELD: opening global file: v10m.labsea1979
(PID.TID 0000.0001)  MDS_READ_FIELD: opening global file: tair.labsea1979
(PID.TID 0000.0001)  MDS_READ_FIELD: opening global file: tair.labsea1979
(PID.TID 0000.0001)  MDS_READ_FIELD: opening global file: qa.labsea1979
(PID.TID 0000.0001)  MDS_READ_FIELD: opening global file: qa.labsea1979
(PID.TID 0000.0001)  MDS_READ_FIELD: opening global file: prate.labsea1979
(PID.TID 0000.0001)  MDS_READ_FIELD: opening global file: prate.labsea1979
(PID.TID 0000.0001)  MDS_READ_FIELD: opening global file: fsh.labsea1979
(PID.TID 0000.0001)  MDS_READ_FIELD: opening global file: fsh.labsea1979
(PID.TID 0000.0001)  MDS_READ_FIELD: opening global file: flo.labsea1979
(PID.TID 0000.0001)  MDS_READ_FIELD: opening global file: flo.labsea1979
(PID.TID 0000.0001) // =======================================================
(PID.TID 0000.0001) // Begin MONITOR EXF statistics
(PID.TID 0000.0001) // =======================================================
(PID.TID 0000.0001) %MON exf_tsnumber                 =                     0
(PID.TID 0000.0001) %MON exf_time_sec                 =   0.0000000000000E+00
(PID.TID 0000.0001) %MON exf_ustress_max              =   6.2591006380122E-02
(PID.TID 0000.0001) %MON exf_ustress_min              =  -9.3835413988280E-02
(PID.TID 0000.0001) %MON exf_ustress_mean             =   2.2458079649036E-02
(PID.TID 0000.0001) %MON exf_ustress_sd               =   2.6340941705137E-02
(PID.TID 0000.0001) %MON exf_ustress_del2             =   7.2600971254152E-04
(PID.TID 0000.0001) %MON exf_vstress_max              =   5.3854577139024E-02
(PID.TID 0000.0001) %MON exf_vstress_min              =  -5.9507418221407E-02
(PID.TID 0000.0001) %MON exf_vstress_mean             =  -5.2638556973739E-03
(PID.TID 0000.0001) %MON exf_vstress_sd               =   1.5105723224572E-02
(PID.TID 0000.0001) %MON exf_vstress_del2             =   5.1404984082935E-04
(PID.TID 0000.0001) %MON exf_hflux_max                =   6.3235647765246E+02
(PID.TID 0000.0001) %MON exf_hflux_min                =   8.9530207655674E+01
(PID.TID 0000.0001) %MON exf_hflux_mean               =   2.1601481005417E+02
(PID.TID 0000.0001) %MON exf_hflux_sd                 =   1.3234669364562E+02
(PID.TID 0000.0001) %MON exf_hflux_del2               =   5.2053732470957E+00
(PID.TID 0000.0001) %MON exf_sflux_max                =   4.0710842494884E-08
(PID.TID 0000.0001) %MON exf_sflux_min                =  -8.3161002492640E-08
(PID.TID 0000.0001) %MON exf_sflux_mean               =  -1.6149544686086E-08
(PID.TID 0000.0001) %MON exf_sflux_sd                 =   2.4277353153841E-08
(PID.TID 0000.0001) %MON exf_sflux_del2               =   1.0065780403315E-09
(PID.TID 0000.0001) %MON exf_uwind_max                =   6.4643745422363E+00
(PID.TID 0000.0001) %MON exf_uwind_min                =  -6.8372380733490E+00
(PID.TID 0000.0001) %MON exf_uwind_mean               =   2.8370181222452E+00
(PID.TID 0000.0001) %MON exf_uwind_sd                 =   2.9475532238360E+00
(PID.TID 0000.0001) %MON exf_uwind_del2               =   1.6988186825890E-01
(PID.TID 0000.0001) %MON exf_vwind_max                =   3.9240682125092E+00
(PID.TID 0000.0001) %MON exf_vwind_min                =  -6.0197033882141E+00
(PID.TID 0000.0001) %MON exf_vwind_mean               =  -7.4889380330521E-01
(PID.TID 0000.0001) %MON exf_vwind_sd                 =   1.7352211071507E+00
(PID.TID 0000.0001) %MON exf_vwind_del2               =   1.5460141596301E-01
(PID.TID 0000.0001) %MON exf_wspeed_max               =   7.8832820454477E+00
(PID.TID 0000.0001) %MON exf_wspeed_min               =   4.6035219539401E-01
(PID.TID 0000.0001) %MON exf_wspeed_mean              =   4.2109549956625E+00
(PID.TID 0000.0001) %MON exf_wspeed_sd                =   1.6051274332988E+00
(PID.TID 0000.0001) %MON exf_wspeed_del2              =   2.4139518544364E-01
(PID.TID 0000.0001) %MON exf_atemp_max                =   2.8188281250000E+02
(PID.TID 0000.0001) %MON exf_atemp_min                =   2.3646176910400E+02
(PID.TID 0000.0001) %MON exf_atemp_mean               =   2.6420336209095E+02
(PID.TID 0000.0001) %MON exf_atemp_sd                 =   1.1836420183398E+01
(PID.TID 0000.0001) %MON exf_atemp_del2               =   7.2395226395111E-01
(PID.TID 0000.0001) %MON exf_aqh_max                  =   6.3231729436666E-03
(PID.TID 0000.0001) %MON exf_aqh_min                  =   1.6369274817407E-04
(PID.TID 0000.0001) %MON exf_aqh_mean                 =   2.5064839851314E-03
(PID.TID 0000.0001) %MON exf_aqh_sd                   =   1.4163390074074E-03
(PID.TID 0000.0001) %MON exf_aqh_del2                 =   7.8609288607278E-05
(PID.TID 0000.0001) %MON exf_lwflux_max               =   1.8550934279729E+02
(PID.TID 0000.0001) %MON exf_lwflux_min               =   6.7038794074133E+01
(PID.TID 0000.0001) %MON exf_lwflux_mean              =   9.7155011940226E+01
(PID.TID 0000.0001) %MON exf_lwflux_sd                =   3.0663334456782E+01
(PID.TID 0000.0001) %MON exf_lwflux_del2              =   4.7387583432021E+00
(PID.TID 0000.0001) %MON exf_precip_max               =   1.0498766300771E-07
(PID.TID 0000.0001) %MON exf_precip_min               =   2.7359498694368E-10
(PID.TID 0000.0001) %MON exf_precip_mean              =   3.6703382093879E-08
(PID.TID 0000.0001) %MON exf_precip_sd                =   2.0516284487169E-08
(PID.TID 0000.0001) %MON exf_precip_del2              =   1.7241139049865E-09
(PID.TID 0000.0001) %MON exf_swflux_max               =  -8.1205755472183E-02
(PID.TID 0000.0001) %MON exf_swflux_min               =  -6.3973114013672E+01
(PID.TID 0000.0001) %MON exf_swflux_mean              =  -2.6786802948002E+01
(PID.TID 0000.0001) %MON exf_swflux_sd                =   1.9522797885510E+01
(PID.TID 0000.0001) %MON exf_swflux_del2              =   9.2023196393640E-02
(PID.TID 0000.0001) %MON exf_evap_max                 =   4.7035050318978E-08
(PID.TID 0000.0001) %MON exf_evap_min                 =   5.5248217499521E-09
(PID.TID 0000.0001) %MON exf_evap_mean                =   2.0553837407793E-08
(PID.TID 0000.0001) %MON exf_evap_sd                  =   6.9425121658951E-09
(PID.TID 0000.0001) %MON exf_evap_del2                =   1.0821980679275E-09
(PID.TID 0000.0001) %MON exf_swdown_max               =   7.1081237792969E+01
(PID.TID 0000.0001) %MON exf_swdown_min               =   9.0228617191315E-02
(PID.TID 0000.0001) %MON exf_swdown_mean              =   2.9763114386669E+01
(PID.TID 0000.0001) %MON exf_swdown_sd                =   2.1691997650567E+01
(PID.TID 0000.0001) %MON exf_swdown_del2              =   8.7967827391697E-01
(PID.TID 0000.0001) %MON exf_lwdown_max               =   3.0567971801758E+02
(PID.TID 0000.0001) %MON exf_lwdown_min               =   1.1599769210815E+02
(PID.TID 0000.0001) %MON exf_lwdown_mean              =   2.2684804443379E+02
(PID.TID 0000.0001) %MON exf_lwdown_sd                =   4.5866320108058E+01
(PID.TID 0000.0001) %MON exf_lwdown_del2              =   8.3967842620925E+00
(PID.TID 0000.0001) %MON exf_climsss_max              =   3.5040330886841E+01
(PID.TID 0000.0001) %MON exf_climsss_min              =   3.0666313171387E+01
(PID.TID 0000.0001) %MON exf_climsss_mean             =   3.3453764355664E+01
(PID.TID 0000.0001) %MON exf_climsss_sd               =   1.0369569882943E+00
(PID.TID 0000.0001) %MON exf_climsss_del2             =   2.7354876689838E-02
(PID.TID 0000.0001) // =======================================================
(PID.TID 0000.0001) // End MONITOR EXF statistics
(PID.TID 0000.0001) // =======================================================
(PID.TID 0000.0001) SOLVE_FOR_PRESSURE: putPmEinXvector =    F
 cg2d: Sum(rhs),rhsMax =   1.38777878078145E-16  3.21076095614243E-01
(PID.TID 0000.0001)      cg2d_init_res =   3.68155895494327E+00
(PID.TID 0000.0001)      cg2d_iters(min,last) =      -1      44
(PID.TID 0000.0001)      cg2d_last_res =   7.65821294679455E-13
(PID.TID 0000.0001) // =======================================================
(PID.TID 0000.0001) // Begin MONITOR dynamic field statistics
(PID.TID 0000.0001) // =======================================================
(PID.TID 0000.0001) %MON time_tsnumber                =                     1
(PID.TID 0000.0001) %MON time_secondsf                =   3.6000000000000E+03
(PID.TID 0000.0001) %MON dynstat_eta_max              =   5.0486245458490E-02
(PID.TID 0000.0001) %MON dynstat_eta_min              =  -7.5395785810815E-02
(PID.TID 0000.0001) %MON dynstat_eta_mean             =  -6.6013896095473E-16
(PID.TID 0000.0001) %MON dynstat_eta_sd               =   2.5148596018885E-02
(PID.TID 0000.0001) %MON dynstat_eta_del2             =   1.8070074553704E-03
(PID.TID 0000.0001) %MON dynstat_uvel_max             =   3.3370056364691E-02
(PID.TID 0000.0001) %MON dynstat_uvel_min             =  -2.4885816048142E-02
(PID.TID 0000.0001) %MON dynstat_uvel_mean            =   3.5279541040275E-04
(PID.TID 0000.0001) %MON dynstat_uvel_sd              =   3.1667040127600E-03
(PID.TID 0000.0001) %MON dynstat_uvel_del2            =   1.4803839897241E-04
(PID.TID 0000.0001) %MON dynstat_vvel_max             =   2.1260052355847E-02
(PID.TID 0000.0001) %MON dynstat_vvel_min             =  -5.2286090158156E-02
(PID.TID 0000.0001) %MON dynstat_vvel_mean            =  -1.3787803835224E-03
(PID.TID 0000.0001) %MON dynstat_vvel_sd              =   3.3163497896329E-03
(PID.TID 0000.0001) %MON dynstat_vvel_del2            =   1.2418110598969E-04
(PID.TID 0000.0001) %MON dynstat_wvel_max             =   5.2231243420021E-05
(PID.TID 0000.0001) %MON dynstat_wvel_min             =  -3.3298956650534E-05
(PID.TID 0000.0001) %MON dynstat_wvel_mean            =  -4.9544570483770E-23
(PID.TID 0000.0001) %MON dynstat_wvel_sd              =   1.3472483476763E-05
(PID.TID 0000.0001) %MON dynstat_wvel_del2            =   3.6469954927225E-07
(PID.TID 0000.0001) %MON dynstat_theta_max            =   1.2478892830414E+01
(PID.TID 0000.0001) %MON dynstat_theta_min            =  -1.8577137896229E+00
(PID.TID 0000.0001) %MON dynstat_theta_mean           =   3.0887639031777E+00
(PID.TID 0000.0001) %MON dynstat_theta_sd             =   1.4315914914284E+00
(PID.TID 0000.0001) %MON dynstat_theta_del2           =   1.7774737152693E-02
(PID.TID 0000.0001) %MON dynstat_salt_max             =   3.5292874730300E+01
(PID.TID 0000.0001) %MON dynstat_salt_min             =   3.0708027830051E+01
(PID.TID 0000.0001) %MON dynstat_salt_mean            =   3.4759296001332E+01
(PID.TID 0000.0001) %MON dynstat_salt_sd              =   4.2872753338867E-01
(PID.TID 0000.0001) %MON dynstat_salt_del2            =   4.0400954102579E-03
(PID.TID 0000.0001) %MON forcing_qnet_max             =   2.7469395350233E+02
(PID.TID 0000.0001) %MON forcing_qnet_min             =  -8.3539056148702E+01
(PID.TID 0000.0001) %MON forcing_qnet_mean            =   8.9408305869187E+01
(PID.TID 0000.0001) %MON forcing_qnet_sd              =   6.9500710662483E+01
(PID.TID 0000.0001) %MON forcing_qnet_del2            =   5.7987000004666E+00
(PID.TID 0000.0001) %MON forcing_qsw_max              =   0.0000000000000E+00
(PID.TID 0000.0001) %MON forcing_qsw_min              =  -6.3973114013672E+01
(PID.TID 0000.0001) %MON forcing_qsw_mean             =  -2.4715395743253E+01
(PID.TID 0000.0001) %MON forcing_qsw_sd               =   2.1121754215981E+01
(PID.TID 0000.0001) %MON forcing_qsw_del2             =   3.7620789974151E-01
(PID.TID 0000.0001) %MON forcing_empmr_max            =   8.0343878465999E-04
(PID.TID 0000.0001) %MON forcing_empmr_min            =  -8.3144370292142E-05
(PID.TID 0000.0001) %MON forcing_empmr_mean           =   5.1024340222272E-05
(PID.TID 0000.0001) %MON forcing_empmr_sd             =   1.3937950747822E-04
(PID.TID 0000.0001) %MON forcing_empmr_del2           =   1.5118948549111E-05
(PID.TID 0000.0001) %MON forcing_fu_max               =   6.2046177904916E-02
(PID.TID 0000.0001) %MON forcing_fu_min               =  -1.8186244009475E-02
(PID.TID 0000.0001) %MON forcing_fu_mean              =   2.4066564200821E-02
(PID.TID 0000.0001) %MON forcing_fu_sd                =   2.0916912614518E-02
(PID.TID 0000.0001) %MON forcing_fu_del2              =   8.3695324534098E-04
(PID.TID 0000.0001) %MON forcing_fv_max               =   1.4701493529220E-02
(PID.TID 0000.0001) %MON forcing_fv_min               =  -4.1890912750340E-02
(PID.TID 0000.0001) %MON forcing_fv_mean              =  -4.9010076916647E-03
(PID.TID 0000.0001) %MON forcing_fv_sd                =   1.1670101539360E-02
(PID.TID 0000.0001) %MON forcing_fv_del2              =   5.4256345720373E-04
(PID.TID 0000.0001) %MON advcfl_uvel_max              =   9.4178804078392E-04
(PID.TID 0000.0001) %MON advcfl_vvel_max              =   8.4639619022840E-04
(PID.TID 0000.0001) %MON advcfl_wvel_max              =   1.5079157162160E-02
(PID.TID 0000.0001) %MON advcfl_W_hf_max              =   7.7886616707632E-03
(PID.TID 0000.0001) %MON pe_b_mean                    =   2.0639728306621E-06
(PID.TID 0000.0001) %MON ke_max                       =   1.3976127547643E-03
(PID.TID 0000.0001) %MON ke_mean                      =   9.0275088308887E-06
(PID.TID 0000.0001) %MON ke_vol                       =   5.2906584519726E+15
(PID.TID 0000.0001) %MON vort_r_min                   =  -4.8250237057600E-07
(PID.TID 0000.0001) %MON vort_r_max                   =   2.4220920580318E-07
(PID.TID 0000.0001) %MON vort_a_mean                  =   1.2074434650046E-04
(PID.TID 0000.0001) %MON vort_a_sd                    =   8.7674787720905E-06
(PID.TID 0000.0001) %MON vort_p_mean                  =   1.7734550359553E-04
(PID.TID 0000.0001) %MON vort_p_sd                    =   1.1735848649780E-04
(PID.TID 0000.0001) %MON surfExpan_theta_mean         =   7.2851902272300E-06
(PID.TID 0000.0001) %MON surfExpan_salt_mean          =  -1.0543415591538E-06
(PID.TID 0000.0001) // =======================================================
(PID.TID 0000.0001) // End MONITOR dynamic field statistics
(PID.TID 0000.0001) // =======================================================
(PID.TID 0000.0001) // =======================================================
(PID.TID 0000.0001) // Begin MONITOR SEAICE statistics
(PID.TID 0000.0001) // =======================================================
(PID.TID 0000.0001) %MON seaice_tsnumber              =                     1
(PID.TID 0000.0001) %MON seaice_time_sec              =   3.6000000000000E+03
(PID.TID 0000.0001) %MON seaice_uice_max              =   1.1212498319504E-01
(PID.TID 0000.0001) %MON seaice_uice_min              =  -6.9198404847294E-02
(PID.TID 0000.0001) %MON seaice_uice_mean             =   4.7525003369268E-02
(PID.TID 0000.0001) %MON seaice_uice_sd               =   4.6028087031712E-02
(PID.TID 0000.0001) %MON seaice_uice_del2             =   1.5335041112012E-03
(PID.TID 0000.0001) %MON seaice_vice_max              =   5.1085209554032E-02
(PID.TID 0000.0001) %MON seaice_vice_min              =  -1.3008327937900E-01
(PID.TID 0000.0001) %MON seaice_vice_mean             =  -2.6323728561612E-02
(PID.TID 0000.0001) %MON seaice_vice_sd               =   4.0761413408905E-02
(PID.TID 0000.0001) %MON seaice_vice_del2             =   1.6872087726254E-03
(PID.TID 0000.0001) %MON seaice_area_max              =   9.9999530824701E-01
(PID.TID 0000.0001) %MON seaice_area_min              =   0.0000000000000E+00
(PID.TID 0000.0001) %MON seaice_area_mean             =   3.1906548363450E-01
(PID.TID 0000.0001) %MON seaice_area_sd               =   4.4180391899256E-01
(PID.TID 0000.0001) %MON seaice_area_del2             =   2.1802608971018E-02
(PID.TID 0000.0001) %MON seaice_heff_max              =   1.6269297021400E+00
(PID.TID 0000.0001) %MON seaice_heff_min              =   0.0000000000000E+00
(PID.TID 0000.0001) %MON seaice_heff_mean             =   1.7046485725655E-01
(PID.TID 0000.0001) %MON seaice_heff_sd               =   3.3144978689838E-01
(PID.TID 0000.0001) %MON seaice_heff_del2             =   9.3641452251204E-03
(PID.TID 0000.0001) %MON seaice_hsnow_max             =   3.4529340623842E-01
(PID.TID 0000.0001) %MON seaice_hsnow_min             =   0.0000000000000E+00
(PID.TID 0000.0001) %MON seaice_hsnow_mean            =   3.0405620542249E-02
(PID.TID 0000.0001) %MON seaice_hsnow_sd              =   6.5096141098847E-02
(PID.TID 0000.0001) %MON seaice_hsnow_del2            =   2.1113116269499E-03
(PID.TID 0000.0001) // =======================================================
(PID.TID 0000.0001) // End MONITOR SEAICE statistics
(PID.TID 0000.0001) // =======================================================
(PID.TID 0000.0001) // =======================================================
(PID.TID 0000.0001) // Begin MONITOR EXF statistics
(PID.TID 0000.0001) // =======================================================
(PID.TID 0000.0001) %MON exf_tsnumber                 =                     1
(PID.TID 0000.0001) %MON exf_time_sec                 =   3.6000000000000E+03
(PID.TID 0000.0001) %MON exf_ustress_max              =   6.2602047611654E-02
(PID.TID 0000.0001) %MON exf_ustress_min              =  -9.3838444780116E-02
(PID.TID 0000.0001) %MON exf_ustress_mean             =   2.2460761135636E-02
(PID.TID 0000.0001) %MON exf_ustress_sd               =   2.6345419745502E-02
(PID.TID 0000.0001) %MON exf_ustress_del2             =   7.2608826297205E-04
(PID.TID 0000.0001) %MON exf_vstress_max              =   5.3856519850891E-02
(PID.TID 0000.0001) %MON exf_vstress_min              =  -5.9490723956129E-02
(PID.TID 0000.0001) %MON exf_vstress_mean             =  -5.2593075190024E-03
(PID.TID 0000.0001) %MON exf_vstress_sd               =   1.5107339099156E-02
(PID.TID 0000.0001) %MON exf_vstress_del2             =   5.1407733429160E-04
(PID.TID 0000.0001) %MON exf_hflux_max                =   6.3246124692587E+02
(PID.TID 0000.0001) %MON exf_hflux_min                =   8.9526842472279E+01
(PID.TID 0000.0001) %MON exf_hflux_mean               =   2.1607288612668E+02
(PID.TID 0000.0001) %MON exf_hflux_sd                 =   1.3240035809164E+02
(PID.TID 0000.0001) %MON exf_hflux_del2               =   5.2054413680128E+00
(PID.TID 0000.0001) %MON exf_sflux_max                =   4.0717766427745E-08
(PID.TID 0000.0001) %MON exf_sflux_min                =  -8.3166994977651E-08
(PID.TID 0000.0001) %MON exf_sflux_mean               =  -1.6145134309783E-08
(PID.TID 0000.0001) %MON exf_sflux_sd                 =   2.4281776301364E-08
(PID.TID 0000.0001) %MON exf_sflux_del2               =   1.0065857479091E-09
(PID.TID 0000.0001) %MON exf_uwind_max                =   6.4648819946852E+00
(PID.TID 0000.0001) %MON exf_uwind_min                =  -6.8372648550513E+00
(PID.TID 0000.0001) %MON exf_uwind_mean               =   2.8371259923752E+00
(PID.TID 0000.0001) %MON exf_uwind_sd                 =   2.9478360963827E+00
(PID.TID 0000.0001) %MON exf_uwind_del2               =   8.0529766831477E-02
(PID.TID 0000.0001) %MON exf_vwind_max                =   3.9240983933048E+00
(PID.TID 0000.0001) %MON exf_vwind_min                =  -6.0187974783892E+00
(PID.TID 0000.0001) %MON exf_vwind_mean               =  -7.4826550865358E-01
(PID.TID 0000.0001) %MON exf_vwind_sd                 =   1.7353240656626E+00
(PID.TID 0000.0001) %MON exf_vwind_del2               =   4.8320498446218E-02
(PID.TID 0000.0001) %MON exf_wspeed_max               =   7.8833202965791E+00
(PID.TID 0000.0001) %MON exf_wspeed_min               =   4.6010935417159E-01
(PID.TID 0000.0001) %MON exf_wspeed_mean              =   4.2110579301607E+00
(PID.TID 0000.0001) %MON exf_wspeed_sd                =   1.6053857919163E+00
(PID.TID 0000.0001) %MON exf_wspeed_del2              =   2.4139227116736E-01
(PID.TID 0000.0001) %MON exf_atemp_max                =   2.8188110034713E+02
(PID.TID 0000.0001) %MON exf_atemp_min                =   2.3645730413635E+02
(PID.TID 0000.0001) %MON exf_atemp_mean               =   2.6419869255544E+02
(PID.TID 0000.0001) %MON exf_atemp_sd                 =   1.1837961872176E+01
(PID.TID 0000.0001) %MON exf_atemp_del2               =   7.2425811597890E-01
(PID.TID 0000.0001) %MON exf_aqh_max                  =   6.3224764028055E-03
(PID.TID 0000.0001) %MON exf_aqh_min                  =   1.6359864467567E-04
(PID.TID 0000.0001) %MON exf_aqh_mean                 =   2.5059176936890E-03
(PID.TID 0000.0001) %MON exf_aqh_sd                   =   1.4162426156286E-03
(PID.TID 0000.0001) %MON exf_aqh_del2                 =   7.8584773798079E-05
(PID.TID 0000.0001) %MON exf_lwflux_max               =   1.8553461538374E+02
(PID.TID 0000.0001) %MON exf_lwflux_min               =   6.7039869205182E+01
(PID.TID 0000.0001) %MON exf_lwflux_mean              =   9.7169284428529E+01
(PID.TID 0000.0001) %MON exf_lwflux_sd                =   3.0673058640435E+01
(PID.TID 0000.0001) %MON exf_lwflux_del2              =   4.7399779682492E+00
(PID.TID 0000.0001) %MON exf_precip_max               =   1.0498904445033E-07
(PID.TID 0000.0001) %MON exf_precip_min               =   2.7346106047101E-10
(PID.TID 0000.0001) %MON exf_precip_mean              =   3.6703364161130E-08
(PID.TID 0000.0001) %MON exf_precip_sd                =   2.0516750441311E-08
(PID.TID 0000.0001) %MON exf_precip_del2              =   1.7243972579400E-09
(PID.TID 0000.0001) %MON exf_swflux_max               =  -8.1206038349965E-02
(PID.TID 0000.0001) %MON exf_swflux_min               =  -6.3991984364244E+01
(PID.TID 0000.0001) %MON exf_swflux_mean              =  -2.6797468382408E+01
(PID.TID 0000.0001) %MON exf_swflux_sd                =   1.9526520290243E+01
(PID.TID 0000.0001) %MON exf_swflux_del2              =   9.2052326304183E-02
(PID.TID 0000.0001) %MON exf_evap_max                 =   4.7041311540907E-08
(PID.TID 0000.0001) %MON exf_evap_min                 =   5.5191992667733E-09
(PID.TID 0000.0001) %MON exf_evap_mean                =   2.0558229851347E-08
(PID.TID 0000.0001) %MON exf_evap_sd                  =   6.9430069524779E-09
(PID.TID 0000.0001) %MON exf_evap_del2                =   1.0826746157952E-09
(PID.TID 0000.0001) %MON exf_swdown_max               =   7.1102204849160E+01
(PID.TID 0000.0001) %MON exf_swdown_min               =   9.0228931499961E-02
(PID.TID 0000.0001) %MON exf_swdown_mean              =   2.9774964869343E+01
(PID.TID 0000.0001) %MON exf_swdown_sd                =   2.1696133655825E+01
(PID.TID 0000.0001) %MON exf_swdown_del2              =   8.8013687482599E-01
(PID.TID 0000.0001) %MON exf_lwdown_max               =   3.0567089193375E+02
(PID.TID 0000.0001) %MON exf_lwdown_min               =   1.1598258522951E+02
(PID.TID 0000.0001) %MON exf_lwdown_mean              =   2.2683221132984E+02
(PID.TID 0000.0001) %MON exf_lwdown_sd                =   4.5870571905766E+01
(PID.TID 0000.0001) %MON exf_lwdown_del2              =   8.3958030971217E+00
(PID.TID 0000.0001) %MON exf_climsss_max              =   3.5040515633880E+01
(PID.TID 0000.0001) %MON exf_climsss_min              =   3.0667072499385E+01
(PID.TID 0000.0001) %MON exf_climsss_mean             =   3.3454276887881E+01
(PID.TID 0000.0001) %MON exf_climsss_sd               =   1.0368790583257E+00
(PID.TID 0000.0001) %MON exf_climsss_del2             =   2.7352292621467E-02
(PID.TID 0000.0001) // =======================================================
(PID.TID 0000.0001) // End MONITOR EXF statistics
(PID.TID 0000.0001) // =======================================================
 cg2d: Sum(rhs),rhsMax =   8.07062749963450E-14  3.46570579811233E-01
(PID.TID 0000.0001)      cg2d_init_res =   4.93610118612590E-01
(PID.TID 0000.0001)      cg2d_iters(min,last) =      -1      41
(PID.TID 0000.0001)      cg2d_last_res =   8.23152871768364E-13
(PID.TID 0000.0001) // =======================================================
(PID.TID 0000.0001) // Begin MONITOR dynamic field statistics
(PID.TID 0000.0001) // =======================================================
(PID.TID 0000.0001) %MON time_tsnumber                =                     2
(PID.TID 0000.0001) %MON time_secondsf                =   7.2000000000000E+03
(PID.TID 0000.0001) %MON dynstat_eta_max              =   9.0418019174503E-02
(PID.TID 0000.0001) %MON dynstat_eta_min              =  -1.0089885488906E-01
(PID.TID 0000.0001) %MON dynstat_eta_mean             =  -3.6693663664107E-16
(PID.TID 0000.0001) %MON dynstat_eta_sd               =   3.9935218137911E-02
(PID.TID 0000.0001) %MON dynstat_eta_del2             =   1.9971602848231E-03
(PID.TID 0000.0001) %MON dynstat_uvel_max             =   4.3045069012708E-02
(PID.TID 0000.0001) %MON dynstat_uvel_min             =  -2.7929893960787E-02
(PID.TID 0000.0001) %MON dynstat_uvel_mean            =   1.8871334711786E-04
(PID.TID 0000.0001) %MON dynstat_uvel_sd              =   3.9633990413320E-03
(PID.TID 0000.0001) %MON dynstat_uvel_del2            =   1.9064711424228E-04
(PID.TID 0000.0001) %MON dynstat_vvel_max             =   1.3874080194791E-02
(PID.TID 0000.0001) %MON dynstat_vvel_min             =  -4.7291419048008E-02
(PID.TID 0000.0001) %MON dynstat_vvel_mean            =  -1.4427428858719E-03
(PID.TID 0000.0001) %MON dynstat_vvel_sd              =   3.2095581205244E-03
(PID.TID 0000.0001) %MON dynstat_vvel_del2            =   1.4772386909880E-04
(PID.TID 0000.0001) %MON dynstat_wvel_max             =   7.0292315608029E-05
(PID.TID 0000.0001) %MON dynstat_wvel_min             =  -4.6218706829642E-05
(PID.TID 0000.0001) %MON dynstat_wvel_mean            =   4.4590113435393E-22
(PID.TID 0000.0001) %MON dynstat_wvel_sd              =   1.6531692356411E-05
(PID.TID 0000.0001) %MON dynstat_wvel_del2            =   4.6277375570469E-07
(PID.TID 0000.0001) %MON dynstat_theta_max            =   1.2476377048578E+01
(PID.TID 0000.0001) %MON dynstat_theta_min            =  -1.8572573562634E+00
(PID.TID 0000.0001) %MON dynstat_theta_mean           =   3.0886799669447E+00
(PID.TID 0000.0001) %MON dynstat_theta_sd             =   1.4314605344701E+00
(PID.TID 0000.0001) %MON dynstat_theta_del2           =   1.7774406979638E-02
(PID.TID 0000.0001) %MON dynstat_salt_max             =   3.5292883680831E+01
(PID.TID 0000.0001) %MON dynstat_salt_min             =   3.0708045140763E+01
(PID.TID 0000.0001) %MON dynstat_salt_mean            =   3.4759303317933E+01
(PID.TID 0000.0001) %MON dynstat_salt_sd              =   4.2869548063508E-01
(PID.TID 0000.0001) %MON dynstat_salt_del2            =   4.0375663331349E-03
(PID.TID 0000.0001) %MON forcing_qnet_max             =   2.7465670935750E+02
(PID.TID 0000.0001) %MON forcing_qnet_min             =  -6.9147747828613E+01
(PID.TID 0000.0001) %MON forcing_qnet_mean            =   9.5814699854525E+01
(PID.TID 0000.0001) %MON forcing_qnet_sd              =   6.3285566224290E+01
(PID.TID 0000.0001) %MON forcing_qnet_del2            =   5.1506162571821E+00
(PID.TID 0000.0001) %MON forcing_qsw_max              =   0.0000000000000E+00
(PID.TID 0000.0001) %MON forcing_qsw_min              =  -6.3991984364244E+01
(PID.TID 0000.0001) %MON forcing_qsw_mean             =  -2.4720989427241E+01
(PID.TID 0000.0001) %MON forcing_qsw_sd               =   2.1127581464281E+01
(PID.TID 0000.0001) %MON forcing_qsw_del2             =   3.7624960024659E-01
(PID.TID 0000.0001) %MON forcing_empmr_max            =   7.5812877353102E-04
(PID.TID 0000.0001) %MON forcing_empmr_min            =  -8.3150361578656E-05
(PID.TID 0000.0001) %MON forcing_empmr_mean           =   3.1711176392139E-05
(PID.TID 0000.0001) %MON forcing_empmr_sd             =   1.1592956902077E-04
(PID.TID 0000.0001) %MON forcing_empmr_del2           =   1.1163236425019E-05
(PID.TID 0000.0001) %MON forcing_fu_max               =   6.2056297628509E-02
(PID.TID 0000.0001) %MON forcing_fu_min               =  -1.8185553806240E-02
(PID.TID 0000.0001) %MON forcing_fu_mean              =   2.4085353409789E-02
(PID.TID 0000.0001) %MON forcing_fu_sd                =   2.0844668839460E-02
(PID.TID 0000.0001) %MON forcing_fu_del2              =   7.9819670428066E-04
(PID.TID 0000.0001) %MON forcing_fv_max               =   1.4705204180701E-02
(PID.TID 0000.0001) %MON forcing_fv_min               =  -4.1876813032219E-02
(PID.TID 0000.0001) %MON forcing_fv_mean              =  -4.8504294750580E-03
(PID.TID 0000.0001) %MON forcing_fv_sd                =   1.1751294702531E-02
(PID.TID 0000.0001) %MON forcing_fv_del2              =   5.9035664235846E-04
(PID.TID 0000.0001) %MON advcfl_uvel_max              =   1.2148415563895E-03
(PID.TID 0000.0001) %MON advcfl_vvel_max              =   7.6554350863975E-04
(PID.TID 0000.0001) %MON advcfl_wvel_max              =   8.3967955806662E-03
(PID.TID 0000.0001) %MON advcfl_W_hf_max              =   4.8265158498563E-03
(PID.TID 0000.0001) %MON pe_b_mean                    =   5.2046150004226E-06
(PID.TID 0000.0001) %MON ke_max                       =   1.1320667174894E-03
(PID.TID 0000.0001) %MON ke_mean                      =   1.1035036210876E-05
(PID.TID 0000.0001) %MON ke_vol                       =   5.2906584519726E+15
(PID.TID 0000.0001) %MON vort_r_min                   =  -3.6833017114716E-07
(PID.TID 0000.0001) %MON vort_r_max                   =   2.0553966577293E-07
(PID.TID 0000.0001) %MON vort_a_mean                  =   1.2074434650046E-04
(PID.TID 0000.0001) %MON vort_a_sd                    =   8.7672543779763E-06
(PID.TID 0000.0001) %MON vort_p_mean                  =   1.7734550359553E-04
(PID.TID 0000.0001) %MON vort_p_sd                    =   1.1736294192576E-04
(PID.TID 0000.0001) %MON surfExpan_theta_mean         =   7.3465825749937E-06
(PID.TID 0000.0001) %MON surfExpan_salt_mean          =  -8.5275947369512E-07
(PID.TID 0000.0001) // =======================================================
(PID.TID 0000.0001) // End MONITOR dynamic field statistics
(PID.TID 0000.0001) // =======================================================
(PID.TID 0000.0001) // =======================================================
(PID.TID 0000.0001) // Begin MONITOR SEAICE statistics
(PID.TID 0000.0001) // =======================================================
(PID.TID 0000.0001) %MON seaice_tsnumber              =                     2
(PID.TID 0000.0001) %MON seaice_time_sec              =   7.2000000000000E+03
(PID.TID 0000.0001) %MON seaice_uice_max              =   1.2204224673798E-01
(PID.TID 0000.0001) %MON seaice_uice_min              =  -7.2887015466080E-02
(PID.TID 0000.0001) %MON seaice_uice_mean             =   5.1521426186611E-02
(PID.TID 0000.0001) %MON seaice_uice_sd               =   4.7737412187205E-02
(PID.TID 0000.0001) %MON seaice_uice_del2             =   1.6989257665509E-03
(PID.TID 0000.0001) %MON seaice_vice_max              =   4.3638836052886E-02
(PID.TID 0000.0001) %MON seaice_vice_min              =  -1.1230767355495E-01
(PID.TID 0000.0001) %MON seaice_vice_mean             =  -2.3803832649844E-02
(PID.TID 0000.0001) %MON seaice_vice_sd               =   3.7361514959091E-02
(PID.TID 0000.0001) %MON seaice_vice_del2             =   1.5657907972372E-03
(PID.TID 0000.0001) %MON seaice_area_max              =   9.9999301031714E-01
(PID.TID 0000.0001) %MON seaice_area_min              =   0.0000000000000E+00
(PID.TID 0000.0001) %MON seaice_area_mean             =   3.1905018119871E-01
(PID.TID 0000.0001) %MON seaice_area_sd               =   4.4165447346127E-01
(PID.TID 0000.0001) %MON seaice_area_del2             =   2.1776339207998E-02
(PID.TID 0000.0001) %MON seaice_heff_max              =   1.6270030747539E+00
(PID.TID 0000.0001) %MON seaice_heff_min              =   0.0000000000000E+00
(PID.TID 0000.0001) %MON seaice_heff_mean             =   1.7066918497256E-01
(PID.TID 0000.0001) %MON seaice_heff_sd               =   3.3155341991467E-01
(PID.TID 0000.0001) %MON seaice_heff_del2             =   9.3651507416787E-03
(PID.TID 0000.0001) %MON seaice_hsnow_max             =   3.4542619050997E-01
(PID.TID 0000.0001) %MON seaice_hsnow_min             =   0.0000000000000E+00
(PID.TID 0000.0001) %MON seaice_hsnow_mean            =   3.0455291653748E-02
(PID.TID 0000.0001) %MON seaice_hsnow_sd              =   6.5136896700816E-02
(PID.TID 0000.0001) %MON seaice_hsnow_del2            =   2.1133169475604E-03
(PID.TID 0000.0001) // =======================================================
(PID.TID 0000.0001) // End MONITOR SEAICE statistics
(PID.TID 0000.0001) // =======================================================
(PID.TID 0000.0001) // =======================================================
(PID.TID 0000.0001) // Begin MONITOR EXF statistics
(PID.TID 0000.0001) // =======================================================
(PID.TID 0000.0001) %MON exf_tsnumber                 =                     2
(PID.TID 0000.0001) %MON exf_time_sec                 =   7.2000000000000E+03
(PID.TID 0000.0001) %MON exf_ustress_max              =   6.2613141049734E-02
(PID.TID 0000.0001) %MON exf_ustress_min              =  -9.3841419883693E-02
(PID.TID 0000.0001) %MON exf_ustress_mean             =   2.2463392633720E-02
(PID.TID 0000.0001) %MON exf_ustress_sd               =   2.6349698008843E-02
(PID.TID 0000.0001) %MON exf_ustress_del2             =   7.2616048826006E-04
(PID.TID 0000.0001) %MON exf_vstress_max              =   5.3858430613118E-02
(PID.TID 0000.0001) %MON exf_vstress_min              =  -5.9473911178760E-02
(PID.TID 0000.0001) %MON exf_vstress_mean             =  -5.2546301517069E-03
(PID.TID 0000.0001) %MON exf_vstress_sd               =   1.5108718685076E-02
(PID.TID 0000.0001) %MON exf_vstress_del2             =   5.1409757049436E-04
(PID.TID 0000.0001) %MON exf_hflux_max                =   6.3256247464242E+02
(PID.TID 0000.0001) %MON exf_hflux_min                =   8.9526385678513E+01
(PID.TID 0000.0001) %MON exf_hflux_mean               =   2.1611215694925E+02
(PID.TID 0000.0001) %MON exf_hflux_sd                 =   1.3245115505669E+02
(PID.TID 0000.0001) %MON exf_hflux_del2               =   5.2074430217179E+00
(PID.TID 0000.0001) %MON exf_sflux_max                =   4.0724224244784E-08
(PID.TID 0000.0001) %MON exf_sflux_min                =  -8.3173728806434E-08
(PID.TID 0000.0001) %MON exf_sflux_mean               =  -1.6142983248419E-08
(PID.TID 0000.0001) %MON exf_sflux_sd                 =   2.4285871636695E-08
(PID.TID 0000.0001) %MON exf_sflux_del2               =   1.0067850817788E-09
(PID.TID 0000.0001) %MON exf_uwind_max                =   6.4653894471340E+00
(PID.TID 0000.0001) %MON exf_uwind_min                =  -6.8372916367536E+00
(PID.TID 0000.0001) %MON exf_uwind_mean               =   2.8372338625051E+00
(PID.TID 0000.0001) %MON exf_uwind_sd                 =   2.9481190093074E+00
(PID.TID 0000.0001) %MON exf_uwind_del2               =   8.0529645937023E-02
(PID.TID 0000.0001) %MON exf_vwind_max                =   3.9241285741003E+00
(PID.TID 0000.0001) %MON exf_vwind_min                =  -6.0178915685643E+00
(PID.TID 0000.0001) %MON exf_vwind_mean               =  -7.4763721400196E-01
(PID.TID 0000.0001) %MON exf_vwind_sd                 =   1.7354271340559E+00
(PID.TID 0000.0001) %MON exf_vwind_del2               =   4.8320777218940E-02
(PID.TID 0000.0001) %MON exf_wspeed_max               =   7.8833585477315E+00
(PID.TID 0000.0001) %MON exf_wspeed_min               =   4.5986651533145E-01
(PID.TID 0000.0001) %MON exf_wspeed_mean              =   4.2111609950724E+00
(PID.TID 0000.0001) %MON exf_wspeed_sd                =   1.6056442627631E+00
(PID.TID 0000.0001) %MON exf_wspeed_del2              =   2.4138936389485E-01
(PID.TID 0000.0001) %MON exf_atemp_max                =   2.8187938819427E+02
(PID.TID 0000.0001) %MON exf_atemp_min                =   2.3645283916869E+02
(PID.TID 0000.0001) %MON exf_atemp_mean               =   2.6419402301992E+02
(PID.TID 0000.0001) %MON exf_atemp_sd                 =   1.1839504038380E+01
(PID.TID 0000.0001) %MON exf_atemp_del2               =   7.2456402669149E-01
(PID.TID 0000.0001) %MON exf_aqh_max                  =   6.3217798619445E-03
(PID.TID 0000.0001) %MON exf_aqh_min                  =   1.6350454117726E-04
(PID.TID 0000.0001) %MON exf_aqh_mean                 =   2.5053514022466E-03
(PID.TID 0000.0001) %MON exf_aqh_sd                   =   1.4161462594733E-03
(PID.TID 0000.0001) %MON exf_aqh_del2                 =   7.8560262105827E-05
(PID.TID 0000.0001) %MON exf_lwflux_max               =   1.8555139027515E+02
(PID.TID 0000.0001) %MON exf_lwflux_min               =   6.7041360780288E+01
(PID.TID 0000.0001) %MON exf_lwflux_mean              =   9.7179217751848E+01
(PID.TID 0000.0001) %MON exf_lwflux_sd                =   3.0682776378773E+01
(PID.TID 0000.0001) %MON exf_lwflux_del2              =   4.7410642725308E+00
(PID.TID 0000.0001) %MON exf_precip_max               =   1.0499042589295E-07
(PID.TID 0000.0001) %MON exf_precip_min               =   2.7332713399833E-10
(PID.TID 0000.0001) %MON exf_precip_mean              =   3.6703346228381E-08
(PID.TID 0000.0001) %MON exf_precip_sd                =   2.0517217060634E-08
(PID.TID 0000.0001) %MON exf_precip_del2              =   1.7246806573498E-09
(PID.TID 0000.0001) %MON exf_swflux_max               =  -8.1206321227746E-02
(PID.TID 0000.0001) %MON exf_swflux_min               =  -6.4010854714816E+01
(PID.TID 0000.0001) %MON exf_swflux_mean              =  -2.6808133816815E+01
(PID.TID 0000.0001) %MON exf_swflux_sd                =   1.9530243278558E+01
(PID.TID 0000.0001) %MON exf_swflux_del2              =   9.2081534898848E-02
(PID.TID 0000.0001) %MON exf_evap_max                 =   4.7047106647017E-08
(PID.TID 0000.0001) %MON exf_evap_min                 =   5.5080092021064E-09
(PID.TID 0000.0001) %MON exf_evap_mean                =   2.0560362979962E-08
(PID.TID 0000.0001) %MON exf_evap_sd                  =   6.9444918536871E-09
(PID.TID 0000.0001) %MON exf_evap_del2                =   1.0830900772387E-09
(PID.TID 0000.0001) %MON exf_swdown_max               =   7.1123171905351E+01
(PID.TID 0000.0001) %MON exf_swdown_min               =   9.0229245808607E-02
(PID.TID 0000.0001) %MON exf_swdown_mean              =   2.9786815352017E+01
(PID.TID 0000.0001) %MON exf_swdown_sd                =   2.1700270309509E+01
(PID.TID 0000.0001) %MON exf_swdown_del2              =   8.8059557292422E-01
(PID.TID 0000.0001) %MON exf_lwdown_max               =   3.0566206584993E+02
(PID.TID 0000.0001) %MON exf_lwdown_min               =   1.1596747835086E+02
(PID.TID 0000.0001) %MON exf_lwdown_mean              =   2.2681637822588E+02
(PID.TID 0000.0001) %MON exf_lwdown_sd                =   4.5874824822655E+01
(PID.TID 0000.0001) %MON exf_lwdown_del2              =   8.3948219739597E+00
(PID.TID 0000.0001) %MON exf_climsss_max              =   3.5040700380919E+01
(PID.TID 0000.0001) %MON exf_climsss_min              =   3.0667831827383E+01
(PID.TID 0000.0001) %MON exf_climsss_mean             =   3.3454789420098E+01
(PID.TID 0000.0001) %MON exf_climsss_sd               =   1.0368013469837E+00
(PID.TID 0000.0001) %MON exf_climsss_del2             =   2.7349724435664E-02
(PID.TID 0000.0001) // =======================================================
(PID.TID 0000.0001) // End MONITOR EXF statistics
(PID.TID 0000.0001) // =======================================================
 cg2d: Sum(rhs),rhsMax =   4.70179450928754E-14  3.62053344745046E-01
(PID.TID 0000.0001)      cg2d_init_res =   2.18028654270580E-01
(PID.TID 0000.0001)      cg2d_iters(min,last) =      -1      41
(PID.TID 0000.0001)      cg2d_last_res =   5.82983498482422E-13
(PID.TID 0000.0001) // =======================================================
(PID.TID 0000.0001) // Begin MONITOR dynamic field statistics
(PID.TID 0000.0001) // =======================================================
(PID.TID 0000.0001) %MON time_tsnumber                =                     3
(PID.TID 0000.0001) %MON time_secondsf                =   1.0800000000000E+04
(PID.TID 0000.0001) %MON dynstat_eta_max              =   1.0660472069282E-01
(PID.TID 0000.0001) %MON dynstat_eta_min              =  -1.0589930597836E-01
(PID.TID 0000.0001) %MON dynstat_eta_mean             =   6.4235597974636E-16
(PID.TID 0000.0001) %MON dynstat_eta_sd               =   4.6741309330580E-02
(PID.TID 0000.0001) %MON dynstat_eta_del2             =   1.8955169787328E-03
(PID.TID 0000.0001) %MON dynstat_uvel_max             =   4.6106494651346E-02
(PID.TID 0000.0001) %MON dynstat_uvel_min             =  -3.2306962125923E-02
(PID.TID 0000.0001) %MON dynstat_uvel_mean            =   1.0715331153696E-04
(PID.TID 0000.0001) %MON dynstat_uvel_sd              =   4.3255157702445E-03
(PID.TID 0000.0001) %MON dynstat_uvel_del2            =   2.0372553097471E-04
(PID.TID 0000.0001) %MON dynstat_vvel_max             =   1.5461413196541E-02
(PID.TID 0000.0001) %MON dynstat_vvel_min             =  -4.4865799370324E-02
(PID.TID 0000.0001) %MON dynstat_vvel_mean            =  -9.3497257125665E-04
(PID.TID 0000.0001) %MON dynstat_vvel_sd              =   3.3686377230693E-03
(PID.TID 0000.0001) %MON dynstat_vvel_del2            =   1.6495058510976E-04
(PID.TID 0000.0001) %MON dynstat_wvel_max             =   8.0850340583067E-05
(PID.TID 0000.0001) %MON dynstat_wvel_min             =  -4.6265986076035E-05
(PID.TID 0000.0001) %MON dynstat_wvel_mean            =  -1.9817828193508E-22
(PID.TID 0000.0001) %MON dynstat_wvel_sd              =   1.7565658706066E-05
(PID.TID 0000.0001) %MON dynstat_wvel_del2            =   5.0181978933848E-07
(PID.TID 0000.0001) %MON dynstat_theta_max            =   1.2475585782268E+01
(PID.TID 0000.0001) %MON dynstat_theta_min            =  -1.8573361774882E+00
(PID.TID 0000.0001) %MON dynstat_theta_mean           =   3.0886047232901E+00
(PID.TID 0000.0001) %MON dynstat_theta_sd             =   1.4313922878630E+00
(PID.TID 0000.0001) %MON dynstat_theta_del2           =   1.7778004591558E-02
(PID.TID 0000.0001) %MON dynstat_salt_max             =   3.5292869592340E+01
(PID.TID 0000.0001) %MON dynstat_salt_min             =   3.0708060948262E+01
(PID.TID 0000.0001) %MON dynstat_salt_mean            =   3.4759307776144E+01
(PID.TID 0000.0001) %MON dynstat_salt_sd              =   4.2867368653472E-01
(PID.TID 0000.0001) %MON dynstat_salt_del2            =   4.0372026712457E-03
(PID.TID 0000.0001) %MON forcing_qnet_max             =   2.7461395210977E+02
(PID.TID 0000.0001) %MON forcing_qnet_min             =  -5.0568606068321E+01
(PID.TID 0000.0001) %MON forcing_qnet_mean            =   9.8447503123070E+01
(PID.TID 0000.0001) %MON forcing_qnet_sd              =   6.1136313085975E+01
(PID.TID 0000.0001) %MON forcing_qnet_del2            =   5.2889119118350E+00
(PID.TID 0000.0001) %MON forcing_qsw_max              =   0.0000000000000E+00
(PID.TID 0000.0001) %MON forcing_qsw_min              =  -6.4010854714816E+01
(PID.TID 0000.0001) %MON forcing_qsw_mean             =  -2.4728825763015E+01
(PID.TID 0000.0001) %MON forcing_qsw_sd               =   2.1131442050984E+01
(PID.TID 0000.0001) %MON forcing_qsw_del2             =   3.7641326614200E-01
(PID.TID 0000.0001) %MON forcing_empmr_max            =   7.0040579975933E-04
(PID.TID 0000.0001) %MON forcing_empmr_min            =  -8.3157094060672E-05
(PID.TID 0000.0001) %MON forcing_empmr_mean           =   2.3767238128963E-05
(PID.TID 0000.0001) %MON forcing_empmr_sd             =   1.0524991879332E-04
(PID.TID 0000.0001) %MON forcing_empmr_del2           =   1.0760632054085E-05
(PID.TID 0000.0001) %MON forcing_fu_max               =   6.2066411770324E-02
(PID.TID 0000.0001) %MON forcing_fu_min               =  -1.8198404010529E-02
(PID.TID 0000.0001) %MON forcing_fu_mean              =   2.4038841810983E-02
(PID.TID 0000.0001) %MON forcing_fu_sd                =   2.0886641548835E-02
(PID.TID 0000.0001) %MON forcing_fu_del2              =   7.8839685851274E-04
(PID.TID 0000.0001) %MON forcing_fv_max               =   1.4708893061624E-02
(PID.TID 0000.0001) %MON forcing_fv_min               =  -4.1862616691147E-02
(PID.TID 0000.0001) %MON forcing_fv_mean              =  -4.8409554702532E-03
(PID.TID 0000.0001) %MON forcing_fv_sd                =   1.1757007174876E-02
(PID.TID 0000.0001) %MON forcing_fv_del2              =   4.9343961569799E-04
(PID.TID 0000.0001) %MON advcfl_uvel_max              =   1.3012427905591E-03
(PID.TID 0000.0001) %MON advcfl_vvel_max              =   7.2627808932985E-04
(PID.TID 0000.0001) %MON advcfl_wvel_max              =   4.7545665692792E-03
(PID.TID 0000.0001) %MON advcfl_W_hf_max              =   3.3057064460023E-03
(PID.TID 0000.0001) %MON pe_b_mean                    =   7.1298145643272E-06
(PID.TID 0000.0001) %MON ke_max                       =   9.9669876659679E-04
(PID.TID 0000.0001) %MON ke_mean                      =   1.2148385874940E-05
(PID.TID 0000.0001) %MON ke_vol                       =   5.2906584519726E+15
(PID.TID 0000.0001) %MON vort_r_min                   =  -3.1472646601729E-07
(PID.TID 0000.0001) %MON vort_r_max                   =   1.9062803604809E-07
(PID.TID 0000.0001) %MON vort_a_mean                  =   1.2074434650046E-04
(PID.TID 0000.0001) %MON vort_a_sd                    =   8.7671447845820E-06
(PID.TID 0000.0001) %MON vort_p_mean                  =   1.7734550359553E-04
(PID.TID 0000.0001) %MON vort_p_sd                    =   1.1736328703396E-04
(PID.TID 0000.0001) %MON surfExpan_theta_mean         =   5.2939056596222E-06
(PID.TID 0000.0001) %MON surfExpan_salt_mean          =  -4.1065147135539E-07
(PID.TID 0000.0001) // =======================================================
(PID.TID 0000.0001) // End MONITOR dynamic field statistics
(PID.TID 0000.0001) // =======================================================
(PID.TID 0000.0001) // =======================================================
(PID.TID 0000.0001) // Begin MONITOR SEAICE statistics
(PID.TID 0000.0001) // =======================================================
(PID.TID 0000.0001) %MON seaice_tsnumber              =                     3
(PID.TID 0000.0001) %MON seaice_time_sec              =   1.0800000000000E+04
(PID.TID 0000.0001) %MON seaice_uice_max              =   1.2815420759547E-01
(PID.TID 0000.0001) %MON seaice_uice_min              =  -7.6222306428950E-02
(PID.TID 0000.0001) %MON seaice_uice_mean             =   5.3602780070074E-02
(PID.TID 0000.0001) %MON seaice_uice_sd               =   4.8817752999210E-02
(PID.TID 0000.0001) %MON seaice_uice_del2             =   1.8341937448731E-03
(PID.TID 0000.0001) %MON seaice_vice_max              =   3.7086138258719E-02
(PID.TID 0000.0001) %MON seaice_vice_min              =  -1.1348111849703E-01
(PID.TID 0000.0001) %MON seaice_vice_mean             =  -2.1721213689378E-02
(PID.TID 0000.0001) %MON seaice_vice_sd               =   3.5193586785973E-02
(PID.TID 0000.0001) %MON seaice_vice_del2             =   1.5763056109494E-03
(PID.TID 0000.0001) %MON seaice_area_max              =   9.9998978377682E-01
(PID.TID 0000.0001) %MON seaice_area_min              =   0.0000000000000E+00
(PID.TID 0000.0001) %MON seaice_area_mean             =   3.1897686610217E-01
(PID.TID 0000.0001) %MON seaice_area_sd               =   4.4144202941840E-01
(PID.TID 0000.0001) %MON seaice_area_del2             =   2.1751410215117E-02
(PID.TID 0000.0001) %MON seaice_heff_max              =   1.6270940315100E+00
(PID.TID 0000.0001) %MON seaice_heff_min              =   0.0000000000000E+00
(PID.TID 0000.0001) %MON seaice_heff_mean             =   1.7084213382185E-01
(PID.TID 0000.0001) %MON seaice_heff_sd               =   3.3164939254251E-01
(PID.TID 0000.0001) %MON seaice_heff_del2             =   9.3690821526694E-03
(PID.TID 0000.0001) %MON seaice_hsnow_max             =   3.4559614618338E-01
(PID.TID 0000.0001) %MON seaice_hsnow_min             =   0.0000000000000E+00
(PID.TID 0000.0001) %MON seaice_hsnow_mean            =   3.0504849352857E-02
(PID.TID 0000.0001) %MON seaice_hsnow_sd              =   6.5177846718996E-02
(PID.TID 0000.0001) %MON seaice_hsnow_del2            =   2.1153574011700E-03
(PID.TID 0000.0001) // =======================================================
(PID.TID 0000.0001) // End MONITOR SEAICE statistics
(PID.TID 0000.0001) // =======================================================
(PID.TID 0000.0001) // =======================================================
(PID.TID 0000.0001) // Begin MONITOR EXF statistics
(PID.TID 0000.0001) // =======================================================
(PID.TID 0000.0001) %MON exf_tsnumber                 =                     3
(PID.TID 0000.0001) %MON exf_time_sec                 =   1.0800000000000E+04
(PID.TID 0000.0001) %MON exf_ustress_max              =   6.2624065293658E-02
(PID.TID 0000.0001) %MON exf_ustress_min              =  -9.3844318737615E-02
(PID.TID 0000.0001) %MON exf_ustress_mean             =   2.2465966742408E-02
(PID.TID 0000.0001) %MON exf_ustress_sd               =   2.6353938476179E-02
(PID.TID 0000.0001) %MON exf_ustress_del2             =   7.2622581673818E-04
(PID.TID 0000.0001) %MON exf_vstress_max              =   5.3860297624492E-02
(PID.TID 0000.0001) %MON exf_vstress_min              =  -5.9457148994082E-02
(PID.TID 0000.0001) %MON exf_vstress_mean             =  -5.2498975292705E-03
(PID.TID 0000.0001) %MON exf_vstress_sd               =   1.5110013640608E-02
(PID.TID 0000.0001) %MON exf_vstress_del2             =   5.1410998605023E-04
(PID.TID 0000.0001) %MON exf_hflux_max                =   6.3265884670960E+02
(PID.TID 0000.0001) %MON exf_hflux_min                =   8.9527717369294E+01
(PID.TID 0000.0001) %MON exf_hflux_mean               =   2.1614553411162E+02
(PID.TID 0000.0001) %MON exf_hflux_sd                 =   1.3249826178813E+02
(PID.TID 0000.0001) %MON exf_hflux_del2               =   5.2092774915945E+00
(PID.TID 0000.0001) %MON exf_sflux_max                =   4.0730043031225E-08
(PID.TID 0000.0001) %MON exf_sflux_min                =  -8.3180172803887E-08
(PID.TID 0000.0001) %MON exf_sflux_mean               =  -1.6141550085595E-08
(PID.TID 0000.0001) %MON exf_sflux_sd                 =   2.4289475695861E-08
(PID.TID 0000.0001) %MON exf_sflux_del2               =   1.0070766119976E-09
(PID.TID 0000.0001) %MON exf_uwind_max                =   6.4658968995829E+00
(PID.TID 0000.0001) %MON exf_uwind_min                =  -6.8373184184559E+00
(PID.TID 0000.0001) %MON exf_uwind_mean               =   2.8373417326351E+00
(PID.TID 0000.0001) %MON exf_uwind_sd                 =   2.9484019625984E+00
(PID.TID 0000.0001) %MON exf_uwind_del2               =   8.0529528608703E-02
(PID.TID 0000.0001) %MON exf_vwind_max                =   3.9241587548959E+00
(PID.TID 0000.0001) %MON exf_vwind_min                =  -6.0169856587394E+00
(PID.TID 0000.0001) %MON exf_vwind_mean               =  -7.4700891935033E-01
(PID.TID 0000.0001) %MON exf_vwind_sd                 =   1.7355303123109E+00
(PID.TID 0000.0001) %MON exf_vwind_del2               =   4.8321063174926E-02
(PID.TID 0000.0001) %MON exf_wspeed_max               =   7.8833967989048E+00
(PID.TID 0000.0001) %MON exf_wspeed_min               =   4.5962367887737E-01
(PID.TID 0000.0001) %MON exf_wspeed_mean              =   4.2112641903854E+00
(PID.TID 0000.0001) %MON exf_wspeed_sd                =   1.6059028457924E+00
(PID.TID 0000.0001) %MON exf_wspeed_del2              =   2.4138646363537E-01
(PID.TID 0000.0001) %MON exf_atemp_max                =   2.8187767604140E+02
(PID.TID 0000.0001) %MON exf_atemp_min                =   2.3644837420104E+02
(PID.TID 0000.0001) %MON exf_atemp_mean               =   2.6418935348440E+02
(PID.TID 0000.0001) %MON exf_atemp_sd                 =   1.1841046681824E+01
(PID.TID 0000.0001) %MON exf_atemp_del2               =   7.2486999601457E-01
(PID.TID 0000.0001) %MON exf_aqh_max                  =   6.3210833210834E-03
(PID.TID 0000.0001) %MON exf_aqh_min                  =   1.6341043767886E-04
(PID.TID 0000.0001) %MON exf_aqh_mean                 =   2.5047851108042E-03
(PID.TID 0000.0001) %MON exf_aqh_sd                   =   1.4160499389486E-03
(PID.TID 0000.0001) %MON exf_aqh_del2                 =   7.8535753533440E-05
(PID.TID 0000.0001) %MON exf_lwflux_max               =   1.8556627566329E+02
(PID.TID 0000.0001) %MON exf_lwflux_min               =   6.7043135650239E+01
(PID.TID 0000.0001) %MON exf_lwflux_mean              =   9.7187886616013E+01
(PID.TID 0000.0001) %MON exf_lwflux_sd                =   3.0691932708577E+01
(PID.TID 0000.0001) %MON exf_lwflux_del2              =   4.7420246962867E+00
(PID.TID 0000.0001) %MON exf_precip_max               =   1.0499180733557E-07
(PID.TID 0000.0001) %MON exf_precip_min               =   2.7319320752566E-10
(PID.TID 0000.0001) %MON exf_precip_mean              =   3.6703328295631E-08
(PID.TID 0000.0001) %MON exf_precip_sd                =   2.0517684345092E-08
(PID.TID 0000.0001) %MON exf_precip_del2              =   1.7249641031929E-09
(PID.TID 0000.0001) %MON exf_swflux_max               =  -8.1206604105527E-02
(PID.TID 0000.0001) %MON exf_swflux_min               =  -6.4029725065388E+01
(PID.TID 0000.0001) %MON exf_swflux_mean              =  -2.6818799251222E+01
(PID.TID 0000.0001) %MON exf_swflux_sd                =   1.9533966850123E+01
(PID.TID 0000.0001) %MON exf_swflux_del2              =   9.2110822102782E-02
(PID.TID 0000.0001) %MON exf_evap_max                 =   4.7052262722527E-08
(PID.TID 0000.0001) %MON exf_evap_min                 =   5.4969886234782E-09
(PID.TID 0000.0001) %MON exf_evap_mean                =   2.0561778210036E-08
(PID.TID 0000.0001) %MON exf_evap_sd                  =   6.9458042215539E-09
(PID.TID 0000.0001) %MON exf_evap_del2                =   1.0834029083672E-09
(PID.TID 0000.0001) %MON exf_swdown_max               =   7.1144138961542E+01
(PID.TID 0000.0001) %MON exf_swdown_min               =   9.0229560117253E-02
(PID.TID 0000.0001) %MON exf_swdown_mean              =   2.9798665834691E+01
(PID.TID 0000.0001) %MON exf_swdown_sd                =   2.1704407611247E+01
(PID.TID 0000.0001) %MON exf_swdown_del2              =   8.8105436805987E-01
(PID.TID 0000.0001) %MON exf_lwdown_max               =   3.0565323976611E+02
(PID.TID 0000.0001) %MON exf_lwdown_min               =   1.1595237147222E+02
(PID.TID 0000.0001) %MON exf_lwdown_mean              =   2.2680054512192E+02
(PID.TID 0000.0001) %MON exf_lwdown_sd                =   4.5879078858413E+01
(PID.TID 0000.0001) %MON exf_lwdown_del2              =   8.3938408926213E+00
(PID.TID 0000.0001) %MON exf_climsss_max              =   3.5040885127959E+01
(PID.TID 0000.0001) %MON exf_climsss_min              =   3.0668591155380E+01
(PID.TID 0000.0001) %MON exf_climsss_mean             =   3.3455301952315E+01
(PID.TID 0000.0001) %MON exf_climsss_sd               =   1.0367238543174E+00
(PID.TID 0000.0001) %MON exf_climsss_del2             =   2.7347172136906E-02
(PID.TID 0000.0001) // =======================================================
(PID.TID 0000.0001) // End MONITOR EXF statistics
(PID.TID 0000.0001) // =======================================================
 cg2d: Sum(rhs),rhsMax =  -7.43849426498855E-14  3.80038997622218E-01
(PID.TID 0000.0001)      cg2d_init_res =   1.55704998917224E-01
(PID.TID 0000.0001)      cg2d_iters(min,last) =      -1      41
(PID.TID 0000.0001)      cg2d_last_res =   7.08418955704251E-13
(PID.TID 0000.0001) // =======================================================
(PID.TID 0000.0001) // Begin MONITOR dynamic field statistics
(PID.TID 0000.0001) // =======================================================
(PID.TID 0000.0001) %MON time_tsnumber                =                     4
(PID.TID 0000.0001) %MON time_secondsf                =   1.4400000000000E+04
(PID.TID 0000.0001) %MON dynstat_eta_max              =   1.0449599574012E-01
(PID.TID 0000.0001) %MON dynstat_eta_min              =  -1.0531418063096E-01
(PID.TID 0000.0001) %MON dynstat_eta_mean             =   2.0515488076977E-16
(PID.TID 0000.0001) %MON dynstat_eta_sd               =   4.8200155077013E-02
(PID.TID 0000.0001) %MON dynstat_eta_del2             =   1.8267696107060E-03
(PID.TID 0000.0001) %MON dynstat_uvel_max             =   4.3647563536467E-02
(PID.TID 0000.0001) %MON dynstat_uvel_min             =  -3.3022114475876E-02
(PID.TID 0000.0001) %MON dynstat_uvel_mean            =   7.7914127792819E-05
(PID.TID 0000.0001) %MON dynstat_uvel_sd              =   4.1312259580700E-03
(PID.TID 0000.0001) %MON dynstat_uvel_del2            =   1.9119354730369E-04
(PID.TID 0000.0001) %MON dynstat_vvel_max             =   1.6353376860398E-02
(PID.TID 0000.0001) %MON dynstat_vvel_min             =  -4.2791708361983E-02
(PID.TID 0000.0001) %MON dynstat_vvel_mean            =  -4.0721964534981E-04
(PID.TID 0000.0001) %MON dynstat_vvel_sd              =   3.4225644205542E-03
(PID.TID 0000.0001) %MON dynstat_vvel_del2            =   1.6037193815089E-04
(PID.TID 0000.0001) %MON dynstat_wvel_max             =   7.6077772348719E-05
(PID.TID 0000.0001) %MON dynstat_wvel_min             =  -4.2939278557051E-05
(PID.TID 0000.0001) %MON dynstat_wvel_mean            =  -1.9817828193508E-22
(PID.TID 0000.0001) %MON dynstat_wvel_sd              =   1.6002696216251E-05
(PID.TID 0000.0001) %MON dynstat_wvel_del2            =   4.4875338223512E-07
(PID.TID 0000.0001) %MON dynstat_theta_max            =   1.2475515596084E+01
(PID.TID 0000.0001) %MON dynstat_theta_min            =  -1.8568409259915E+00
(PID.TID 0000.0001) %MON dynstat_theta_mean           =   3.0885365599783E+00
(PID.TID 0000.0001) %MON dynstat_theta_sd             =   1.4313438434258E+00
(PID.TID 0000.0001) %MON dynstat_theta_del2           =   1.7778682415110E-02
(PID.TID 0000.0001) %MON dynstat_salt_max             =   3.5292846404531E+01
(PID.TID 0000.0001) %MON dynstat_salt_min             =   3.0708080250169E+01
(PID.TID 0000.0001) %MON dynstat_salt_mean            =   3.4759310508004E+01
(PID.TID 0000.0001) %MON dynstat_salt_sd              =   4.2865750018161E-01
(PID.TID 0000.0001) %MON dynstat_salt_del2            =   4.0362833691487E-03
(PID.TID 0000.0001) %MON forcing_qnet_max             =   2.7457334259948E+02
(PID.TID 0000.0001) %MON forcing_qnet_min             =  -3.3683329611255E+01
(PID.TID 0000.0001) %MON forcing_qnet_mean            =   9.9934977141368E+01
(PID.TID 0000.0001) %MON forcing_qnet_sd              =   6.0071848965517E+01
(PID.TID 0000.0001) %MON forcing_qnet_del2            =   5.4951493186678E+00
(PID.TID 0000.0001) %MON forcing_qsw_max              =   0.0000000000000E+00
(PID.TID 0000.0001) %MON forcing_qsw_min              =  -6.4029725065388E+01
(PID.TID 0000.0001) %MON forcing_qsw_mean             =  -2.4737642140837E+01
(PID.TID 0000.0001) %MON forcing_qsw_sd               =   2.1134541291537E+01
(PID.TID 0000.0001) %MON forcing_qsw_del2             =   3.7651081280492E-01
(PID.TID 0000.0001) %MON forcing_empmr_max            =   6.4782072531793E-04
(PID.TID 0000.0001) %MON forcing_empmr_min            =  -8.3163536769326E-05
(PID.TID 0000.0001) %MON forcing_empmr_mean           =   1.9290084759460E-05
(PID.TID 0000.0001) %MON forcing_empmr_sd             =   9.8654843232280E-05
(PID.TID 0000.0001) %MON forcing_empmr_del2           =   1.0927326551345E-05
(PID.TID 0000.0001) %MON forcing_fu_max               =   6.2076400669571E-02
(PID.TID 0000.0001) %MON forcing_fu_min               =  -1.9509988641703E-02
(PID.TID 0000.0001) %MON forcing_fu_mean              =   2.3941500290868E-02
(PID.TID 0000.0001) %MON forcing_fu_sd                =   2.1015143437192E-02
(PID.TID 0000.0001) %MON forcing_fu_del2              =   9.1869361468029E-04
(PID.TID 0000.0001) %MON forcing_fv_max               =   1.4712569400369E-02
(PID.TID 0000.0001) %MON forcing_fv_min               =  -4.1848470018796E-02
(PID.TID 0000.0001) %MON forcing_fv_mean              =  -4.9088899782218E-03
(PID.TID 0000.0001) %MON forcing_fv_sd                =   1.1760310385832E-02
(PID.TID 0000.0001) %MON forcing_fv_del2              =   5.4008502639141E-04
(PID.TID 0000.0001) %MON advcfl_uvel_max              =   1.2318454874261E-03
(PID.TID 0000.0001) %MON advcfl_vvel_max              =   6.9270314191387E-04
(PID.TID 0000.0001) %MON advcfl_wvel_max              =   3.3434034625514E-03
(PID.TID 0000.0001) %MON advcfl_W_hf_max              =   2.8531317927183E-03
(PID.TID 0000.0001) %MON pe_b_mean                    =   7.5818180528032E-06
(PID.TID 0000.0001) %MON ke_max                       =   9.0166669931188E-04
(PID.TID 0000.0001) %MON ke_mean                      =   1.1364239932267E-05
(PID.TID 0000.0001) %MON ke_vol                       =   5.2906584519726E+15
(PID.TID 0000.0001) %MON vort_r_min                   =  -2.6371823742089E-07
(PID.TID 0000.0001) %MON vort_r_max                   =   1.8803341800927E-07
(PID.TID 0000.0001) %MON vort_a_mean                  =   1.2074434650046E-04
(PID.TID 0000.0001) %MON vort_a_sd                    =   8.7671149638494E-06
(PID.TID 0000.0001) %MON vort_p_mean                  =   1.7734550359553E-04
(PID.TID 0000.0001) %MON vort_p_sd                    =   1.1736158488811E-04
(PID.TID 0000.0001) %MON surfExpan_theta_mean         =   3.0118486523000E-06
(PID.TID 0000.0001) %MON surfExpan_salt_mean          =  -4.2910129261693E-08
(PID.TID 0000.0001) // =======================================================
(PID.TID 0000.0001) // End MONITOR dynamic field statistics
(PID.TID 0000.0001) // =======================================================
(PID.TID 0000.0001) // =======================================================
(PID.TID 0000.0001) // Begin MONITOR SEAICE statistics
(PID.TID 0000.0001) // =======================================================
(PID.TID 0000.0001) %MON seaice_tsnumber              =                     4
(PID.TID 0000.0001) %MON seaice_time_sec              =   1.4400000000000E+04
(PID.TID 0000.0001) %MON seaice_uice_max              =   1.3292178848293E-01
(PID.TID 0000.0001) %MON seaice_uice_min              =  -7.6170586464412E-02
(PID.TID 0000.0001) %MON seaice_uice_mean             =   5.4449539111329E-02
(PID.TID 0000.0001) %MON seaice_uice_sd               =   4.9178282806077E-02
(PID.TID 0000.0001) %MON seaice_uice_del2             =   1.8776262831719E-03
(PID.TID 0000.0001) %MON seaice_vice_max              =   4.0082089675214E-02
(PID.TID 0000.0001) %MON seaice_vice_min              =  -1.1098141825893E-01
(PID.TID 0000.0001) %MON seaice_vice_mean             =  -2.0060213372859E-02
(PID.TID 0000.0001) %MON seaice_vice_sd               =   3.3998840812172E-02
(PID.TID 0000.0001) %MON seaice_vice_del2             =   1.5924392075304E-03
(PID.TID 0000.0001) %MON seaice_area_max              =   9.9999378497076E-01
(PID.TID 0000.0001) %MON seaice_area_min              =   0.0000000000000E+00
(PID.TID 0000.0001) %MON seaice_area_mean             =   3.1887750149940E-01
(PID.TID 0000.0001) %MON seaice_area_sd               =   4.4120400931959E-01
(PID.TID 0000.0001) %MON seaice_area_del2             =   2.1731703909330E-02
(PID.TID 0000.0001) %MON seaice_heff_max              =   1.6271881389883E+00
(PID.TID 0000.0001) %MON seaice_heff_min              =   0.0000000000000E+00
(PID.TID 0000.0001) %MON seaice_heff_mean             =   1.7099739516988E-01
(PID.TID 0000.0001) %MON seaice_heff_sd               =   3.3173911442012E-01
(PID.TID 0000.0001) %MON seaice_heff_del2             =   9.3743142929198E-03
(PID.TID 0000.0001) %MON seaice_hsnow_max             =   3.4577840432147E-01
(PID.TID 0000.0001) %MON seaice_hsnow_min             =   0.0000000000000E+00
(PID.TID 0000.0001) %MON seaice_hsnow_mean            =   3.0554344978063E-02
(PID.TID 0000.0001) %MON seaice_hsnow_sd              =   6.5218763346975E-02
(PID.TID 0000.0001) %MON seaice_hsnow_del2            =   2.1174718789241E-03
(PID.TID 0000.0001) // =======================================================
(PID.TID 0000.0001) // End MONITOR SEAICE statistics
(PID.TID 0000.0001) // =======================================================
(PID.TID 0000.0001) // =======================================================
(PID.TID 0000.0001) // Begin MONITOR EXF statistics
(PID.TID 0000.0001) // =======================================================
(PID.TID 0000.0001) %MON exf_tsnumber                 =                     4
(PID.TID 0000.0001) %MON exf_time_sec                 =   1.4400000000000E+04
(PID.TID 0000.0001) %MON exf_ustress_max              =   6.2635063174813E-02
(PID.TID 0000.0001) %MON exf_ustress_min              =  -9.3847115131925E-02
(PID.TID 0000.0001) %MON exf_ustress_mean             =   2.2468525908002E-02
(PID.TID 0000.0001) %MON exf_ustress_sd               =   2.6358159849949E-02
(PID.TID 0000.0001) %MON exf_ustress_del2             =   7.2628902766823E-04
(PID.TID 0000.0001) %MON exf_vstress_max              =   5.3862105841716E-02
(PID.TID 0000.0001) %MON exf_vstress_min              =  -5.9440484989958E-02
(PID.TID 0000.0001) %MON exf_vstress_mean             =  -5.2451439425499E-03
(PID.TID 0000.0001) %MON exf_vstress_sd               =   1.5111262973720E-02
(PID.TID 0000.0001) %MON exf_vstress_del2             =   5.1411967990419E-04
(PID.TID 0000.0001) %MON exf_hflux_max                =   6.3274868783186E+02
(PID.TID 0000.0001) %MON exf_hflux_min                =   8.9528455913695E+01
(PID.TID 0000.0001) %MON exf_hflux_mean               =   2.1617632900627E+02
(PID.TID 0000.0001) %MON exf_hflux_sd                 =   1.3254240275622E+02
(PID.TID 0000.0001) %MON exf_hflux_del2               =   5.2103630082042E+00
(PID.TID 0000.0001) %MON exf_sflux_max                =   4.0735002351279E-08
(PID.TID 0000.0001) %MON exf_sflux_min                =  -8.3186036690885E-08
(PID.TID 0000.0001) %MON exf_sflux_mean               =  -1.6140418055438E-08
(PID.TID 0000.0001) %MON exf_sflux_sd                 =   2.4292668322815E-08
(PID.TID 0000.0001) %MON exf_sflux_del2               =   1.0072880688919E-09
(PID.TID 0000.0001) %MON exf_uwind_max                =   6.4664043520318E+00
(PID.TID 0000.0001) %MON exf_uwind_min                =  -6.8373452001582E+00
(PID.TID 0000.0001) %MON exf_uwind_mean               =   2.8374496027651E+00
(PID.TID 0000.0001) %MON exf_uwind_sd                 =   2.9486849562442E+00
(PID.TID 0000.0001) %MON exf_uwind_del2               =   8.0529414846534E-02
(PID.TID 0000.0001) %MON exf_vwind_max                =   3.9241889356915E+00
(PID.TID 0000.0001) %MON exf_vwind_min                =  -6.0160797489145E+00
(PID.TID 0000.0001) %MON exf_vwind_mean               =  -7.4638062469871E-01
(PID.TID 0000.0001) %MON exf_vwind_sd                 =   1.7356336004080E+00
(PID.TID 0000.0001) %MON exf_vwind_del2               =   4.8321356314050E-02
(PID.TID 0000.0001) %MON exf_wspeed_max               =   7.8834350500991E+00
(PID.TID 0000.0001) %MON exf_wspeed_min               =   4.5938084481311E-01
(PID.TID 0000.0001) %MON exf_wspeed_mean              =   4.2113675160871E+00
(PID.TID 0000.0001) %MON exf_wspeed_sd                =   1.6061615409572E+00
(PID.TID 0000.0001) %MON exf_wspeed_del2              =   2.4138357039815E-01
(PID.TID 0000.0001) %MON exf_atemp_max                =   2.8187596388853E+02
(PID.TID 0000.0001) %MON exf_atemp_min                =   2.3644390923339E+02
(PID.TID 0000.0001) %MON exf_atemp_mean               =   2.6418468394889E+02
(PID.TID 0000.0001) %MON exf_atemp_sd                 =   1.1842589802320E+01
(PID.TID 0000.0001) %MON exf_atemp_del2               =   7.2517602387396E-01
(PID.TID 0000.0001) %MON exf_aqh_max                  =   6.3203867802223E-03
(PID.TID 0000.0001) %MON exf_aqh_min                  =   1.6331633418045E-04
(PID.TID 0000.0001) %MON exf_aqh_mean                 =   2.5042188193618E-03
(PID.TID 0000.0001) %MON exf_aqh_sd                   =   1.4159536540618E-03
(PID.TID 0000.0001) %MON exf_aqh_del2                 =   7.8511248083840E-05
(PID.TID 0000.0001) %MON exf_lwflux_max               =   1.8558157188768E+02
(PID.TID 0000.0001) %MON exf_lwflux_min               =   6.7045045241638E+01
(PID.TID 0000.0001) %MON exf_lwflux_mean              =   9.7196085702346E+01
(PID.TID 0000.0001) %MON exf_lwflux_sd                =   3.0700639839261E+01
(PID.TID 0000.0001) %MON exf_lwflux_del2              =   4.7429354133793E+00
(PID.TID 0000.0001) %MON exf_precip_max               =   1.0499318877820E-07
(PID.TID 0000.0001) %MON exf_precip_min               =   2.7305928105298E-10
(PID.TID 0000.0001) %MON exf_precip_mean              =   3.6703310362882E-08
(PID.TID 0000.0001) %MON exf_precip_sd                =   2.0518152294639E-08
(PID.TID 0000.0001) %MON exf_precip_del2              =   1.7252475954465E-09
(PID.TID 0000.0001) %MON exf_swflux_max               =  -8.1206886983309E-02
(PID.TID 0000.0001) %MON exf_swflux_min               =  -6.4048595415960E+01
(PID.TID 0000.0001) %MON exf_swflux_mean              =  -2.6829464685628E+01
(PID.TID 0000.0001) %MON exf_swflux_sd                =   1.9537691004603E+01
(PID.TID 0000.0001) %MON exf_swflux_del2              =   9.2140187841026E-02
(PID.TID 0000.0001) %MON exf_evap_max                 =   4.7056559331651E-08
(PID.TID 0000.0001) %MON exf_evap_min                 =   5.4872132967858E-09
(PID.TID 0000.0001) %MON exf_evap_mean                =   2.0562892307444E-08
(PID.TID 0000.0001) %MON exf_evap_sd                  =   6.9469062154925E-09
(PID.TID 0000.0001) %MON exf_evap_del2                =   1.0836536050647E-09
(PID.TID 0000.0001) %MON exf_swdown_max               =   7.1165106017733E+01
(PID.TID 0000.0001) %MON exf_swdown_min               =   9.0229874425898E-02
(PID.TID 0000.0001) %MON exf_swdown_mean              =   2.9810516317365E+01
(PID.TID 0000.0001) %MON exf_swdown_sd                =   2.1708545560670E+01
(PID.TID 0000.0001) %MON exf_swdown_del2              =   8.8151326008142E-01
(PID.TID 0000.0001) %MON exf_lwdown_max               =   3.0564441368228E+02
(PID.TID 0000.0001) %MON exf_lwdown_min               =   1.1593726459357E+02
(PID.TID 0000.0001) %MON exf_lwdown_mean              =   2.2678471201796E+02
(PID.TID 0000.0001) %MON exf_lwdown_sd                =   4.5883334012731E+01
(PID.TID 0000.0001) %MON exf_lwdown_del2              =   8.3928598531210E+00
(PID.TID 0000.0001) %MON exf_climsss_max              =   3.5041069874998E+01
(PID.TID 0000.0001) %MON exf_climsss_min              =   3.0669350483378E+01
(PID.TID 0000.0001) %MON exf_climsss_mean             =   3.3455814484532E+01
(PID.TID 0000.0001) %MON exf_climsss_sd               =   1.0366465803759E+00
(PID.TID 0000.0001) %MON exf_climsss_del2             =   2.7344635729639E-02
(PID.TID 0000.0001) // =======================================================
(PID.TID 0000.0001) // End MONITOR EXF statistics
(PID.TID 0000.0001) // =======================================================
 cg2d: Sum(rhs),rhsMax =  -2.10942374678780E-14  3.87589608927528E-01
(PID.TID 0000.0001)      cg2d_init_res =   1.27815926793430E-01
(PID.TID 0000.0001)      cg2d_iters(min,last) =      -1      41
(PID.TID 0000.0001)      cg2d_last_res =   5.67255807101702E-13
(PID.TID 0000.0001) // =======================================================
(PID.TID 0000.0001) // Begin MONITOR dynamic field statistics
(PID.TID 0000.0001) // =======================================================
(PID.TID 0000.0001) %MON time_tsnumber                =                     5
(PID.TID 0000.0001) %MON time_secondsf                =   1.8000000000000E+04
(PID.TID 0000.0001) %MON dynstat_eta_max              =   9.6756555023407E-02
(PID.TID 0000.0001) %MON dynstat_eta_min              =  -1.0312981507441E-01
(PID.TID 0000.0001) %MON dynstat_eta_mean             =  -8.6746249796943E-17
(PID.TID 0000.0001) %MON dynstat_eta_sd               =   4.6696217917589E-02
(PID.TID 0000.0001) %MON dynstat_eta_del2             =   1.8023959374611E-03
(PID.TID 0000.0001) %MON dynstat_uvel_max             =   3.7027401132566E-02
(PID.TID 0000.0001) %MON dynstat_uvel_min             =  -2.9286859292275E-02
(PID.TID 0000.0001) %MON dynstat_uvel_mean            =   3.4263536588989E-05
(PID.TID 0000.0001) %MON dynstat_uvel_sd              =   3.5209315337934E-03
(PID.TID 0000.0001) %MON dynstat_uvel_del2            =   1.6367868815269E-04
(PID.TID 0000.0001) %MON dynstat_vvel_max             =   1.8329329706152E-02
(PID.TID 0000.0001) %MON dynstat_vvel_min             =  -4.1259156242330E-02
(PID.TID 0000.0001) %MON dynstat_vvel_mean            =  -3.5920612292887E-05
(PID.TID 0000.0001) %MON dynstat_vvel_sd              =   3.3121657368785E-03
(PID.TID 0000.0001) %MON dynstat_vvel_del2            =   1.4192677367542E-04
(PID.TID 0000.0001) %MON dynstat_wvel_max             =   5.5451000887421E-05
(PID.TID 0000.0001) %MON dynstat_wvel_min             =  -3.2019840402085E-05
(PID.TID 0000.0001) %MON dynstat_wvel_mean            =   0.0000000000000E+00
(PID.TID 0000.0001) %MON dynstat_wvel_sd              =   1.2075398857916E-05
(PID.TID 0000.0001) %MON dynstat_wvel_del2            =   3.2453171096913E-07
(PID.TID 0000.0001) %MON dynstat_theta_max            =   1.2475645501511E+01
(PID.TID 0000.0001) %MON dynstat_theta_min            =  -1.8564828620599E+00
(PID.TID 0000.0001) %MON dynstat_theta_mean           =   3.0884737002018E+00
(PID.TID 0000.0001) %MON dynstat_theta_sd             =   1.4312994013062E+00
(PID.TID 0000.0001) %MON dynstat_theta_del2           =   1.7778297655733E-02
(PID.TID 0000.0001) %MON dynstat_salt_max             =   3.5292820377993E+01
(PID.TID 0000.0001) %MON dynstat_salt_min             =   3.0708101135214E+01
(PID.TID 0000.0001) %MON dynstat_salt_mean            =   3.4759312286438E+01
(PID.TID 0000.0001) %MON dynstat_salt_sd              =   4.2864484301241E-01
(PID.TID 0000.0001) %MON dynstat_salt_del2            =   4.0352921488642E-03
(PID.TID 0000.0001) %MON forcing_qnet_max             =   2.7453703852080E+02
(PID.TID 0000.0001) %MON forcing_qnet_min             =  -2.1005298090067E+01
(PID.TID 0000.0001) %MON forcing_qnet_mean            =   1.0077080068370E+02
(PID.TID 0000.0001) %MON forcing_qnet_sd              =   5.9292696210783E+01
(PID.TID 0000.0001) %MON forcing_qnet_del2            =   5.4990392294485E+00
(PID.TID 0000.0001) %MON forcing_qsw_max              =  -1.3258852722248E-06
(PID.TID 0000.0001) %MON forcing_qsw_min              =  -6.4048595415960E+01
(PID.TID 0000.0001) %MON forcing_qsw_mean             =  -2.4746892992074E+01
(PID.TID 0000.0001) %MON forcing_qsw_sd               =   2.1137338472343E+01
(PID.TID 0000.0001) %MON forcing_qsw_del2             =   3.7656104342486E-01
(PID.TID 0000.0001) %MON forcing_empmr_max            =   6.0785156988986E-04
(PID.TID 0000.0001) %MON forcing_empmr_min            =  -8.3169399483547E-05
(PID.TID 0000.0001) %MON forcing_empmr_mean           =   1.6785203905985E-05
(PID.TID 0000.0001) %MON forcing_empmr_sd             =   9.3514483633204E-05
(PID.TID 0000.0001) %MON forcing_empmr_del2           =   1.0790986596982E-05
(PID.TID 0000.0001) %MON forcing_fu_max               =   6.2086433060571E-02
(PID.TID 0000.0001) %MON forcing_fu_min               =  -1.8222077697800E-02
(PID.TID 0000.0001) %MON forcing_fu_mean              =   2.4014051599866E-02
(PID.TID 0000.0001) %MON forcing_fu_sd                =   2.0942083090861E-02
(PID.TID 0000.0001) %MON forcing_fu_del2              =   9.9126051982187E-04
(PID.TID 0000.0001) %MON forcing_fv_max               =   1.4716254683876E-02
(PID.TID 0000.0001) %MON forcing_fv_min               =  -4.1834405374670E-02
(PID.TID 0000.0001) %MON forcing_fv_mean              =  -4.8915897495296E-03
(PID.TID 0000.0001) %MON forcing_fv_sd                =   1.1758576381838E-02
(PID.TID 0000.0001) %MON forcing_fv_del2              =   4.7928877737519E-04
(PID.TID 0000.0001) %MON advcfl_uvel_max              =   1.0450076315981E-03
(PID.TID 0000.0001) %MON advcfl_vvel_max              =   6.6789451171266E-04
(PID.TID 0000.0001) %MON advcfl_wvel_max              =   2.5951984492439E-03
(PID.TID 0000.0001) %MON advcfl_W_hf_max              =   2.4446415040762E-03
(PID.TID 0000.0001) %MON pe_b_mean                    =   7.1160649135333E-06
(PID.TID 0000.0001) %MON ke_max                       =   7.7600167116522E-04
(PID.TID 0000.0001) %MON ke_mean                      =   9.1646377615012E-06
(PID.TID 0000.0001) %MON ke_vol                       =   5.2906584519726E+15
(PID.TID 0000.0001) %MON vort_r_min                   =  -2.3170681661095E-07
(PID.TID 0000.0001) %MON vort_r_max                   =   1.9152154542070E-07
(PID.TID 0000.0001) %MON vort_a_mean                  =   1.2074434650046E-04
(PID.TID 0000.0001) %MON vort_a_sd                    =   8.7670886604009E-06
(PID.TID 0000.0001) %MON vort_p_mean                  =   1.7734550359553E-04
(PID.TID 0000.0001) %MON vort_p_sd                    =   1.1735868147954E-04
(PID.TID 0000.0001) %MON surfExpan_theta_mean         =   9.5904451182065E-07
(PID.TID 0000.0001) %MON surfExpan_salt_mean          =   1.3675398446545E-07
(PID.TID 0000.0001) // =======================================================
(PID.TID 0000.0001) // End MONITOR dynamic field statistics
(PID.TID 0000.0001) // =======================================================
(PID.TID 0000.0001) // =======================================================
(PID.TID 0000.0001) // Begin MONITOR SEAICE statistics
(PID.TID 0000.0001) // =======================================================
(PID.TID 0000.0001) %MON seaice_tsnumber              =                     5
(PID.TID 0000.0001) %MON seaice_time_sec              =   1.8000000000000E+04
(PID.TID 0000.0001) %MON seaice_uice_max              =   1.3510000685494E-01
(PID.TID 0000.0001) %MON seaice_uice_min              =  -7.2550932625061E-02
(PID.TID 0000.0001) %MON seaice_uice_mean             =   5.4358170309896E-02
(PID.TID 0000.0001) %MON seaice_uice_sd               =   4.8912258843691E-02
(PID.TID 0000.0001) %MON seaice_uice_del2             =   1.8332357767183E-03
(PID.TID 0000.0001) %MON seaice_vice_max              =   4.0503781682299E-02
(PID.TID 0000.0001) %MON seaice_vice_min              =  -1.0689192978491E-01
(PID.TID 0000.0001) %MON seaice_vice_mean             =  -1.9065499985511E-02
(PID.TID 0000.0001) %MON seaice_vice_sd               =   3.3341560183495E-02
(PID.TID 0000.0001) %MON seaice_vice_del2             =   1.5603802216714E-03
(PID.TID 0000.0001) %MON seaice_area_max              =   9.9997702480934E-01
(PID.TID 0000.0001) %MON seaice_area_min              =   0.0000000000000E+00
(PID.TID 0000.0001) %MON seaice_area_mean             =   3.1876694590675E-01
(PID.TID 0000.0001) %MON seaice_area_sd               =   4.4095753421760E-01
(PID.TID 0000.0001) %MON seaice_area_del2             =   2.1709412441853E-02
(PID.TID 0000.0001) %MON seaice_heff_max              =   1.6272807587679E+00
(PID.TID 0000.0001) %MON seaice_heff_min              =   0.0000000000000E+00
(PID.TID 0000.0001) %MON seaice_heff_mean             =   1.7114274790507E-01
(PID.TID 0000.0001) %MON seaice_heff_sd               =   3.3182452405455E-01
(PID.TID 0000.0001) %MON seaice_heff_del2             =   9.3805195259970E-03
(PID.TID 0000.0001) %MON seaice_hsnow_max             =   3.4595722324589E-01
(PID.TID 0000.0001) %MON seaice_hsnow_min             =   0.0000000000000E+00
(PID.TID 0000.0001) %MON seaice_hsnow_mean            =   3.0603835789938E-02
(PID.TID 0000.0001) %MON seaice_hsnow_sd              =   6.5259860558204E-02
(PID.TID 0000.0001) %MON seaice_hsnow_del2            =   2.1196400025315E-03
(PID.TID 0000.0001) // =======================================================
(PID.TID 0000.0001) // End MONITOR SEAICE statistics
(PID.TID 0000.0001) // =======================================================
(PID.TID 0000.0001) // =======================================================
(PID.TID 0000.0001) // Begin MONITOR EXF statistics
(PID.TID 0000.0001) // =======================================================
(PID.TID 0000.0001) %MON exf_tsnumber                 =                     5
(PID.TID 0000.0001) %MON exf_time_sec                 =   1.8000000000000E+04
(PID.TID 0000.0001) %MON exf_ustress_max              =   6.2646035509276E-02
(PID.TID 0000.0001) %MON exf_ustress_min              =  -9.3849778763986E-02
(PID.TID 0000.0001) %MON exf_ustress_mean             =   2.2471074571436E-02
(PID.TID 0000.0001) %MON exf_ustress_sd               =   2.6362382540164E-02
(PID.TID 0000.0001) %MON exf_ustress_del2             =   7.2635208777142E-04
(PID.TID 0000.0001) %MON exf_vstress_max              =   5.3863837872327E-02
(PID.TID 0000.0001) %MON exf_vstress_min              =  -5.9423900961258E-02
(PID.TID 0000.0001) %MON exf_vstress_mean             =  -5.2403855004270E-03
(PID.TID 0000.0001) %MON exf_vstress_sd               =   1.5112503453536E-02
(PID.TID 0000.0001) %MON exf_vstress_del2             =   5.1412914385545E-04
(PID.TID 0000.0001) %MON exf_hflux_max                =   6.3283006080617E+02
(PID.TID 0000.0001) %MON exf_hflux_min                =   8.9529766092521E+01
(PID.TID 0000.0001) %MON exf_hflux_mean               =   2.1620602556591E+02
(PID.TID 0000.0001) %MON exf_hflux_sd                 =   1.3258398342464E+02
(PID.TID 0000.0001) %MON exf_hflux_del2               =   5.2113487139084E+00
(PID.TID 0000.0001) %MON exf_sflux_max                =   4.0738847324901E-08
(PID.TID 0000.0001) %MON exf_sflux_min                =  -8.3191431380996E-08
(PID.TID 0000.0001) %MON exf_sflux_mean               =  -1.6139412197632E-08
(PID.TID 0000.0001) %MON exf_sflux_sd                 =   2.4295568932193E-08
(PID.TID 0000.0001) %MON exf_sflux_del2               =   1.0074921203793E-09
(PID.TID 0000.0001) %MON exf_uwind_max                =   6.4669118044806E+00
(PID.TID 0000.0001) %MON exf_uwind_min                =  -6.8373719818605E+00
(PID.TID 0000.0001) %MON exf_uwind_mean               =   2.8375574728951E+00
(PID.TID 0000.0001) %MON exf_uwind_sd                 =   2.9489679902331E+00
(PID.TID 0000.0001) %MON exf_uwind_del2               =   8.0529304650529E-02
(PID.TID 0000.0001) %MON exf_vwind_max                =   3.9242191164871E+00
(PID.TID 0000.0001) %MON exf_vwind_min                =  -6.0151738390896E+00
(PID.TID 0000.0001) %MON exf_vwind_mean               =  -7.4575233004708E-01
(PID.TID 0000.0001) %MON exf_vwind_sd                 =   1.7357369983277E+00
(PID.TID 0000.0001) %MON exf_vwind_del2               =   4.8321656636180E-02
(PID.TID 0000.0001) %MON exf_wspeed_max               =   7.8834733013142E+00
(PID.TID 0000.0001) %MON exf_wspeed_min               =   4.5913801314248E-01
(PID.TID 0000.0001) %MON exf_wspeed_mean              =   4.2114709721653E+00
(PID.TID 0000.0001) %MON exf_wspeed_sd                =   1.6064203482108E+00
(PID.TID 0000.0001) %MON exf_wspeed_del2              =   2.4138068419247E-01
(PID.TID 0000.0001) %MON exf_atemp_max                =   2.8187425173567E+02
(PID.TID 0000.0001) %MON exf_atemp_min                =   2.3643944426573E+02
(PID.TID 0000.0001) %MON exf_atemp_mean               =   2.6418001441337E+02
(PID.TID 0000.0001) %MON exf_atemp_sd                 =   1.1844133399683E+01
(PID.TID 0000.0001) %MON exf_atemp_del2               =   7.2548211019559E-01
(PID.TID 0000.0001) %MON exf_aqh_max                  =   6.3196902393613E-03
(PID.TID 0000.0001) %MON exf_aqh_min                  =   1.6322223068205E-04
(PID.TID 0000.0001) %MON exf_aqh_mean                 =   2.5036525279194E-03
(PID.TID 0000.0001) %MON exf_aqh_sd                   =   1.4158574048203E-03
(PID.TID 0000.0001) %MON exf_aqh_del2                 =   7.8486745759951E-05
(PID.TID 0000.0001) %MON exf_lwflux_max               =   1.8559679219110E+02
(PID.TID 0000.0001) %MON exf_lwflux_min               =   6.7046835605446E+01
(PID.TID 0000.0001) %MON exf_lwflux_mean              =   9.7204089299886E+01
(PID.TID 0000.0001) %MON exf_lwflux_sd                =   3.0708868686226E+01
(PID.TID 0000.0001) %MON exf_lwflux_del2              =   4.7438169187980E+00
(PID.TID 0000.0001) %MON exf_precip_max               =   1.0499457022082E-07
(PID.TID 0000.0001) %MON exf_precip_min               =   2.7292535458031E-10
(PID.TID 0000.0001) %MON exf_precip_mean              =   3.6703292430133E-08
(PID.TID 0000.0001) %MON exf_precip_sd                =   2.0518620909231E-08
(PID.TID 0000.0001) %MON exf_precip_del2              =   1.7255311340877E-09
(PID.TID 0000.0001) %MON exf_swflux_max               =  -8.1207169861090E-02
(PID.TID 0000.0001) %MON exf_swflux_min               =  -6.4067465766532E+01
(PID.TID 0000.0001) %MON exf_swflux_mean              =  -2.6840130120035E+01
(PID.TID 0000.0001) %MON exf_swflux_sd                =   1.9541415741666E+01
(PID.TID 0000.0001) %MON exf_swflux_del2              =   9.2169632038515E-02
(PID.TID 0000.0001) %MON exf_evap_max                 =   4.7059741594342E-08
(PID.TID 0000.0001) %MON exf_evap_min                 =   5.4791601670072E-09
(PID.TID 0000.0001) %MON exf_evap_mean                =   2.0563880232500E-08
(PID.TID 0000.0001) %MON exf_evap_sd                  =   6.9477719763979E-09
(PID.TID 0000.0001) %MON exf_evap_del2                =   1.0838783616210E-09
(PID.TID 0000.0001) %MON exf_swdown_max               =   7.1186073073924E+01
(PID.TID 0000.0001) %MON exf_swdown_min               =   9.0230188734544E-02
(PID.TID 0000.0001) %MON exf_swdown_mean              =   2.9822366800039E+01
(PID.TID 0000.0001) %MON exf_swdown_sd                =   2.1712684157407E+01
(PID.TID 0000.0001) %MON exf_swdown_del2              =   8.8197224883765E-01
(PID.TID 0000.0001) %MON exf_lwdown_max               =   3.0563558759846E+02
(PID.TID 0000.0001) %MON exf_lwdown_min               =   1.1592215771493E+02
(PID.TID 0000.0001) %MON exf_lwdown_mean              =   2.2676887891401E+02
(PID.TID 0000.0001) %MON exf_lwdown_sd                =   4.5887590285296E+01
(PID.TID 0000.0001) %MON exf_lwdown_del2              =   8.3918788554736E+00
(PID.TID 0000.0001) %MON exf_climsss_max              =   3.5041254622037E+01
(PID.TID 0000.0001) %MON exf_climsss_min              =   3.0670109811376E+01
(PID.TID 0000.0001) %MON exf_climsss_mean             =   3.3456327016749E+01
(PID.TID 0000.0001) %MON exf_climsss_sd               =   1.0365695252080E+00
(PID.TID 0000.0001) %MON exf_climsss_del2             =   2.7342115218288E-02
(PID.TID 0000.0001) // =======================================================
(PID.TID 0000.0001) // End MONITOR EXF statistics
(PID.TID 0000.0001) // =======================================================
 cg2d: Sum(rhs),rhsMax =   7.38298311375729E-15  3.88064087145954E-01
(PID.TID 0000.0001)      cg2d_init_res =   1.00757680600446E-01
(PID.TID 0000.0001)      cg2d_iters(min,last) =      -1      41
(PID.TID 0000.0001)      cg2d_last_res =   4.10103782840983E-13
(PID.TID 0000.0001) // =======================================================
(PID.TID 0000.0001) // Begin MONITOR dynamic field statistics
(PID.TID 0000.0001) // =======================================================
(PID.TID 0000.0001) %MON time_tsnumber                =                     6
(PID.TID 0000.0001) %MON time_secondsf                =   2.1600000000000E+04
(PID.TID 0000.0001) %MON dynstat_eta_max              =   9.2343201290522E-02
(PID.TID 0000.0001) %MON dynstat_eta_min              =  -1.0080484072065E-01
(PID.TID 0000.0001) %MON dynstat_eta_mean             =  -5.6905539866794E-16
(PID.TID 0000.0001) %MON dynstat_eta_sd               =   4.4059318605365E-02
(PID.TID 0000.0001) %MON dynstat_eta_del2             =   1.8035421585549E-03
(PID.TID 0000.0001) %MON dynstat_uvel_max             =   3.0126078368555E-02
(PID.TID 0000.0001) %MON dynstat_uvel_min             =  -2.3725769578391E-02
(PID.TID 0000.0001) %MON dynstat_uvel_mean            =  -2.4826129659909E-05
(PID.TID 0000.0001) %MON dynstat_uvel_sd              =   2.7952982904185E-03
(PID.TID 0000.0001) %MON dynstat_uvel_del2            =   1.3342430481567E-04
(PID.TID 0000.0001) %MON dynstat_vvel_max             =   1.9625912978160E-02
(PID.TID 0000.0001) %MON dynstat_vvel_min             =  -4.0549286430602E-02
(PID.TID 0000.0001) %MON dynstat_vvel_mean            =   1.7595432772080E-04
(PID.TID 0000.0001) %MON dynstat_vvel_sd              =   3.2195053558358E-03
(PID.TID 0000.0001) %MON dynstat_vvel_del2            =   1.2958524284969E-04
(PID.TID 0000.0001) %MON dynstat_wvel_max             =   2.6718789516614E-05
(PID.TID 0000.0001) %MON dynstat_wvel_min             =  -1.9043329955406E-05
(PID.TID 0000.0001) %MON dynstat_wvel_mean            =  -3.7158427862827E-22
(PID.TID 0000.0001) %MON dynstat_wvel_sd              =   7.2612936832968E-06
(PID.TID 0000.0001) %MON dynstat_wvel_del2            =   1.8080237947638E-07
(PID.TID 0000.0001) %MON dynstat_theta_max            =   1.2475766705953E+01
(PID.TID 0000.0001) %MON dynstat_theta_min            =  -1.8563165262204E+00
(PID.TID 0000.0001) %MON dynstat_theta_mean           =   3.0884151471976E+00
(PID.TID 0000.0001) %MON dynstat_theta_sd             =   1.4312536136386E+00
(PID.TID 0000.0001) %MON dynstat_theta_del2           =   1.7778036089978E-02
(PID.TID 0000.0001) %MON dynstat_salt_max             =   3.5292793606833E+01
(PID.TID 0000.0001) %MON dynstat_salt_min             =   3.0708122501067E+01
(PID.TID 0000.0001) %MON dynstat_salt_mean            =   3.4759313803712E+01
(PID.TID 0000.0001) %MON dynstat_salt_sd              =   4.2863376120539E-01
(PID.TID 0000.0001) %MON dynstat_salt_del2            =   4.0345186651271E-03
(PID.TID 0000.0001) %MON forcing_qnet_max             =   2.7450421662312E+02
(PID.TID 0000.0001) %MON forcing_qnet_min             =  -1.1866123527441E+01
(PID.TID 0000.0001) %MON forcing_qnet_mean            =   1.0124620878837E+02
(PID.TID 0000.0001) %MON forcing_qnet_sd              =   5.8679106795412E+01
(PID.TID 0000.0001) %MON forcing_qnet_del2            =   5.3945289623047E+00
(PID.TID 0000.0001) %MON forcing_qsw_max              =  -1.6347450101918E-06
(PID.TID 0000.0001) %MON forcing_qsw_min              =  -6.4067465766532E+01
(PID.TID 0000.0001) %MON forcing_qsw_mean             =  -2.4756268093437E+01
(PID.TID 0000.0001) %MON forcing_qsw_sd               =   2.1140082130127E+01
(PID.TID 0000.0001) %MON forcing_qsw_del2             =   3.7648933666243E-01
(PID.TID 0000.0001) %MON forcing_empmr_max            =   5.7847934729739E-04
(PID.TID 0000.0001) %MON forcing_empmr_min            =  -8.3174793094719E-05
(PID.TID 0000.0001) %MON forcing_empmr_mean           =   1.5369592256711E-05
(PID.TID 0000.0001) %MON forcing_empmr_sd             =   8.9768109796450E-05
(PID.TID 0000.0001) %MON forcing_empmr_del2           =   1.0482768837939E-05
(PID.TID 0000.0001) %MON forcing_fu_max               =   6.2096445790976E-02
(PID.TID 0000.0001) %MON forcing_fu_min               =  -1.8234361496736E-02
(PID.TID 0000.0001) %MON forcing_fu_mean              =   2.4081613461327E-02
(PID.TID 0000.0001) %MON forcing_fu_sd                =   2.0925689200328E-02
(PID.TID 0000.0001) %MON forcing_fu_del2              =   1.1117222219157E-03
(PID.TID 0000.0001) %MON forcing_fv_max               =   1.4719942282211E-02
(PID.TID 0000.0001) %MON forcing_fv_min               =  -4.1820407090279E-02
(PID.TID 0000.0001) %MON forcing_fv_mean              =  -4.8344097777825E-03
(PID.TID 0000.0001) %MON forcing_fv_sd                =   1.1792858965516E-02
(PID.TID 0000.0001) %MON forcing_fv_del2              =   5.0232234911263E-04
(PID.TID 0000.0001) %MON advcfl_uvel_max              =   8.1033968653313E-04
(PID.TID 0000.0001) %MON advcfl_vvel_max              =   6.5640328904929E-04
(PID.TID 0000.0001) %MON advcfl_wvel_max              =   3.2436097602505E-03
(PID.TID 0000.0001) %MON advcfl_W_hf_max              =   2.0772036768590E-03
(PID.TID 0000.0001) %MON pe_b_mean                    =   6.3350790685581E-06
(PID.TID 0000.0001) %MON ke_max                       =   7.0427082188846E-04
(PID.TID 0000.0001) %MON ke_mean                      =   7.1303688299607E-06
(PID.TID 0000.0001) %MON ke_vol                       =   5.2906584519726E+15
(PID.TID 0000.0001) %MON vort_r_min                   =  -2.2464961826224E-07
(PID.TID 0000.0001) %MON vort_r_max                   =   1.9929191917897E-07
(PID.TID 0000.0001) %MON vort_a_mean                  =   1.2074434650046E-04
(PID.TID 0000.0001) %MON vort_a_sd                    =   8.7670567554455E-06
(PID.TID 0000.0001) %MON vort_p_mean                  =   1.7734550359553E-04
(PID.TID 0000.0001) %MON vort_p_sd                    =   1.1735525265286E-04
(PID.TID 0000.0001) %MON surfExpan_theta_mean         =  -6.3977340434785E-07
(PID.TID 0000.0001) %MON surfExpan_salt_mean          =   1.5667621244453E-07
(PID.TID 0000.0001) // =======================================================
(PID.TID 0000.0001) // End MONITOR dynamic field statistics
(PID.TID 0000.0001) // =======================================================
(PID.TID 0000.0001) // =======================================================
(PID.TID 0000.0001) // Begin MONITOR SEAICE statistics
(PID.TID 0000.0001) // =======================================================
(PID.TID 0000.0001) %MON seaice_tsnumber              =                     6
(PID.TID 0000.0001) %MON seaice_time_sec              =   2.1600000000000E+04
(PID.TID 0000.0001) %MON seaice_uice_max              =   1.3537079593683E-01
(PID.TID 0000.0001) %MON seaice_uice_min              =  -6.7636259098601E-02
(PID.TID 0000.0001) %MON seaice_uice_mean             =   5.3529944455784E-02
(PID.TID 0000.0001) %MON seaice_uice_sd               =   4.8348052089832E-02
(PID.TID 0000.0001) %MON seaice_uice_del2             =   1.7330226944545E-03
(PID.TID 0000.0001) %MON seaice_vice_max              =   3.8720220556051E-02
(PID.TID 0000.0001) %MON seaice_vice_min              =  -1.0356946793948E-01
(PID.TID 0000.0001) %MON seaice_vice_mean             =  -1.8807008647852E-02
(PID.TID 0000.0001) %MON seaice_vice_sd               =   3.3073657352286E-02
(PID.TID 0000.0001) %MON seaice_vice_del2             =   1.5224305973496E-03
(PID.TID 0000.0001) %MON seaice_area_max              =   9.9996335873754E-01
(PID.TID 0000.0001) %MON seaice_area_min              =   0.0000000000000E+00
(PID.TID 0000.0001) %MON seaice_area_mean             =   3.1865321103379E-01
(PID.TID 0000.0001) %MON seaice_area_sd               =   4.4071216186333E-01
(PID.TID 0000.0001) %MON seaice_area_del2             =   2.1681489168346E-02
(PID.TID 0000.0001) %MON seaice_heff_max              =   1.6273397996471E+00
(PID.TID 0000.0001) %MON seaice_heff_min              =   0.0000000000000E+00
(PID.TID 0000.0001) %MON seaice_heff_mean             =   1.7128248486738E-01
(PID.TID 0000.0001) %MON seaice_heff_sd               =   3.3190775159377E-01
(PID.TID 0000.0001) %MON seaice_heff_del2             =   9.3866381488331E-03
(PID.TID 0000.0001) %MON seaice_hsnow_max             =   3.4613260726997E-01
(PID.TID 0000.0001) %MON seaice_hsnow_min             =   0.0000000000000E+00
(PID.TID 0000.0001) %MON seaice_hsnow_mean            =   3.0653363506728E-02
(PID.TID 0000.0001) %MON seaice_hsnow_sd              =   6.5301163872890E-02
(PID.TID 0000.0001) %MON seaice_hsnow_del2            =   2.1218737219003E-03
(PID.TID 0000.0001) // =======================================================
(PID.TID 0000.0001) // End MONITOR SEAICE statistics
(PID.TID 0000.0001) // =======================================================
 Computing Diagnostic #    190  EXFtaux      Counter:       1   Parms: UM      U1      
 Computing Diagnostic #    191  EXFtauy      Counter:       1   Parms: VM      U1      
 Computing Diagnostic #    189  EXFqnet      Counter:       1   Parms: SM      U1      
 Computing Diagnostic #    200  EXFempmr     Counter:       1   Parms: SM      U1      
 Computing Diagnostic #    184  EXFhl        Counter:       1   Parms: SM      U1      
 Computing Diagnostic #    183  EXFhs        Counter:       1   Parms: SM      U1      
 Computing Diagnostic #    186  EXFswnet     Counter:       1   Parms: SM      U1      
 Computing Diagnostic #    185  EXFlwnet     Counter:       1   Parms: SM      U1      
 Computing Diagnostic #    192  EXFuwind     Counter:       1   Parms: UM      U1      
 Computing Diagnostic #    193  EXFvwind     Counter:       1   Parms: VM      U1      
 Computing Diagnostic #    195  EXFatemp     Counter:       1   Parms: SM      U1      
(PID.TID 0000.0001) // =======================================================
(PID.TID 0000.0001) // Begin MONITOR EXF statistics
(PID.TID 0000.0001) // =======================================================
(PID.TID 0000.0001) %MON exf_tsnumber                 =                     6
(PID.TID 0000.0001) %MON exf_time_sec                 =   2.1600000000000E+04
(PID.TID 0000.0001) %MON exf_ustress_max              =   6.2656962576458E-02
(PID.TID 0000.0001) %MON exf_ustress_min              =  -9.3852205150706E-02
(PID.TID 0000.0001) %MON exf_ustress_mean             =   2.2473601117082E-02
(PID.TID 0000.0001) %MON exf_ustress_sd               =   2.6366614560797E-02
(PID.TID 0000.0001) %MON exf_ustress_del2             =   7.2641386856236E-04
(PID.TID 0000.0001) %MON exf_vstress_max              =   5.3865433748547E-02
(PID.TID 0000.0001) %MON exf_vstress_min              =  -5.9407343900309E-02
(PID.TID 0000.0001) %MON exf_vstress_mean             =  -5.2356281982252E-03
(PID.TID 0000.0001) %MON exf_vstress_sd               =   1.5113752800228E-02
(PID.TID 0000.0001) %MON exf_vstress_del2             =   5.1413958965311E-04
(PID.TID 0000.0001) %MON exf_hflux_max                =   6.3289629071136E+02
(PID.TID 0000.0001) %MON exf_hflux_min                =   8.9529066719882E+01
(PID.TID 0000.0001) %MON exf_hflux_mean               =   2.1623433322222E+02
(PID.TID 0000.0001) %MON exf_hflux_sd                 =   1.3262460110691E+02
(PID.TID 0000.0001) %MON exf_hflux_del2               =   5.2122715812696E+00
(PID.TID 0000.0001) %MON exf_sflux_max                =   4.0740699806037E-08
(PID.TID 0000.0001) %MON exf_sflux_min                =  -8.3196680097085E-08
(PID.TID 0000.0001) %MON exf_sflux_mean               =  -1.6138602072206E-08
(PID.TID 0000.0001) %MON exf_sflux_sd                 =   2.4298432598948E-08
(PID.TID 0000.0001) %MON exf_sflux_del2               =   1.0076798360659E-09
(PID.TID 0000.0001) %MON exf_uwind_max                =   6.4674192569295E+00
(PID.TID 0000.0001) %MON exf_uwind_min                =  -6.8373987635628E+00
(PID.TID 0000.0001) %MON exf_uwind_mean               =   2.8376653430251E+00
(PID.TID 0000.0001) %MON exf_uwind_sd                 =   2.9492510645536E+00
(PID.TID 0000.0001) %MON exf_uwind_del2               =   8.0529198020703E-02
(PID.TID 0000.0001) %MON exf_vwind_max                =   3.9242492972827E+00
(PID.TID 0000.0001) %MON exf_vwind_min                =  -6.0142679292648E+00
(PID.TID 0000.0001) %MON exf_vwind_mean               =  -7.4512403539546E-01
(PID.TID 0000.0001) %MON exf_vwind_sd                 =   1.7358405060504E+00
(PID.TID 0000.0001) %MON exf_vwind_del2               =   4.8321964141182E-02
(PID.TID 0000.0001) %MON exf_wspeed_max               =   7.8835115525503E+00
(PID.TID 0000.0001) %MON exf_wspeed_min               =   4.5889518386928E-01
(PID.TID 0000.0001) %MON exf_wspeed_mean              =   4.2115745586076E+00
(PID.TID 0000.0001) %MON exf_wspeed_sd                =   1.6066792675062E+00
(PID.TID 0000.0001) %MON exf_wspeed_del2              =   2.4137780502758E-01
(PID.TID 0000.0001) %MON exf_atemp_max                =   2.8187253958280E+02
(PID.TID 0000.0001) %MON exf_atemp_min                =   2.3643497929808E+02
(PID.TID 0000.0001) %MON exf_atemp_mean               =   2.6417534487786E+02
(PID.TID 0000.0001) %MON exf_atemp_sd                 =   1.1845677473726E+01
(PID.TID 0000.0001) %MON exf_atemp_del2               =   7.2578825490549E-01
(PID.TID 0000.0001) %MON exf_aqh_max                  =   6.3189936985002E-03
(PID.TID 0000.0001) %MON exf_aqh_min                  =   1.6312812718364E-04
(PID.TID 0000.0001) %MON exf_aqh_mean                 =   2.5030862364771E-03
(PID.TID 0000.0001) %MON exf_aqh_sd                   =   1.4157611912313E-03
(PID.TID 0000.0001) %MON exf_aqh_del2                 =   7.8462246564703E-05
(PID.TID 0000.0001) %MON exf_lwflux_max               =   1.8561166721722E+02
(PID.TID 0000.0001) %MON exf_lwflux_min               =   6.7048414846652E+01
(PID.TID 0000.0001) %MON exf_lwflux_mean              =   9.7211779511959E+01
(PID.TID 0000.0001) %MON exf_lwflux_sd                =   3.0716915899634E+01
(PID.TID 0000.0001) %MON exf_lwflux_del2              =   4.7447045454658E+00
(PID.TID 0000.0001) %MON exf_precip_max               =   1.0499595166344E-07
(PID.TID 0000.0001) %MON exf_precip_min               =   2.7279142810763E-10
(PID.TID 0000.0001) %MON exf_precip_mean              =   3.6703274497383E-08
(PID.TID 0000.0001) %MON exf_precip_sd                =   2.0519090188821E-08
(PID.TID 0000.0001) %MON exf_precip_del2              =   1.7258147190937E-09
(PID.TID 0000.0001) %MON exf_swflux_max               =  -8.1207452738871E-02
(PID.TID 0000.0001) %MON exf_swflux_min               =  -6.4086336117103E+01
(PID.TID 0000.0001) %MON exf_swflux_mean              =  -2.6850795554441E+01
(PID.TID 0000.0001) %MON exf_swflux_sd                =   1.9545141060979E+01
(PID.TID 0000.0001) %MON exf_swflux_del2              =   9.2199154620081E-02
(PID.TID 0000.0001) %MON exf_evap_max                 =   4.7060931364547E-08
(PID.TID 0000.0001) %MON exf_evap_min                 =   5.4725280965674E-09
(PID.TID 0000.0001) %MON exf_evap_mean                =   2.0564672425177E-08
(PID.TID 0000.0001) %MON exf_evap_sd                  =   6.9486221512211E-09
(PID.TID 0000.0001) %MON exf_evap_del2                =   1.0840905937319E-09
(PID.TID 0000.0001) %MON exf_swdown_max               =   7.1207040130115E+01
(PID.TID 0000.0001) %MON exf_swdown_min               =   9.0230503043190E-02
(PID.TID 0000.0001) %MON exf_swdown_mean              =   2.9834217282713E+01
(PID.TID 0000.0001) %MON exf_swdown_sd                =   2.1716823401088E+01
(PID.TID 0000.0001) %MON exf_swdown_del2              =   8.8243133417759E-01
(PID.TID 0000.0001) %MON exf_lwdown_max               =   3.0562676151463E+02
(PID.TID 0000.0001) %MON exf_lwdown_min               =   1.1590705083628E+02
(PID.TID 0000.0001) %MON exf_lwdown_mean              =   2.2675304581005E+02
(PID.TID 0000.0001) %MON exf_lwdown_sd                =   4.5891847675798E+01
(PID.TID 0000.0001) %MON exf_lwdown_del2              =   8.3908978996937E+00
(PID.TID 0000.0001) %MON exf_climsss_max              =   3.5041439369077E+01
(PID.TID 0000.0001) %MON exf_climsss_min              =   3.0670869139374E+01
(PID.TID 0000.0001) %MON exf_climsss_mean             =   3.3456839548966E+01
(PID.TID 0000.0001) %MON exf_climsss_sd               =   1.0364926888625E+00
(PID.TID 0000.0001) %MON exf_climsss_del2             =   2.7339610607248E-02
(PID.TID 0000.0001) // =======================================================
(PID.TID 0000.0001) // End MONITOR EXF statistics
(PID.TID 0000.0001) // =======================================================
 cg2d: Sum(rhs),rhsMax =   6.38378239159465E-14  3.85378583165570E-01
(PID.TID 0000.0001)      cg2d_init_res =   8.23571909733501E-02
(PID.TID 0000.0001)      cg2d_iters(min,last) =      -1      41
(PID.TID 0000.0001)      cg2d_last_res =   5.86948602713878E-13
(PID.TID 0000.0001) // =======================================================
(PID.TID 0000.0001) // Begin MONITOR dynamic field statistics
(PID.TID 0000.0001) // =======================================================
(PID.TID 0000.0001) %MON time_tsnumber                =                     7
(PID.TID 0000.0001) %MON time_secondsf                =   2.5200000000000E+04
(PID.TID 0000.0001) %MON dynstat_eta_max              =   8.7863374553107E-02
(PID.TID 0000.0001) %MON dynstat_eta_min              =  -9.8846291806553E-02
(PID.TID 0000.0001) %MON dynstat_eta_mean             =  -1.0197021663631E-15
(PID.TID 0000.0001) %MON dynstat_eta_sd               =   4.1424108620373E-02
(PID.TID 0000.0001) %MON dynstat_eta_del2             =   1.8171864631472E-03
(PID.TID 0000.0001) %MON dynstat_uvel_max             =   2.7193619923633E-02
(PID.TID 0000.0001) %MON dynstat_uvel_min             =  -2.0920032527629E-02
(PID.TID 0000.0001) %MON dynstat_uvel_mean            =  -7.4119320592089E-05
(PID.TID 0000.0001) %MON dynstat_uvel_sd              =   2.3243879082612E-03
(PID.TID 0000.0001) %MON dynstat_uvel_del2            =   1.1435711492710E-04
(PID.TID 0000.0001) %MON dynstat_vvel_max             =   2.1480198265407E-02
(PID.TID 0000.0001) %MON dynstat_vvel_min             =  -4.1607536449466E-02
(PID.TID 0000.0001) %MON dynstat_vvel_mean            =   2.6760036307069E-04
(PID.TID 0000.0001) %MON dynstat_vvel_sd              =   3.3632007507575E-03
(PID.TID 0000.0001) %MON dynstat_vvel_del2            =   1.3901990407116E-04
(PID.TID 0000.0001) %MON dynstat_wvel_max             =   1.7935485250609E-05
(PID.TID 0000.0001) %MON dynstat_wvel_min             =  -2.3986697643617E-05
(PID.TID 0000.0001) %MON dynstat_wvel_mean            =   3.7158427862827E-23
(PID.TID 0000.0001) %MON dynstat_wvel_sd              =   4.8747346295176E-06
(PID.TID 0000.0001) %MON dynstat_wvel_del2            =   1.2943811962713E-07
(PID.TID 0000.0001) %MON dynstat_theta_max            =   1.2475848026496E+01
(PID.TID 0000.0001) %MON dynstat_theta_min            =  -1.8560896169289E+00
(PID.TID 0000.0001) %MON dynstat_theta_mean           =   3.0883596013824E+00
(PID.TID 0000.0001) %MON dynstat_theta_sd             =   1.4312057672061E+00
(PID.TID 0000.0001) %MON dynstat_theta_del2           =   1.7777308827703E-02
(PID.TID 0000.0001) %MON dynstat_salt_max             =   3.5292766572346E+01
(PID.TID 0000.0001) %MON dynstat_salt_min             =   3.0708144040121E+01
(PID.TID 0000.0001) %MON dynstat_salt_mean            =   3.4759315442186E+01
(PID.TID 0000.0001) %MON dynstat_salt_sd              =   4.2862297986511E-01
(PID.TID 0000.0001) %MON dynstat_salt_del2            =   4.0340736329537E-03
(PID.TID 0000.0001) %MON forcing_qnet_max             =   2.7447247539321E+02
(PID.TID 0000.0001) %MON forcing_qnet_min             =  -5.2990014887336E+00
(PID.TID 0000.0001) %MON forcing_qnet_mean            =   1.0153357232305E+02
(PID.TID 0000.0001) %MON forcing_qnet_sd              =   5.8191308178004E+01
(PID.TID 0000.0001) %MON forcing_qnet_del2            =   5.2534823195945E+00
(PID.TID 0000.0001) %MON forcing_qsw_max              =  -2.1318717510350E-07
(PID.TID 0000.0001) %MON forcing_qsw_min              =  -6.4086336117103E+01
(PID.TID 0000.0001) %MON forcing_qsw_mean             =  -2.4765633430778E+01
(PID.TID 0000.0001) %MON forcing_qsw_sd               =   2.1142869560050E+01
(PID.TID 0000.0001) %MON forcing_qsw_del2             =   3.7628001158282E-01
(PID.TID 0000.0001) %MON forcing_empmr_max            =   5.5679384569162E-04
(PID.TID 0000.0001) %MON forcing_empmr_min            =  -8.3180040761065E-05
(PID.TID 0000.0001) %MON forcing_empmr_mean           =   1.4517120708971E-05
(PID.TID 0000.0001) %MON forcing_empmr_sd             =   8.7011445302644E-05
(PID.TID 0000.0001) %MON forcing_empmr_del2           =   1.0117988687873E-05
(PID.TID 0000.0001) %MON forcing_fu_max               =   6.2106430861442E-02
(PID.TID 0000.0001) %MON forcing_fu_min               =  -1.8247262859692E-02
(PID.TID 0000.0001) %MON forcing_fu_mean              =   2.3931030070158E-02
(PID.TID 0000.0001) %MON forcing_fu_sd                =   2.1051331658037E-02
(PID.TID 0000.0001) %MON forcing_fu_del2              =   8.9371601835885E-04
(PID.TID 0000.0001) %MON forcing_fv_max               =   1.4723668929934E-02
(PID.TID 0000.0001) %MON forcing_fv_min               =  -4.1806427420418E-02
(PID.TID 0000.0001) %MON forcing_fv_mean              =  -4.8575769614611E-03
(PID.TID 0000.0001) %MON forcing_fv_sd                =   1.1794732366817E-02
(PID.TID 0000.0001) %MON forcing_fv_del2              =   5.5768639213648E-04
(PID.TID 0000.0001) %MON advcfl_uvel_max              =   7.4593867199739E-04
(PID.TID 0000.0001) %MON advcfl_vvel_max              =   6.7353401696501E-04
(PID.TID 0000.0001) %MON advcfl_wvel_max              =   2.6447364521629E-03
(PID.TID 0000.0001) %MON advcfl_W_hf_max              =   1.6862418798348E-03
(PID.TID 0000.0001) %MON pe_b_mean                    =   5.5999329981234E-06
(PID.TID 0000.0001) %MON ke_max                       =   7.9279821397406E-04
(PID.TID 0000.0001) %MON ke_mean                      =   6.5638772217130E-06
(PID.TID 0000.0001) %MON ke_vol                       =   5.2906584519726E+15
(PID.TID 0000.0001) %MON vort_r_min                   =  -2.3500630589795E-07
(PID.TID 0000.0001) %MON vort_r_max                   =   2.0876975558805E-07
(PID.TID 0000.0001) %MON vort_a_mean                  =   1.2074434650046E-04
(PID.TID 0000.0001) %MON vort_a_sd                    =   8.7670386644974E-06
(PID.TID 0000.0001) %MON vort_p_mean                  =   1.7734550359553E-04
(PID.TID 0000.0001) %MON vort_p_sd                    =   1.1735191438895E-04
(PID.TID 0000.0001) %MON surfExpan_theta_mean         =  -1.6599009986499E-06
(PID.TID 0000.0001) %MON surfExpan_salt_mean          =   9.6220369000910E-08
(PID.TID 0000.0001) // =======================================================
(PID.TID 0000.0001) // End MONITOR dynamic field statistics
(PID.TID 0000.0001) // =======================================================
(PID.TID 0000.0001) // =======================================================
(PID.TID 0000.0001) // Begin MONITOR SEAICE statistics
(PID.TID 0000.0001) // =======================================================
(PID.TID 0000.0001) %MON seaice_tsnumber              =                     7
(PID.TID 0000.0001) %MON seaice_time_sec              =   2.5200000000000E+04
(PID.TID 0000.0001) %MON seaice_uice_max              =   1.3442929378437E-01
(PID.TID 0000.0001) %MON seaice_uice_min              =  -6.3644669029445E-02
(PID.TID 0000.0001) %MON seaice_uice_mean             =   5.2413190556559E-02
(PID.TID 0000.0001) %MON seaice_uice_sd               =   4.7845641154674E-02
(PID.TID 0000.0001) %MON seaice_uice_del2             =   1.6212349214279E-03
(PID.TID 0000.0001) %MON seaice_vice_max              =   3.5569079246047E-02
(PID.TID 0000.0001) %MON seaice_vice_min              =  -1.0249106617237E-01
(PID.TID 0000.0001) %MON seaice_vice_mean             =  -1.9271454897443E-02
(PID.TID 0000.0001) %MON seaice_vice_sd               =   3.3292861561153E-02
(PID.TID 0000.0001) %MON seaice_vice_del2             =   1.5206085209024E-03
(PID.TID 0000.0001) %MON seaice_area_max              =   9.9997977392649E-01
(PID.TID 0000.0001) %MON seaice_area_min              =   0.0000000000000E+00
(PID.TID 0000.0001) %MON seaice_area_mean             =   3.1853966171124E-01
(PID.TID 0000.0001) %MON seaice_area_sd               =   4.4047197244403E-01
(PID.TID 0000.0001) %MON seaice_area_del2             =   2.1647748169214E-02
(PID.TID 0000.0001) %MON seaice_heff_max              =   1.6274169153315E+00
(PID.TID 0000.0001) %MON seaice_heff_min              =   0.0000000000000E+00
(PID.TID 0000.0001) %MON seaice_heff_mean             =   1.7141882630128E-01
(PID.TID 0000.0001) %MON seaice_heff_sd               =   3.3198987842756E-01
(PID.TID 0000.0001) %MON seaice_heff_del2             =   9.3925330558635E-03
(PID.TID 0000.0001) %MON seaice_hsnow_max             =   3.4630708948160E-01
(PID.TID 0000.0001) %MON seaice_hsnow_min             =   0.0000000000000E+00
(PID.TID 0000.0001) %MON seaice_hsnow_mean            =   3.0702949559505E-02
(PID.TID 0000.0001) %MON seaice_hsnow_sd              =   6.5342712865955E-02
(PID.TID 0000.0001) %MON seaice_hsnow_del2            =   2.1242092018441E-03
(PID.TID 0000.0001) // =======================================================
(PID.TID 0000.0001) // End MONITOR SEAICE statistics
(PID.TID 0000.0001) // =======================================================
(PID.TID 0000.0001) // =======================================================
(PID.TID 0000.0001) // Begin MONITOR EXF statistics
(PID.TID 0000.0001) // =======================================================
(PID.TID 0000.0001) %MON exf_tsnumber                 =                     7
(PID.TID 0000.0001) %MON exf_time_sec                 =   2.5200000000000E+04
(PID.TID 0000.0001) %MON exf_ustress_max              =   6.2667873620930E-02
(PID.TID 0000.0001) %MON exf_ustress_min              =  -9.3855190690889E-02
(PID.TID 0000.0001) %MON exf_ustress_mean             =   2.2476179248449E-02
(PID.TID 0000.0001) %MON exf_ustress_sd               =   2.6370847365733E-02
(PID.TID 0000.0001) %MON exf_ustress_del2             =   7.2647759056143E-04
(PID.TID 0000.0001) %MON exf_vstress_max              =   5.3867350554835E-02
(PID.TID 0000.0001) %MON exf_vstress_min              =  -5.9390755644879E-02
(PID.TID 0000.0001) %MON exf_vstress_mean             =  -5.2308899014677E-03
(PID.TID 0000.0001) %MON exf_vstress_sd               =   1.5115016580725E-02
(PID.TID 0000.0001) %MON exf_vstress_del2             =   5.1414972677581E-04
(PID.TID 0000.0001) %MON exf_hflux_max                =   6.3299823781460E+02
(PID.TID 0000.0001) %MON exf_hflux_min                =   8.9526357691554E+01
(PID.TID 0000.0001) %MON exf_hflux_mean               =   2.1626527615310E+02
(PID.TID 0000.0001) %MON exf_hflux_sd                 =   1.3266453006426E+02
(PID.TID 0000.0001) %MON exf_hflux_del2               =   5.2133348256975E+00
(PID.TID 0000.0001) %MON exf_sflux_max                =   4.0747251104747E-08
(PID.TID 0000.0001) %MON exf_sflux_min                =  -8.3202137622269E-08
(PID.TID 0000.0001) %MON exf_sflux_mean               =  -1.6137404875478E-08
(PID.TID 0000.0001) %MON exf_sflux_sd                 =   2.4301150329588E-08
(PID.TID 0000.0001) %MON exf_sflux_del2               =   1.0078964458790E-09
(PID.TID 0000.0001) %MON exf_uwind_max                =   6.4679267093784E+00
(PID.TID 0000.0001) %MON exf_uwind_min                =  -6.8374255452651E+00
(PID.TID 0000.0001) %MON exf_uwind_mean               =   2.8377732131550E+00
(PID.TID 0000.0001) %MON exf_uwind_sd                 =   2.9495341791939E+00
(PID.TID 0000.0001) %MON exf_uwind_del2               =   8.0529094957072E-02
(PID.TID 0000.0001) %MON exf_vwind_max                =   3.9242794780783E+00
(PID.TID 0000.0001) %MON exf_vwind_min                =  -6.0133620194399E+00
(PID.TID 0000.0001) %MON exf_vwind_mean               =  -7.4449574074383E-01
(PID.TID 0000.0001) %MON exf_vwind_sd                 =   1.7359441235563E+00
(PID.TID 0000.0001) %MON exf_vwind_del2               =   4.8322278828920E-02
(PID.TID 0000.0001) %MON exf_wspeed_max               =   7.8835498038073E+00
(PID.TID 0000.0001) %MON exf_wspeed_min               =   4.5865235699732E-01
(PID.TID 0000.0001) %MON exf_wspeed_mean              =   4.2116782754015E+00
(PID.TID 0000.0001) %MON exf_wspeed_sd                =   1.6069382987967E+00
(PID.TID 0000.0001) %MON exf_wspeed_del2              =   2.4137493291277E-01
(PID.TID 0000.0001) %MON exf_atemp_max                =   2.8187082742993E+02
(PID.TID 0000.0001) %MON exf_atemp_min                =   2.3643051433042E+02
(PID.TID 0000.0001) %MON exf_atemp_mean               =   2.6417067534234E+02
(PID.TID 0000.0001) %MON exf_atemp_sd                 =   1.1847222024262E+01
(PID.TID 0000.0001) %MON exf_atemp_del2               =   7.2609445792979E-01
(PID.TID 0000.0001) %MON exf_aqh_max                  =   6.3182971576392E-03
(PID.TID 0000.0001) %MON exf_aqh_min                  =   1.6303402368524E-04
(PID.TID 0000.0001) %MON exf_aqh_mean                 =   2.5025199450347E-03
(PID.TID 0000.0001) %MON exf_aqh_sd                   =   1.4156650133020E-03
(PID.TID 0000.0001) %MON exf_aqh_del2                 =   7.8437750501026E-05
(PID.TID 0000.0001) %MON exf_lwflux_max               =   1.8562624095021E+02
(PID.TID 0000.0001) %MON exf_lwflux_min               =   6.7050133125103E+01
(PID.TID 0000.0001) %MON exf_lwflux_mean              =   9.7220094853358E+01
(PID.TID 0000.0001) %MON exf_lwflux_sd                =   3.0724780494274E+01
(PID.TID 0000.0001) %MON exf_lwflux_del2              =   4.7455808480046E+00
(PID.TID 0000.0001) %MON exf_precip_max               =   1.0499733310606E-07
(PID.TID 0000.0001) %MON exf_precip_min               =   2.7265750163496E-10
(PID.TID 0000.0001) %MON exf_precip_mean              =   3.6703256564634E-08
(PID.TID 0000.0001) %MON exf_precip_sd                =   2.0519560133364E-08
(PID.TID 0000.0001) %MON exf_precip_del2              =   1.7260983504415E-09
(PID.TID 0000.0001) %MON exf_swflux_max               =  -8.1207735616653E-02
(PID.TID 0000.0001) %MON exf_swflux_min               =  -6.4105206467675E+01
(PID.TID 0000.0001) %MON exf_swflux_mean              =  -2.6861460988848E+01
(PID.TID 0000.0001) %MON exf_swflux_sd                =   1.9548866962208E+01
(PID.TID 0000.0001) %MON exf_swflux_del2              =   9.2228755510451E-02
(PID.TID 0000.0001) %MON exf_evap_max                 =   4.7066819952327E-08
(PID.TID 0000.0001) %MON exf_evap_min                 =   5.4669619836787E-09
(PID.TID 0000.0001) %MON exf_evap_mean                =   2.0565851689156E-08
(PID.TID 0000.0001) %MON exf_evap_sd                  =   6.9492614178661E-09
(PID.TID 0000.0001) %MON exf_evap_del2                =   1.0843137506782E-09
(PID.TID 0000.0001) %MON exf_swdown_max               =   7.1228007186306E+01
(PID.TID 0000.0001) %MON exf_swdown_min               =   9.0230817351836E-02
(PID.TID 0000.0001) %MON exf_swdown_mean              =   2.9846067765387E+01
(PID.TID 0000.0001) %MON exf_swdown_sd                =   2.1720963291342E+01
(PID.TID 0000.0001) %MON exf_swdown_del2              =   8.8289051595060E-01
(PID.TID 0000.0001) %MON exf_lwdown_max               =   3.0561793543081E+02
(PID.TID 0000.0001) %MON exf_lwdown_min               =   1.1589194395764E+02
(PID.TID 0000.0001) %MON exf_lwdown_mean              =   2.2673721270609E+02
(PID.TID 0000.0001) %MON exf_lwdown_sd                =   4.5896106183924E+01
(PID.TID 0000.0001) %MON exf_lwdown_del2              =   8.3899169857961E+00
(PID.TID 0000.0001) %MON exf_climsss_max              =   3.5041624116116E+01
(PID.TID 0000.0001) %MON exf_climsss_min              =   3.0671628467372E+01
(PID.TID 0000.0001) %MON exf_climsss_mean             =   3.3457352081183E+01
(PID.TID 0000.0001) %MON exf_climsss_sd               =   1.0364160713882E+00
(PID.TID 0000.0001) %MON exf_climsss_del2             =   2.7337121900890E-02
(PID.TID 0000.0001) // =======================================================
(PID.TID 0000.0001) // End MONITOR EXF statistics
(PID.TID 0000.0001) // =======================================================
 cg2d: Sum(rhs),rhsMax =   1.16406884131948E-13  3.81439350656257E-01
(PID.TID 0000.0001)      cg2d_init_res =   7.00310125322890E-02
(PID.TID 0000.0001)      cg2d_iters(min,last) =      -1      41
(PID.TID 0000.0001)      cg2d_last_res =   2.91213999981885E-13
(PID.TID 0000.0001) // =======================================================
(PID.TID 0000.0001) // Begin MONITOR dynamic field statistics
(PID.TID 0000.0001) // =======================================================
(PID.TID 0000.0001) %MON time_tsnumber                =                     8
(PID.TID 0000.0001) %MON time_secondsf                =   2.8800000000000E+04
(PID.TID 0000.0001) %MON dynstat_eta_max              =   8.3573715652055E-02
(PID.TID 0000.0001) %MON dynstat_eta_min              =  -9.7275269272135E-02
(PID.TID 0000.0001) %MON dynstat_eta_mean             =  -8.2192071682603E-16
(PID.TID 0000.0001) %MON dynstat_eta_sd               =   3.9311604975923E-02
(PID.TID 0000.0001) %MON dynstat_eta_del2             =   1.8316070350392E-03
(PID.TID 0000.0001) %MON dynstat_uvel_max             =   2.6476093557667E-02
(PID.TID 0000.0001) %MON dynstat_uvel_min             =  -2.7651225749331E-02
(PID.TID 0000.0001) %MON dynstat_uvel_mean            =  -9.3386229231060E-05
(PID.TID 0000.0001) %MON dynstat_uvel_sd              =   2.3054839424964E-03
(PID.TID 0000.0001) %MON dynstat_uvel_del2            =   1.1384527625779E-04
(PID.TID 0000.0001) %MON dynstat_vvel_max             =   2.7775914410711E-02
(PID.TID 0000.0001) %MON dynstat_vvel_min             =  -4.9236722050659E-02
(PID.TID 0000.0001) %MON dynstat_vvel_mean            =   2.7481390103185E-04
(PID.TID 0000.0001) %MON dynstat_vvel_sd              =   3.7453533650603E-03
(PID.TID 0000.0001) %MON dynstat_vvel_del2            =   1.6352361476175E-04
(PID.TID 0000.0001) %MON dynstat_wvel_max             =   1.7320994565384E-05
(PID.TID 0000.0001) %MON dynstat_wvel_min             =  -4.2701784418099E-05
(PID.TID 0000.0001) %MON dynstat_wvel_mean            =  -1.6721292538272E-22
(PID.TID 0000.0001) %MON dynstat_wvel_sd              =   7.0932734572013E-06
(PID.TID 0000.0001) %MON dynstat_wvel_del2            =   2.0997933565477E-07
(PID.TID 0000.0001) %MON dynstat_theta_max            =   1.2475892852862E+01
(PID.TID 0000.0001) %MON dynstat_theta_min            =  -1.8558718072758E+00
(PID.TID 0000.0001) %MON dynstat_theta_mean           =   3.0883055307091E+00
(PID.TID 0000.0001) %MON dynstat_theta_sd             =   1.4311571980913E+00
(PID.TID 0000.0001) %MON dynstat_theta_del2           =   1.7777984907726E-02
(PID.TID 0000.0001) %MON dynstat_salt_max             =   3.5292739212685E+01
(PID.TID 0000.0001) %MON dynstat_salt_min             =   3.0708165705643E+01
(PID.TID 0000.0001) %MON dynstat_salt_mean            =   3.4759317292694E+01
(PID.TID 0000.0001) %MON dynstat_salt_sd              =   4.2861202768029E-01
(PID.TID 0000.0001) %MON dynstat_salt_del2            =   4.0340518333466E-03
(PID.TID 0000.0001) %MON forcing_qnet_max             =   2.7443917801118E+02
(PID.TID 0000.0001) %MON forcing_qnet_min             =  -3.9272074931395E+00
(PID.TID 0000.0001) %MON forcing_qnet_mean            =   1.0176561942420E+02
(PID.TID 0000.0001) %MON forcing_qnet_sd              =   5.7703528441312E+01
(PID.TID 0000.0001) %MON forcing_qnet_del2            =   5.0899860005986E+00
(PID.TID 0000.0001) %MON forcing_qsw_max              =  -2.7003441495940E-06
(PID.TID 0000.0001) %MON forcing_qsw_min              =  -6.4105206467675E+01
(PID.TID 0000.0001) %MON forcing_qsw_mean             =  -2.4774941186273E+01
(PID.TID 0000.0001) %MON forcing_qsw_sd               =   2.1145733265946E+01
(PID.TID 0000.0001) %MON forcing_qsw_del2             =   3.7594968002595E-01
(PID.TID 0000.0001) %MON forcing_empmr_max            =   5.4073395884177E-04
(PID.TID 0000.0001) %MON forcing_empmr_min            =  -8.3185497194745E-05
(PID.TID 0000.0001) %MON forcing_empmr_mean           =   1.3837523894833E-05
(PID.TID 0000.0001) %MON forcing_empmr_sd             =   8.4425886553827E-05
(PID.TID 0000.0001) %MON forcing_empmr_del2           =   9.7697989039877E-06
(PID.TID 0000.0001) %MON forcing_fu_max               =   6.2116490734782E-02
(PID.TID 0000.0001) %MON forcing_fu_min               =  -1.8260701515753E-02
(PID.TID 0000.0001) %MON forcing_fu_mean              =   2.4020349654042E-02
(PID.TID 0000.0001) %MON forcing_fu_sd                =   2.0997786654151E-02
(PID.TID 0000.0001) %MON forcing_fu_del2              =   9.9251558433684E-04
(PID.TID 0000.0001) %MON forcing_fv_max               =   1.4727381829922E-02
(PID.TID 0000.0001) %MON forcing_fv_min               =  -4.1792414650148E-02
(PID.TID 0000.0001) %MON forcing_fv_mean              =  -4.8377985924090E-03
(PID.TID 0000.0001) %MON forcing_fv_sd                =   1.1834261724170E-02
(PID.TID 0000.0001) %MON forcing_fv_del2              =   7.0312558209297E-04
(PID.TID 0000.0001) %MON advcfl_uvel_max              =   9.8595059961379E-04
(PID.TID 0000.0001) %MON advcfl_vvel_max              =   7.9703366300592E-04
(PID.TID 0000.0001) %MON advcfl_wvel_max              =   2.3575366028804E-03
(PID.TID 0000.0001) %MON advcfl_W_hf_max              =   1.3659088089309E-03
(PID.TID 0000.0001) %MON pe_b_mean                    =   5.0433375605101E-06
(PID.TID 0000.0001) %MON ke_max                       =   1.0238719150256E-03
(PID.TID 0000.0001) %MON ke_mean                      =   7.5888465396973E-06
(PID.TID 0000.0001) %MON ke_vol                       =   5.2906584519726E+15
(PID.TID 0000.0001) %MON vort_r_min                   =  -2.6279810160578E-07
(PID.TID 0000.0001) %MON vort_r_max                   =   2.2112533175381E-07
(PID.TID 0000.0001) %MON vort_a_mean                  =   1.2074434650046E-04
(PID.TID 0000.0001) %MON vort_a_sd                    =   8.7670491212080E-06
(PID.TID 0000.0001) %MON vort_p_mean                  =   1.7734550359553E-04
(PID.TID 0000.0001) %MON vort_p_sd                    =   1.1734920985064E-04
(PID.TID 0000.0001) %MON surfExpan_theta_mean         =  -2.0866022697489E-06
(PID.TID 0000.0001) %MON surfExpan_salt_mean          =   2.2290590735848E-08
(PID.TID 0000.0001) // =======================================================
(PID.TID 0000.0001) // End MONITOR dynamic field statistics
(PID.TID 0000.0001) // =======================================================
(PID.TID 0000.0001) // =======================================================
(PID.TID 0000.0001) // Begin MONITOR SEAICE statistics
(PID.TID 0000.0001) // =======================================================
(PID.TID 0000.0001) %MON seaice_tsnumber              =                     8
(PID.TID 0000.0001) %MON seaice_time_sec              =   2.8800000000000E+04
(PID.TID 0000.0001) %MON seaice_uice_max              =   1.3292047237502E-01
(PID.TID 0000.0001) %MON seaice_uice_min              =  -6.1455561069906E-02
(PID.TID 0000.0001) %MON seaice_uice_mean             =   5.1300842337749E-02
(PID.TID 0000.0001) %MON seaice_uice_sd               =   4.7517921607939E-02
(PID.TID 0000.0001) %MON seaice_uice_del2             =   1.5423543780836E-03
(PID.TID 0000.0001) %MON seaice_vice_max              =   3.1833989513043E-02
(PID.TID 0000.0001) %MON seaice_vice_min              =  -1.0359035136992E-01
(PID.TID 0000.0001) %MON seaice_vice_mean             =  -2.0221470468022E-02
(PID.TID 0000.0001) %MON seaice_vice_sd               =   3.4100356623319E-02
(PID.TID 0000.0001) %MON seaice_vice_del2             =   1.5837964272990E-03
(PID.TID 0000.0001) %MON seaice_area_max              =   9.9995782879153E-01
(PID.TID 0000.0001) %MON seaice_area_min              =   0.0000000000000E+00
(PID.TID 0000.0001) %MON seaice_area_mean             =   3.1842884004351E-01
(PID.TID 0000.0001) %MON seaice_area_sd               =   4.4023765861912E-01
(PID.TID 0000.0001) %MON seaice_area_del2             =   2.1609695487968E-02
(PID.TID 0000.0001) %MON seaice_heff_max              =   1.6274787661897E+00
(PID.TID 0000.0001) %MON seaice_heff_min              =   0.0000000000000E+00
(PID.TID 0000.0001) %MON seaice_heff_mean             =   1.7155245434565E-01
(PID.TID 0000.0001) %MON seaice_heff_sd               =   3.3206949576292E-01
(PID.TID 0000.0001) %MON seaice_heff_del2             =   9.3976319954877E-03
(PID.TID 0000.0001) %MON seaice_hsnow_max             =   3.4647950443412E-01
(PID.TID 0000.0001) %MON seaice_hsnow_min             =   0.0000000000000E+00
(PID.TID 0000.0001) %MON seaice_hsnow_mean            =   3.0752595078074E-02
(PID.TID 0000.0001) %MON seaice_hsnow_sd              =   6.5384415652231E-02
(PID.TID 0000.0001) %MON seaice_hsnow_del2            =   2.1266542034131E-03
(PID.TID 0000.0001) // =======================================================
(PID.TID 0000.0001) // End MONITOR SEAICE statistics
(PID.TID 0000.0001) // =======================================================
(PID.TID 0000.0001) // =======================================================
(PID.TID 0000.0001) // Begin MONITOR EXF statistics
(PID.TID 0000.0001) // =======================================================
(PID.TID 0000.0001) %MON exf_tsnumber                 =                     8
(PID.TID 0000.0001) %MON exf_time_sec                 =   2.8800000000000E+04
(PID.TID 0000.0001) %MON exf_ustress_max              =   6.2678857669557E-02
(PID.TID 0000.0001) %MON exf_ustress_min              =  -9.3858091277619E-02
(PID.TID 0000.0001) %MON exf_ustress_mean             =   2.2478722380295E-02
(PID.TID 0000.0001) %MON exf_ustress_sd               =   2.6375102670427E-02
(PID.TID 0000.0001) %MON exf_ustress_del2             =   7.2654086255693E-04
(PID.TID 0000.0001) %MON exf_vstress_max              =   5.3869218614003E-02
(PID.TID 0000.0001) %MON exf_vstress_min              =  -5.9374105056395E-02
(PID.TID 0000.0001) %MON exf_vstress_mean             =  -5.2261559470512E-03
(PID.TID 0000.0001) %MON exf_vstress_sd               =   1.5116296520810E-02
(PID.TID 0000.0001) %MON exf_vstress_del2             =   5.1416110707860E-04
(PID.TID 0000.0001) %MON exf_hflux_max                =   6.3309477087089E+02
(PID.TID 0000.0001) %MON exf_hflux_min                =   8.9521692257294E+01
(PID.TID 0000.0001) %MON exf_hflux_mean               =   2.1629475933700E+02
(PID.TID 0000.0001) %MON exf_hflux_sd                 =   1.3270184021311E+02
(PID.TID 0000.0001) %MON exf_hflux_del2               =   5.2143991479440E+00
(PID.TID 0000.0001) %MON exf_sflux_max                =   4.0753089905076E-08
(PID.TID 0000.0001) %MON exf_sflux_min                =  -8.3207993988595E-08
(PID.TID 0000.0001) %MON exf_sflux_mean               =  -1.6136431198972E-08
(PID.TID 0000.0001) %MON exf_sflux_sd                 =   2.4303700030047E-08
(PID.TID 0000.0001) %MON exf_sflux_del2               =   1.0081475161484E-09
(PID.TID 0000.0001) %MON exf_uwind_max                =   6.4684341618272E+00
(PID.TID 0000.0001) %MON exf_uwind_min                =  -6.8374523269674E+00
(PID.TID 0000.0001) %MON exf_uwind_mean               =   2.8378810832850E+00
(PID.TID 0000.0001) %MON exf_uwind_sd                 =   2.9498173341425E+00
(PID.TID 0000.0001) %MON exf_uwind_del2               =   8.0528995459648E-02
(PID.TID 0000.0001) %MON exf_vwind_max                =   3.9243096588739E+00
(PID.TID 0000.0001) %MON exf_vwind_min                =  -6.0124561096150E+00
(PID.TID 0000.0001) %MON exf_vwind_mean               =  -7.4386744609221E-01
(PID.TID 0000.0001) %MON exf_vwind_sd                 =   1.7360478508258E+00
(PID.TID 0000.0001) %MON exf_vwind_del2               =   4.8322600699253E-02
(PID.TID 0000.0001) %MON exf_wspeed_max               =   7.8835880550853E+00
(PID.TID 0000.0001) %MON exf_wspeed_min               =   4.5840953253040E-01
(PID.TID 0000.0001) %MON exf_wspeed_mean              =   4.2117821225347E+00
(PID.TID 0000.0001) %MON exf_wspeed_sd                =   1.6071974420352E+00
(PID.TID 0000.0001) %MON exf_wspeed_del2              =   2.4137206785732E-01
(PID.TID 0000.0001) %MON exf_atemp_max                =   2.8186911527707E+02
(PID.TID 0000.0001) %MON exf_atemp_min                =   2.3642604936277E+02
(PID.TID 0000.0001) %MON exf_atemp_mean               =   2.6416600580683E+02
(PID.TID 0000.0001) %MON exf_atemp_sd                 =   1.1848767051105E+01
(PID.TID 0000.0001) %MON exf_atemp_del2               =   7.2640071919477E-01
(PID.TID 0000.0001) %MON exf_aqh_max                  =   6.3176006167781E-03
(PID.TID 0000.0001) %MON exf_aqh_min                  =   1.6293992018683E-04
(PID.TID 0000.0001) %MON exf_aqh_mean                 =   2.5019536535923E-03
(PID.TID 0000.0001) %MON exf_aqh_sd                   =   1.4155688710397E-03
(PID.TID 0000.0001) %MON exf_aqh_del2                 =   7.8413257571855E-05
(PID.TID 0000.0001) %MON exf_lwflux_max               =   1.8564050483363E+02
(PID.TID 0000.0001) %MON exf_lwflux_min               =   6.7051280359171E+01
(PID.TID 0000.0001) %MON exf_lwflux_mean              =   9.7228099016009E+01
(PID.TID 0000.0001) %MON exf_lwflux_sd                =   3.0732099298628E+01
(PID.TID 0000.0001) %MON exf_lwflux_del2              =   4.7464880155253E+00
(PID.TID 0000.0001) %MON exf_precip_max               =   1.0499871454869E-07
(PID.TID 0000.0001) %MON exf_precip_min               =   2.7252357516229E-10
(PID.TID 0000.0001) %MON exf_precip_mean              =   3.6703238631885E-08
(PID.TID 0000.0001) %MON exf_precip_sd                =   2.0520030742814E-08
(PID.TID 0000.0001) %MON exf_precip_del2              =   1.7263820281083E-09
(PID.TID 0000.0001) %MON exf_swflux_max               =  -8.1208018494434E-02
(PID.TID 0000.0001) %MON exf_swflux_min               =  -6.4124076818247E+01
(PID.TID 0000.0001) %MON exf_swflux_mean              =  -2.6872126423255E+01
(PID.TID 0000.0001) %MON exf_swflux_sd                =   1.9552593445021E+01
(PID.TID 0000.0001) %MON exf_swflux_del2              =   9.2258434634249E-02
(PID.TID 0000.0001) %MON exf_evap_max                 =   4.7071996041725E-08
(PID.TID 0000.0001) %MON exf_evap_min                 =   5.4621284043968E-09
(PID.TID 0000.0001) %MON exf_evap_mean                =   2.0566807432912E-08
(PID.TID 0000.0001) %MON exf_evap_sd                  =   6.9496354518206E-09
(PID.TID 0000.0001) %MON exf_evap_del2                =   1.0845336848556E-09
(PID.TID 0000.0001) %MON exf_swdown_max               =   7.1248974242497E+01
(PID.TID 0000.0001) %MON exf_swdown_min               =   9.0231131660482E-02
(PID.TID 0000.0001) %MON exf_swdown_mean              =   2.9857918248061E+01
(PID.TID 0000.0001) %MON exf_swdown_sd                =   2.1725103827801E+01
(PID.TID 0000.0001) %MON exf_swdown_del2              =   8.8334979400628E-01
(PID.TID 0000.0001) %MON exf_lwdown_max               =   3.0560910934698E+02
(PID.TID 0000.0001) %MON exf_lwdown_min               =   1.1587683707899E+02
(PID.TID 0000.0001) %MON exf_lwdown_mean              =   2.2672137960213E+02
(PID.TID 0000.0001) %MON exf_lwdown_sd                =   4.5900365809366E+01
(PID.TID 0000.0001) %MON exf_lwdown_del2              =   8.3889361137954E+00
(PID.TID 0000.0001) %MON exf_climsss_max              =   3.5041808863155E+01
(PID.TID 0000.0001) %MON exf_climsss_min              =   3.0672387795370E+01
(PID.TID 0000.0001) %MON exf_climsss_mean             =   3.3457864613400E+01
(PID.TID 0000.0001) %MON exf_climsss_sd               =   1.0363396728335E+00
(PID.TID 0000.0001) %MON exf_climsss_del2             =   2.7334649103558E-02
(PID.TID 0000.0001) // =======================================================
(PID.TID 0000.0001) // End MONITOR EXF statistics
(PID.TID 0000.0001) // =======================================================
 cg2d: Sum(rhs),rhsMax =   9.60898027813073E-14  3.76904098971384E-01
(PID.TID 0000.0001)      cg2d_init_res =   6.37846445434740E-02
(PID.TID 0000.0001)      cg2d_iters(min,last) =      -1      41
(PID.TID 0000.0001)      cg2d_last_res =   3.38691965864415E-13
(PID.TID 0000.0001) // =======================================================
(PID.TID 0000.0001) // Begin MONITOR dynamic field statistics
(PID.TID 0000.0001) // =======================================================
(PID.TID 0000.0001) %MON time_tsnumber                =                     9
(PID.TID 0000.0001) %MON time_secondsf                =   3.2400000000000E+04
(PID.TID 0000.0001) %MON dynstat_eta_max              =   7.9681339613447E-02
(PID.TID 0000.0001) %MON dynstat_eta_min              =  -9.6000786082046E-02
(PID.TID 0000.0001) %MON dynstat_eta_mean             =  -7.6076461071919E-16
(PID.TID 0000.0001) %MON dynstat_eta_sd               =   3.7854962354567E-02
(PID.TID 0000.0001) %MON dynstat_eta_del2             =   1.8413087143360E-03
(PID.TID 0000.0001) %MON dynstat_uvel_max             =   2.6568088451462E-02
(PID.TID 0000.0001) %MON dynstat_uvel_min             =  -3.1526573404173E-02
(PID.TID 0000.0001) %MON dynstat_uvel_mean            =  -8.0311377817554E-05
(PID.TID 0000.0001) %MON dynstat_uvel_sd              =   2.5166316666347E-03
(PID.TID 0000.0001) %MON dynstat_uvel_del2            =   1.1867979983355E-04
(PID.TID 0000.0001) %MON dynstat_vvel_max             =   3.1662023631054E-02
(PID.TID 0000.0001) %MON dynstat_vvel_min             =  -5.6491152498959E-02
(PID.TID 0000.0001) %MON dynstat_vvel_mean            =   2.2354749265932E-04
(PID.TID 0000.0001) %MON dynstat_vvel_sd              =   4.1636690617496E-03
(PID.TID 0000.0001) %MON dynstat_vvel_del2            =   1.8516877884527E-04
(PID.TID 0000.0001) %MON dynstat_wvel_max             =   2.0192725395918E-05
(PID.TID 0000.0001) %MON dynstat_wvel_min             =  -5.2576185691703E-05
(PID.TID 0000.0001) %MON dynstat_wvel_mean            =   3.6539120731780E-22
(PID.TID 0000.0001) %MON dynstat_wvel_sd              =   9.5090887322841E-06
(PID.TID 0000.0001) %MON dynstat_wvel_del2            =   2.7606126959662E-07
(PID.TID 0000.0001) %MON dynstat_theta_max            =   1.2475917699574E+01
(PID.TID 0000.0001) %MON dynstat_theta_min            =  -1.8556787490550E+00
(PID.TID 0000.0001) %MON dynstat_theta_mean           =   3.0882515527303E+00
(PID.TID 0000.0001) %MON dynstat_theta_sd             =   1.4311089635169E+00
(PID.TID 0000.0001) %MON dynstat_theta_del2           =   1.7778173733337E-02
(PID.TID 0000.0001) %MON dynstat_salt_max             =   3.5292711526397E+01
(PID.TID 0000.0001) %MON dynstat_salt_min             =   3.0708187238176E+01
(PID.TID 0000.0001) %MON dynstat_salt_mean            =   3.4759319313078E+01
(PID.TID 0000.0001) %MON dynstat_salt_sd              =   4.2860085088345E-01
(PID.TID 0000.0001) %MON dynstat_salt_del2            =   4.0343211930338E-03
(PID.TID 0000.0001) %MON forcing_qnet_max             =   2.7440291152788E+02
(PID.TID 0000.0001) %MON forcing_qnet_min             =  -2.5938738332526E+00
(PID.TID 0000.0001) %MON forcing_qnet_mean            =   1.0189630061109E+02
(PID.TID 0000.0001) %MON forcing_qnet_sd              =   5.7444313915339E+01
(PID.TID 0000.0001) %MON forcing_qnet_del2            =   4.9916270163643E+00
(PID.TID 0000.0001) %MON forcing_qsw_max              =  -4.5970636593855E-06
(PID.TID 0000.0001) %MON forcing_qsw_min              =  -6.4124076818247E+01
(PID.TID 0000.0001) %MON forcing_qsw_mean             =  -2.4784156474084E+01
(PID.TID 0000.0001) %MON forcing_qsw_sd               =   2.1148702736439E+01
(PID.TID 0000.0001) %MON forcing_qsw_del2             =   3.7554051289245E-01
(PID.TID 0000.0001) %MON forcing_empmr_max            =   5.2563663887627E-04
(PID.TID 0000.0001) %MON forcing_empmr_min            =  -8.3191352389797E-05
(PID.TID 0000.0001) %MON forcing_empmr_mean           =   1.3459305540244E-05
(PID.TID 0000.0001) %MON forcing_empmr_sd             =   8.3059256244860E-05
(PID.TID 0000.0001) %MON forcing_empmr_del2           =   9.4325226678650E-06
(PID.TID 0000.0001) %MON forcing_fu_max               =   6.2126582542879E-02
(PID.TID 0000.0001) %MON forcing_fu_min               =  -1.8273323368748E-02
(PID.TID 0000.0001) %MON forcing_fu_mean              =   2.4070628356776E-02
(PID.TID 0000.0001) %MON forcing_fu_sd                =   2.0927718147996E-02
(PID.TID 0000.0001) %MON forcing_fu_del2              =   7.8175426758004E-04
(PID.TID 0000.0001) %MON forcing_fv_max               =   1.4731091633054E-02
(PID.TID 0000.0001) %MON forcing_fv_min               =  -4.1778342069762E-02
(PID.TID 0000.0001) %MON forcing_fv_mean              =  -4.8664459794862E-03
(PID.TID 0000.0001) %MON forcing_fv_sd                =   1.1756803072377E-02
(PID.TID 0000.0001) %MON forcing_fv_del2              =   4.8430189953231E-04
(PID.TID 0000.0001) %MON advcfl_uvel_max              =   1.1241325875894E-03
(PID.TID 0000.0001) %MON advcfl_vvel_max              =   9.1446685174015E-04
(PID.TID 0000.0001) %MON advcfl_wvel_max              =   1.8990309533365E-03
(PID.TID 0000.0001) %MON advcfl_W_hf_max              =   1.8595405990149E-03
(PID.TID 0000.0001) %MON pe_b_mean                    =   4.6765127668882E-06
(PID.TID 0000.0001) %MON ke_max                       =   1.2488416306669E-03
(PID.TID 0000.0001) %MON ke_mean                      =   9.2671347743491E-06
(PID.TID 0000.0001) %MON ke_vol                       =   5.2906584519726E+15
(PID.TID 0000.0001) %MON vort_r_min                   =  -2.9550668096272E-07
(PID.TID 0000.0001) %MON vort_r_max                   =   2.3782238318036E-07
(PID.TID 0000.0001) %MON vort_a_mean                  =   1.2074434650046E-04
(PID.TID 0000.0001) %MON vort_a_sd                    =   8.7670857771174E-06
(PID.TID 0000.0001) %MON vort_p_mean                  =   1.7734550359553E-04
(PID.TID 0000.0001) %MON vort_p_sd                    =   1.1734749198179E-04
(PID.TID 0000.0001) %MON surfExpan_theta_mean         =  -2.0016693425078E-06
(PID.TID 0000.0001) %MON surfExpan_salt_mean          =  -3.0461376392469E-08
(PID.TID 0000.0001) // =======================================================
(PID.TID 0000.0001) // End MONITOR dynamic field statistics
(PID.TID 0000.0001) // =======================================================
(PID.TID 0000.0001) // =======================================================
(PID.TID 0000.0001) // Begin MONITOR SEAICE statistics
(PID.TID 0000.0001) // =======================================================
(PID.TID 0000.0001) %MON seaice_tsnumber              =                     9
(PID.TID 0000.0001) %MON seaice_time_sec              =   3.2400000000000E+04
(PID.TID 0000.0001) %MON seaice_uice_max              =   1.3125289235494E-01
(PID.TID 0000.0001) %MON seaice_uice_min              =  -6.0934773048525E-02
(PID.TID 0000.0001) %MON seaice_uice_mean             =   5.0418471144996E-02
(PID.TID 0000.0001) %MON seaice_uice_sd               =   4.7330002714909E-02
(PID.TID 0000.0001) %MON seaice_uice_del2             =   1.5102639015794E-03
(PID.TID 0000.0001) %MON seaice_vice_max              =   3.5428676909987E-02
(PID.TID 0000.0001) %MON seaice_vice_min              =  -1.0569766640769E-01
(PID.TID 0000.0001) %MON seaice_vice_mean             =  -2.1476802938684E-02
(PID.TID 0000.0001) %MON seaice_vice_sd               =   3.5304611916976E-02
(PID.TID 0000.0001) %MON seaice_vice_del2             =   1.6737162050746E-03
(PID.TID 0000.0001) %MON seaice_area_max              =   9.9993304516521E-01
(PID.TID 0000.0001) %MON seaice_area_min              =   0.0000000000000E+00
(PID.TID 0000.0001) %MON seaice_area_mean             =   3.1831804902679E-01
(PID.TID 0000.0001) %MON seaice_area_sd               =   4.4000835907839E-01
(PID.TID 0000.0001) %MON seaice_area_del2             =   2.1569071897196E-02
(PID.TID 0000.0001) %MON seaice_heff_max              =   1.6275471403807E+00
(PID.TID 0000.0001) %MON seaice_heff_min              =   0.0000000000000E+00
(PID.TID 0000.0001) %MON seaice_heff_mean             =   1.7168456699884E-01
(PID.TID 0000.0001) %MON seaice_heff_sd               =   3.3214966753002E-01
(PID.TID 0000.0001) %MON seaice_heff_del2             =   9.4017799744367E-03
(PID.TID 0000.0001) %MON seaice_hsnow_max             =   3.4665355166299E-01
(PID.TID 0000.0001) %MON seaice_hsnow_min             =   0.0000000000000E+00
(PID.TID 0000.0001) %MON seaice_hsnow_mean            =   3.0802286115649E-02
(PID.TID 0000.0001) %MON seaice_hsnow_sd              =   6.5426328595899E-02
(PID.TID 0000.0001) %MON seaice_hsnow_del2            =   2.1291592430489E-03
(PID.TID 0000.0001) // =======================================================
(PID.TID 0000.0001) // End MONITOR SEAICE statistics
(PID.TID 0000.0001) // =======================================================
(PID.TID 0000.0001) // =======================================================
(PID.TID 0000.0001) // Begin MONITOR EXF statistics
(PID.TID 0000.0001) // =======================================================
(PID.TID 0000.0001) %MON exf_tsnumber                 =                     9
(PID.TID 0000.0001) %MON exf_time_sec                 =   3.2400000000000E+04
(PID.TID 0000.0001) %MON exf_ustress_max              =   6.2689848800200E-02
(PID.TID 0000.0001) %MON exf_ustress_min              =  -9.3860937983047E-02
(PID.TID 0000.0001) %MON exf_ustress_mean             =   2.2481292996223E-02
(PID.TID 0000.0001) %MON exf_ustress_sd               =   2.6379346351091E-02
(PID.TID 0000.0001) %MON exf_ustress_del2             =   7.2660188673112E-04
(PID.TID 0000.0001) %MON exf_vstress_max              =   5.3871055759216E-02
(PID.TID 0000.0001) %MON exf_vstress_min              =  -5.9357397919347E-02
(PID.TID 0000.0001) %MON exf_vstress_mean             =  -5.2214434137030E-03
(PID.TID 0000.0001) %MON exf_vstress_sd               =   1.5117587029975E-02
(PID.TID 0000.0001) %MON exf_vstress_del2             =   5.1417267004196E-04
(PID.TID 0000.0001) %MON exf_hflux_max                =   6.3318787293270E+02
(PID.TID 0000.0001) %MON exf_hflux_min                =   8.9515457614166E+01
(PID.TID 0000.0001) %MON exf_hflux_mean               =   2.1632869990685E+02
(PID.TID 0000.0001) %MON exf_hflux_sd                 =   1.3275215848896E+02
(PID.TID 0000.0001) %MON exf_hflux_del2               =   5.2153267949651E+00
(PID.TID 0000.0001) %MON exf_sflux_max                =   4.0758477082426E-08
(PID.TID 0000.0001) %MON exf_sflux_min                =  -8.3214213988199E-08
(PID.TID 0000.0001) %MON exf_sflux_mean               =  -1.6134952132898E-08
(PID.TID 0000.0001) %MON exf_sflux_sd                 =   2.4307571526794E-08
(PID.TID 0000.0001) %MON exf_sflux_del2               =   1.0082263870420E-09
(PID.TID 0000.0001) %MON exf_uwind_max                =   6.4689416142761E+00
(PID.TID 0000.0001) %MON exf_uwind_min                =  -6.8374791086697E+00
(PID.TID 0000.0001) %MON exf_uwind_mean               =   2.8379889534150E+00
(PID.TID 0000.0001) %MON exf_uwind_sd                 =   2.9501005293878E+00
(PID.TID 0000.0001) %MON exf_uwind_del2               =   8.0528899528444E-02
(PID.TID 0000.0001) %MON exf_vwind_max                =   3.9243398396695E+00
(PID.TID 0000.0001) %MON exf_vwind_min                =  -6.0115501997901E+00
(PID.TID 0000.0001) %MON exf_vwind_mean               =  -7.4323915144058E-01
(PID.TID 0000.0001) %MON exf_vwind_sd                 =   1.7361516878393E+00
(PID.TID 0000.0001) %MON exf_vwind_del2               =   4.8322929752037E-02
(PID.TID 0000.0001) %MON exf_wspeed_max               =   7.8836263063842E+00
(PID.TID 0000.0001) %MON exf_wspeed_min               =   4.5816671047235E-01
(PID.TID 0000.0001) %MON exf_wspeed_mean              =   4.2118860999947E+00
(PID.TID 0000.0001) %MON exf_wspeed_sd                =   1.6074566971750E+00
(PID.TID 0000.0001) %MON exf_wspeed_del2              =   2.4136920987052E-01
(PID.TID 0000.0001) %MON exf_atemp_max                =   2.8186740312420E+02
(PID.TID 0000.0001) %MON exf_atemp_min                =   2.3642158439511E+02
(PID.TID 0000.0001) %MON exf_atemp_mean               =   2.6416133627131E+02
(PID.TID 0000.0001) %MON exf_atemp_sd                 =   1.1850312554070E+01
(PID.TID 0000.0001) %MON exf_atemp_del2               =   7.2670703862678E-01
(PID.TID 0000.0001) %MON exf_aqh_max                  =   6.3169040759170E-03
(PID.TID 0000.0001) %MON exf_aqh_min                  =   1.6284581668843E-04
(PID.TID 0000.0001) %MON exf_aqh_mean                 =   2.5013873621499E-03
(PID.TID 0000.0001) %MON exf_aqh_sd                   =   1.4154727644518E-03
(PID.TID 0000.0001) %MON exf_aqh_del2                 =   7.8388767780130E-05
(PID.TID 0000.0001) %MON exf_lwflux_max               =   1.8565458163826E+02
(PID.TID 0000.0001) %MON exf_lwflux_min               =   6.7051922477901E+01
(PID.TID 0000.0001) %MON exf_lwflux_mean              =   9.7236998203702E+01
(PID.TID 0000.0001) %MON exf_lwflux_sd                =   3.0741899014167E+01
(PID.TID 0000.0001) %MON exf_lwflux_del2              =   4.7473335555454E+00
(PID.TID 0000.0001) %MON exf_precip_max               =   1.0500009599131E-07
(PID.TID 0000.0001) %MON exf_precip_min               =   2.7238964868961E-10
(PID.TID 0000.0001) %MON exf_precip_mean              =   3.6703220699135E-08
(PID.TID 0000.0001) %MON exf_precip_sd                =   2.0520502017126E-08
(PID.TID 0000.0001) %MON exf_precip_del2              =   1.7266657520714E-09
(PID.TID 0000.0001) %MON exf_swflux_max               =  -8.1208301372215E-02
(PID.TID 0000.0001) %MON exf_swflux_min               =  -6.4142947168819E+01
(PID.TID 0000.0001) %MON exf_swflux_mean              =  -2.6882791857661E+01
(PID.TID 0000.0001) %MON exf_swflux_sd                =   1.9556320509086E+01
(PID.TID 0000.0001) %MON exf_swflux_del2              =   9.2288191915998E-02
(PID.TID 0000.0001) %MON exf_evap_max                 =   4.7076720508146E-08
(PID.TID 0000.0001) %MON exf_evap_min                 =   5.4576716009935E-09
(PID.TID 0000.0001) %MON exf_evap_mean                =   2.0568268566237E-08
(PID.TID 0000.0001) %MON exf_evap_sd                  =   6.9511063699578E-09
(PID.TID 0000.0001) %MON exf_evap_del2                =   1.0847608854573E-09
(PID.TID 0000.0001) %MON exf_swdown_max               =   7.1269941298688E+01
(PID.TID 0000.0001) %MON exf_swdown_min               =   9.0231445969128E-02
(PID.TID 0000.0001) %MON exf_swdown_mean              =   2.9869768730735E+01
(PID.TID 0000.0001) %MON exf_swdown_sd                =   2.1729245010096E+01
(PID.TID 0000.0001) %MON exf_swdown_del2              =   8.8380916819454E-01
(PID.TID 0000.0001) %MON exf_lwdown_max               =   3.0560028326316E+02
(PID.TID 0000.0001) %MON exf_lwdown_min               =   1.1586173020035E+02
(PID.TID 0000.0001) %MON exf_lwdown_mean              =   2.2670554649818E+02
(PID.TID 0000.0001) %MON exf_lwdown_sd                =   4.5904626551810E+01
(PID.TID 0000.0001) %MON exf_lwdown_del2              =   8.3879552837063E+00
(PID.TID 0000.0001) %MON exf_climsss_max              =   3.5041993610194E+01
(PID.TID 0000.0001) %MON exf_climsss_min              =   3.0673147123368E+01
(PID.TID 0000.0001) %MON exf_climsss_mean             =   3.3458377145617E+01
(PID.TID 0000.0001) %MON exf_climsss_sd               =   1.0362634932469E+00
(PID.TID 0000.0001) %MON exf_climsss_del2             =   2.7332192219570E-02
(PID.TID 0000.0001) // =======================================================
(PID.TID 0000.0001) // End MONITOR EXF statistics
(PID.TID 0000.0001) // =======================================================
 cg2d: Sum(rhs),rhsMax =   8.86790640919344E-14  3.72134112974353E-01
(PID.TID 0000.0001)      cg2d_init_res =   6.17313264581716E-02
(PID.TID 0000.0001)      cg2d_iters(min,last) =      -1      40
(PID.TID 0000.0001)      cg2d_last_res =   7.69901862657034E-13
(PID.TID 0000.0001) // =======================================================
(PID.TID 0000.0001) // Begin MONITOR dynamic field statistics
(PID.TID 0000.0001) // =======================================================
(PID.TID 0000.0001) %MON time_tsnumber                =                    10
(PID.TID 0000.0001) %MON time_secondsf                =   3.6000000000000E+04
(PID.TID 0000.0001) %MON dynstat_eta_max              =   7.6534156119458E-02
(PID.TID 0000.0001) %MON dynstat_eta_min              =  -9.4990809655094E-02
(PID.TID 0000.0001) %MON dynstat_eta_mean             =  -1.2699650970272E-15
(PID.TID 0000.0001) %MON dynstat_eta_sd               =   3.7018962816768E-02
(PID.TID 0000.0001) %MON dynstat_eta_del2             =   1.8478933840517E-03
(PID.TID 0000.0001) %MON dynstat_uvel_max             =   2.6674081669608E-02
(PID.TID 0000.0001) %MON dynstat_uvel_min             =  -3.2392340259748E-02
(PID.TID 0000.0001) %MON dynstat_uvel_mean            =  -4.4806711959893E-05
(PID.TID 0000.0001) %MON dynstat_uvel_sd              =   2.6615622980690E-03
(PID.TID 0000.0001) %MON dynstat_uvel_del2            =   1.2084221237508E-04
(PID.TID 0000.0001) %MON dynstat_vvel_max             =   3.2766248346743E-02
(PID.TID 0000.0001) %MON dynstat_vvel_min             =  -6.0399947817104E-02
(PID.TID 0000.0001) %MON dynstat_vvel_mean            =   1.3652387519971E-04
(PID.TID 0000.0001) %MON dynstat_vvel_sd              =   4.4244893047648E-03
(PID.TID 0000.0001) %MON dynstat_vvel_del2            =   1.9505345150753E-04
(PID.TID 0000.0001) %MON dynstat_wvel_max             =   2.1625532056887E-05
(PID.TID 0000.0001) %MON dynstat_wvel_min             =  -5.3071508879651E-05
(PID.TID 0000.0001) %MON dynstat_wvel_mean            =   4.9544570483770E-23
(PID.TID 0000.0001) %MON dynstat_wvel_sd              =   1.0349530926593E-05
(PID.TID 0000.0001) %MON dynstat_wvel_del2            =   2.9402995616863E-07
(PID.TID 0000.0001) %MON dynstat_theta_max            =   1.2475903134848E+01
(PID.TID 0000.0001) %MON dynstat_theta_min            =  -1.8555076907572E+00
(PID.TID 0000.0001) %MON dynstat_theta_mean           =   3.0881959992871E+00
(PID.TID 0000.0001) %MON dynstat_theta_sd             =   1.4310636999482E+00
(PID.TID 0000.0001) %MON dynstat_theta_del2           =   1.7780249934786E-02
(PID.TID 0000.0001) %MON dynstat_salt_max             =   3.5292683766079E+01
(PID.TID 0000.0001) %MON dynstat_salt_min             =   3.0708208110116E+01
(PID.TID 0000.0001) %MON dynstat_salt_mean            =   3.4759321195082E+01
(PID.TID 0000.0001) %MON dynstat_salt_sd              =   4.2859033530535E-01
(PID.TID 0000.0001) %MON dynstat_salt_del2            =   4.0350364786710E-03
(PID.TID 0000.0001) %MON forcing_qnet_max             =   2.7436393696995E+02
(PID.TID 0000.0001) %MON forcing_qnet_min             =  -1.3988965833473E+00
(PID.TID 0000.0001) %MON forcing_qnet_mean            =   1.0298612016282E+02
(PID.TID 0000.0001) %MON forcing_qnet_sd              =   5.7509681637848E+01
(PID.TID 0000.0001) %MON forcing_qnet_del2            =   5.6148853142156E+00
(PID.TID 0000.0001) %MON forcing_qsw_max              =  -3.6720245529011E-07
(PID.TID 0000.0001) %MON forcing_qsw_min              =  -6.4142947168819E+01
(PID.TID 0000.0001) %MON forcing_qsw_mean             =  -2.4793337007714E+01
(PID.TID 0000.0001) %MON forcing_qsw_sd               =   2.1151715064049E+01
(PID.TID 0000.0001) %MON forcing_qsw_del2             =   3.7508077329029E-01
(PID.TID 0000.0001) %MON forcing_empmr_max            =   5.1168147824721E-04
(PID.TID 0000.0001) %MON forcing_empmr_min            =  -3.6631993595970E-04
(PID.TID 0000.0001) %MON forcing_empmr_mean           =   1.0206684564710E-05
(PID.TID 0000.0001) %MON forcing_empmr_sd             =   8.5431677296961E-05
(PID.TID 0000.0001) %MON forcing_empmr_del2           =   1.3005939866372E-05
(PID.TID 0000.0001) %MON forcing_fu_max               =   6.2136676449761E-02
(PID.TID 0000.0001) %MON forcing_fu_min               =  -1.8287100391649E-02
(PID.TID 0000.0001) %MON forcing_fu_mean              =   2.4127461961626E-02
(PID.TID 0000.0001) %MON forcing_fu_sd                =   2.0898265144792E-02
(PID.TID 0000.0001) %MON forcing_fu_del2              =   7.7883524756953E-04
(PID.TID 0000.0001) %MON forcing_fv_max               =   1.4734791369570E-02
(PID.TID 0000.0001) %MON forcing_fv_min               =  -4.1764216199034E-02
(PID.TID 0000.0001) %MON forcing_fv_mean              =  -4.7632061288153E-03
(PID.TID 0000.0001) %MON forcing_fv_sd                =   1.1793651664739E-02
(PID.TID 0000.0001) %MON forcing_fv_del2              =   5.2607046156267E-04
(PID.TID 0000.0001) %MON advcfl_uvel_max              =   1.1550029496528E-03
(PID.TID 0000.0001) %MON advcfl_vvel_max              =   9.7774160522914E-04
(PID.TID 0000.0001) %MON advcfl_wvel_max              =   1.7259787164583E-03
(PID.TID 0000.0001) %MON advcfl_W_hf_max              =   1.9876938421959E-03
(PID.TID 0000.0001) %MON pe_b_mean                    =   4.4722387516924E-06
(PID.TID 0000.0001) %MON ke_max                       =   1.4543400758897E-03
(PID.TID 0000.0001) %MON ke_mean                      =   1.0420939283936E-05
(PID.TID 0000.0001) %MON ke_vol                       =   5.2906584519726E+15
(PID.TID 0000.0001) %MON vort_r_min                   =  -3.2551272567308E-07
(PID.TID 0000.0001) %MON vort_r_max                   =   2.5109047821424E-07
(PID.TID 0000.0001) %MON vort_a_mean                  =   1.2074434650046E-04
(PID.TID 0000.0001) %MON vort_a_sd                    =   8.7671342735731E-06
(PID.TID 0000.0001) %MON vort_p_mean                  =   1.7734550359553E-04
(PID.TID 0000.0001) %MON vort_p_sd                    =   1.1734691970565E-04
(PID.TID 0000.0001) %MON surfExpan_theta_mean         =  -1.5547044595718E-06
(PID.TID 0000.0001) %MON surfExpan_salt_mean          =  -5.6591328433057E-08
(PID.TID 0000.0001) // =======================================================
(PID.TID 0000.0001) // End MONITOR dynamic field statistics
(PID.TID 0000.0001) // =======================================================
(PID.TID 0000.0001) // Time-average data written, t-step        10
(PID.TID 0000.0001) 
(PID.TID 0000.0001) // =======================================================
(PID.TID 0000.0001) // Begin MONITOR SEAICE statistics
(PID.TID 0000.0001) // =======================================================
(PID.TID 0000.0001) %MON seaice_tsnumber              =                    10
(PID.TID 0000.0001) %MON seaice_time_sec              =   3.6000000000000E+04
(PID.TID 0000.0001) %MON seaice_uice_max              =   1.2969344380739E-01
(PID.TID 0000.0001) %MON seaice_uice_min              =  -6.1601941501347E-02
(PID.TID 0000.0001) %MON seaice_uice_mean             =   4.9863704040727E-02
(PID.TID 0000.0001) %MON seaice_uice_sd               =   4.7238869625016E-02
(PID.TID 0000.0001) %MON seaice_uice_del2             =   1.5108578282614E-03
(PID.TID 0000.0001) %MON seaice_vice_max              =   3.9625436607430E-02
(PID.TID 0000.0001) %MON seaice_vice_min              =  -1.0751997346787E-01
(PID.TID 0000.0001) %MON seaice_vice_mean             =  -2.2815826289825E-02
(PID.TID 0000.0001) %MON seaice_vice_sd               =   3.6537849539472E-02
(PID.TID 0000.0001) %MON seaice_vice_del2             =   1.7586550401220E-03
(PID.TID 0000.0001) %MON seaice_area_max              =   9.9998603448976E-01
(PID.TID 0000.0001) %MON seaice_area_min              =   0.0000000000000E+00
(PID.TID 0000.0001) %MON seaice_area_mean             =   3.1819826841676E-01
(PID.TID 0000.0001) %MON seaice_area_sd               =   4.3976604982254E-01
(PID.TID 0000.0001) %MON seaice_area_del2             =   2.1526262560214E-02
(PID.TID 0000.0001) %MON seaice_heff_max              =   1.6276404245945E+00
(PID.TID 0000.0001) %MON seaice_heff_min              =   0.0000000000000E+00
(PID.TID 0000.0001) %MON seaice_heff_mean             =   1.7180380327410E-01
(PID.TID 0000.0001) %MON seaice_heff_sd               =   3.3221805196283E-01
(PID.TID 0000.0001) %MON seaice_heff_del2             =   9.4072950495870E-03
(PID.TID 0000.0001) %MON seaice_hsnow_max             =   3.4682880857953E-01
(PID.TID 0000.0001) %MON seaice_hsnow_min             =   0.0000000000000E+00
(PID.TID 0000.0001) %MON seaice_hsnow_mean            =   3.0851995563524E-02
(PID.TID 0000.0001) %MON seaice_hsnow_sd              =   6.5468286644804E-02
(PID.TID 0000.0001) %MON seaice_hsnow_del2            =   2.1317421287234E-03
(PID.TID 0000.0001) // =======================================================
(PID.TID 0000.0001) // End MONITOR SEAICE statistics
(PID.TID 0000.0001) // =======================================================
 Computing Diagnostic #    242  SIarea       Counter:      10   Parms: SM      M1      
 Computing Diagnostic #    245  SIheff       Counter:      10   Parms: SM      M1      
 Computing Diagnostic #    247  SIhsnow      Counter:      10   Parms: SM      M1      
 Computing Diagnostic #    251  SIuice       Counter:      10   Parms: UU      M1      
           Vector  Mate for  SIuice       Diagnostic #    252  SIvice   exists 
 Computing Diagnostic #    252  SIvice       Counter:      10   Parms: VV      M1      
           Vector  Mate for  SIvice       Diagnostic #    251  SIuice   exists 
 Computing Diagnostic #     75  MXLDEPTH     Counter:      10   Parms: SM      M1      
 Computing Diagnostic #    228  KPPhbl       Counter:      10   Parms: SM P     1      
 Computing Diagnostic #    227  KPPghatK     Counter:      10   Parms: SM P    LR      
(PID.TID 0000.0001) %CHECKPOINT        10 0000000010
(PID.TID 0000.0001)   Seconds in section "ALL                    [THE_MODEL_MAIN]":
(PID.TID 0000.0001)           User time:   2.2400000000000002
(PID.TID 0000.0001)         System time:  2.00000000000000004E-002
(PID.TID 0000.0001)     Wall clock time:   2.2774689197540283
(PID.TID 0000.0001)          No. starts:           1
(PID.TID 0000.0001)           No. stops:           1
(PID.TID 0000.0001)   Seconds in section "INITIALISE_FIXED       [THE_MODEL_MAIN]":
(PID.TID 0000.0001)           User time:  0.10000000000000001
(PID.TID 0000.0001)         System time:   0.0000000000000000
(PID.TID 0000.0001)     Wall clock time:  0.10971999168395996
(PID.TID 0000.0001)          No. starts:           1
(PID.TID 0000.0001)           No. stops:           1
(PID.TID 0000.0001)   Seconds in section "THE_MAIN_LOOP          [THE_MODEL_MAIN]":
(PID.TID 0000.0001)           User time:   2.1400000000000001
(PID.TID 0000.0001)         System time:  2.00000000000000004E-002
(PID.TID 0000.0001)     Wall clock time:   2.1677150726318359
(PID.TID 0000.0001)          No. starts:           1
(PID.TID 0000.0001)           No. stops:           1
(PID.TID 0000.0001)   Seconds in section "INITIALISE_VARIA    [THE_MAIN_LOOP]":
(PID.TID 0000.0001)           User time:  2.99999999999999989E-002
(PID.TID 0000.0001)         System time:  1.00000000000000002E-002
(PID.TID 0000.0001)     Wall clock time:  3.65450382232666016E-002
(PID.TID 0000.0001)          No. starts:           1
(PID.TID 0000.0001)           No. stops:           1
(PID.TID 0000.0001)   Seconds in section "MAIN LOOP           [THE_MAIN_LOOP]":
(PID.TID 0000.0001)           User time:   2.1100000000000003
(PID.TID 0000.0001)         System time:  1.00000000000000002E-002
(PID.TID 0000.0001)     Wall clock time:   2.1311428546905518
(PID.TID 0000.0001)          No. starts:           1
(PID.TID 0000.0001)           No. stops:           1
(PID.TID 0000.0001)   Seconds in section "FORWARD_STEP        [THE_MAIN_LOOP]":
(PID.TID 0000.0001)           User time:   2.1100000000000003
(PID.TID 0000.0001)         System time:  1.00000000000000002E-002
(PID.TID 0000.0001)     Wall clock time:   2.1310331821441650
(PID.TID 0000.0001)          No. starts:          10
(PID.TID 0000.0001)           No. stops:          10
(PID.TID 0000.0001)   Seconds in section "DO_STATEVARS_DIAGS  [FORWARD_STEP]":
(PID.TID 0000.0001)           User time:   0.0000000000000000
(PID.TID 0000.0001)         System time:   0.0000000000000000
(PID.TID 0000.0001)     Wall clock time:  8.28027725219726563E-004
(PID.TID 0000.0001)          No. starts:          20
(PID.TID 0000.0001)           No. stops:          20
(PID.TID 0000.0001)   Seconds in section "LOAD_FIELDS_DRIVER  [FORWARD_STEP]":
(PID.TID 0000.0001)           User time:  2.00000000000000178E-002
(PID.TID 0000.0001)         System time:   0.0000000000000000
(PID.TID 0000.0001)     Wall clock time:  2.07338333129882813E-002
(PID.TID 0000.0001)          No. starts:          10
(PID.TID 0000.0001)           No. stops:          10
(PID.TID 0000.0001)   Seconds in section "EXF_GETFORCING     [LOAD_FLDS_DRIVER]":
(PID.TID 0000.0001)           User time:  2.00000000000000178E-002
(PID.TID 0000.0001)         System time:   0.0000000000000000
(PID.TID 0000.0001)     Wall clock time:  2.03819274902343750E-002
(PID.TID 0000.0001)          No. starts:          10
(PID.TID 0000.0001)           No. stops:          10
(PID.TID 0000.0001)   Seconds in section "EXTERNAL_FLDS_LOAD [LOAD_FLDS_DRIVER]":
(PID.TID 0000.0001)           User time:   0.0000000000000000
(PID.TID 0000.0001)         System time:   0.0000000000000000
(PID.TID 0000.0001)     Wall clock time:  9.17911529541015625E-005
(PID.TID 0000.0001)          No. starts:          10
(PID.TID 0000.0001)           No. stops:          10
(PID.TID 0000.0001)   Seconds in section "DO_ATMOSPHERIC_PHYS [FORWARD_STEP]":
(PID.TID 0000.0001)           User time:   0.0000000000000000
(PID.TID 0000.0001)         System time:   0.0000000000000000
(PID.TID 0000.0001)     Wall clock time:  9.03606414794921875E-005
(PID.TID 0000.0001)          No. starts:          10
(PID.TID 0000.0001)           No. stops:          10
(PID.TID 0000.0001)   Seconds in section "DO_OCEANIC_PHYS     [FORWARD_STEP]":
(PID.TID 0000.0001)           User time:   1.1800000000000006
(PID.TID 0000.0001)         System time:   0.0000000000000000
(PID.TID 0000.0001)     Wall clock time:   1.1841809749603271
(PID.TID 0000.0001)          No. starts:          10
(PID.TID 0000.0001)           No. stops:          10
(PID.TID 0000.0001)   Seconds in section "SEAICE_MODEL    [DO_OCEANIC_PHYS]":
(PID.TID 0000.0001)           User time:  0.62000000000000011
(PID.TID 0000.0001)         System time:   0.0000000000000000
(PID.TID 0000.0001)     Wall clock time:  0.62607645988464355
(PID.TID 0000.0001)          No. starts:          10
(PID.TID 0000.0001)           No. stops:          10
(PID.TID 0000.0001)   Seconds in section "SEAICE_DYNSOLVER   [SEAICE_MODEL]":
(PID.TID 0000.0001)           User time:  0.61000000000000032
(PID.TID 0000.0001)         System time:   0.0000000000000000
(PID.TID 0000.0001)     Wall clock time:  0.60914349555969238
(PID.TID 0000.0001)          No. starts:          10
(PID.TID 0000.0001)           No. stops:          10
(PID.TID 0000.0001)   Seconds in section "KPP_CALC [DO_OCEANIC_PHYS]":
(PID.TID 0000.0001)           User time:  0.41000000000000059
(PID.TID 0000.0001)         System time:   0.0000000000000000
(PID.TID 0000.0001)     Wall clock time:  0.39986300468444824
(PID.TID 0000.0001)          No. starts:          40
(PID.TID 0000.0001)           No. stops:          40
(PID.TID 0000.0001)   Seconds in section "THERMODYNAMICS      [FORWARD_STEP]":
(PID.TID 0000.0001)           User time:  0.29999999999999938
(PID.TID 0000.0001)         System time:   0.0000000000000000
(PID.TID 0000.0001)     Wall clock time:  0.28916001319885254
(PID.TID 0000.0001)          No. starts:          10
(PID.TID 0000.0001)           No. stops:          10
(PID.TID 0000.0001)   Seconds in section "DYNAMICS            [FORWARD_STEP]":
(PID.TID 0000.0001)           User time:  0.42000000000000037
(PID.TID 0000.0001)         System time:   0.0000000000000000
(PID.TID 0000.0001)     Wall clock time:  0.42714190483093262
(PID.TID 0000.0001)          No. starts:          10
(PID.TID 0000.0001)           No. stops:          10
(PID.TID 0000.0001)   Seconds in section "SOLVE_FOR_PRESSURE  [FORWARD_STEP]":
(PID.TID 0000.0001)           User time:  3.00000000000002487E-002
(PID.TID 0000.0001)         System time:   0.0000000000000000
(PID.TID 0000.0001)     Wall clock time:  3.23221683502197266E-002
(PID.TID 0000.0001)          No. starts:          10
(PID.TID 0000.0001)           No. stops:          10
(PID.TID 0000.0001)   Seconds in section "MOM_CORRECTION_STEP [FORWARD_STEP]":
(PID.TID 0000.0001)           User time:   0.0000000000000000
(PID.TID 0000.0001)         System time:   0.0000000000000000
(PID.TID 0000.0001)     Wall clock time:  9.17506217956542969E-003
(PID.TID 0000.0001)          No. starts:          10
(PID.TID 0000.0001)           No. stops:          10
(PID.TID 0000.0001)   Seconds in section "INTEGR_CONTINUITY   [FORWARD_STEP]":
(PID.TID 0000.0001)           User time:  1.99999999999995737E-002
(PID.TID 0000.0001)         System time:   0.0000000000000000
(PID.TID 0000.0001)     Wall clock time:  6.48808479309082031E-003
(PID.TID 0000.0001)          No. starts:          10
(PID.TID 0000.0001)           No. stops:          10
(PID.TID 0000.0001)   Seconds in section "TRC_CORRECTION_STEP [FORWARD_STEP]":
(PID.TID 0000.0001)           User time:   0.0000000000000000
(PID.TID 0000.0001)         System time:   0.0000000000000000
(PID.TID 0000.0001)     Wall clock time:  5.13029098510742188E-003
(PID.TID 0000.0001)          No. starts:          10
(PID.TID 0000.0001)           No. stops:          10
(PID.TID 0000.0001)   Seconds in section "BLOCKING_EXCHANGES  [FORWARD_STEP]":
(PID.TID 0000.0001)           User time:  3.00000000000002487E-002
(PID.TID 0000.0001)         System time:   0.0000000000000000
(PID.TID 0000.0001)     Wall clock time:  2.42497920989990234E-002
(PID.TID 0000.0001)          No. starts:          10
(PID.TID 0000.0001)           No. stops:          10
(PID.TID 0000.0001)   Seconds in section "DO_STATEVARS_TAVE   [FORWARD_STEP]":
(PID.TID 0000.0001)           User time:  1.99999999999995737E-002
(PID.TID 0000.0001)         System time:   0.0000000000000000
(PID.TID 0000.0001)     Wall clock time:  2.66799926757812500E-002
(PID.TID 0000.0001)          No. starts:          10
(PID.TID 0000.0001)           No. stops:          10
(PID.TID 0000.0001)   Seconds in section "MONITOR             [FORWARD_STEP]":
(PID.TID 0000.0001)           User time:  4.99999999999998224E-002
(PID.TID 0000.0001)         System time:   0.0000000000000000
(PID.TID 0000.0001)     Wall clock time:  5.02169132232666016E-002
(PID.TID 0000.0001)          No. starts:          10
(PID.TID 0000.0001)           No. stops:          10
(PID.TID 0000.0001)   Seconds in section "DO_THE_MODEL_IO     [FORWARD_STEP]":
(PID.TID 0000.0001)           User time:  4.00000000000000355E-002
(PID.TID 0000.0001)         System time:  1.00000000000000002E-002
(PID.TID 0000.0001)     Wall clock time:  4.58059310913085938E-002
(PID.TID 0000.0001)          No. starts:          10
(PID.TID 0000.0001)           No. stops:          10
(PID.TID 0000.0001)   Seconds in section "DO_WRITE_PICKUP     [FORWARD_STEP]":
(PID.TID 0000.0001)           User time:   0.0000000000000000
(PID.TID 0000.0001)         System time:   0.0000000000000000
(PID.TID 0000.0001)     Wall clock time:  7.31110572814941406E-003
(PID.TID 0000.0001)          No. starts:          10
(PID.TID 0000.0001)           No. stops:          10
(PID.TID 0000.0001) // ======================================================
(PID.TID 0000.0001) // Tile <-> Tile communication statistics
(PID.TID 0000.0001) // ======================================================
(PID.TID 0000.0001) // o Tile number: 000001
(PID.TID 0000.0001) //         No. X exchanges =              0
(PID.TID 0000.0001) //            Max. X spins =              0
(PID.TID 0000.0001) //            Min. X spins =     1000000000
(PID.TID 0000.0001) //          Total. X spins =              0
(PID.TID 0000.0001) //            Avg. X spins =       0.00E+00
(PID.TID 0000.0001) //         No. Y exchanges =              0
(PID.TID 0000.0001) //            Max. Y spins =              0
(PID.TID 0000.0001) //            Min. Y spins =     1000000000
(PID.TID 0000.0001) //          Total. Y spins =              0
(PID.TID 0000.0001) //            Avg. Y spins =       0.00E+00
(PID.TID 0000.0001) // o Tile number: 000002
(PID.TID 0000.0001) //         No. X exchanges =              0
(PID.TID 0000.0001) //            Max. X spins =              0
(PID.TID 0000.0001) //            Min. X spins =     1000000000
(PID.TID 0000.0001) //          Total. X spins =              0
(PID.TID 0000.0001) //            Avg. X spins =       0.00E+00
(PID.TID 0000.0001) //         No. Y exchanges =              0
(PID.TID 0000.0001) //            Max. Y spins =              0
(PID.TID 0000.0001) //            Min. Y spins =     1000000000
(PID.TID 0000.0001) //          Total. Y spins =              0
(PID.TID 0000.0001) //            Avg. Y spins =       0.00E+00
(PID.TID 0000.0001) // o Tile number: 000003
(PID.TID 0000.0001) //         No. X exchanges =              0
(PID.TID 0000.0001) //            Max. X spins =              0
(PID.TID 0000.0001) //            Min. X spins =     1000000000
(PID.TID 0000.0001) //          Total. X spins =              0
(PID.TID 0000.0001) //            Avg. X spins =       0.00E+00
(PID.TID 0000.0001) //         No. Y exchanges =              0
(PID.TID 0000.0001) //            Max. Y spins =              0
(PID.TID 0000.0001) //            Min. Y spins =     1000000000
(PID.TID 0000.0001) //          Total. Y spins =              0
(PID.TID 0000.0001) //            Avg. Y spins =       0.00E+00
(PID.TID 0000.0001) // o Tile number: 000004
(PID.TID 0000.0001) //         No. X exchanges =              0
(PID.TID 0000.0001) //            Max. X spins =              0
(PID.TID 0000.0001) //            Min. X spins =     1000000000
(PID.TID 0000.0001) //          Total. X spins =              0
(PID.TID 0000.0001) //            Avg. X spins =       0.00E+00
(PID.TID 0000.0001) //         No. Y exchanges =              0
(PID.TID 0000.0001) //            Max. Y spins =              0
(PID.TID 0000.0001) //            Min. Y spins =     1000000000
(PID.TID 0000.0001) //          Total. Y spins =              0
(PID.TID 0000.0001) //            Avg. Y spins =       0.00E+00
(PID.TID 0000.0001) // o Thread number: 000001
(PID.TID 0000.0001) //            No. barriers =          10298
(PID.TID 0000.0001) //      Max. barrier spins =              1
(PID.TID 0000.0001) //      Min. barrier spins =              1
(PID.TID 0000.0001) //     Total barrier spins =          10298
(PID.TID 0000.0001) //      Avg. barrier spins =       1.00E+00
PROGRAM MAIN: Execution ended Normally
