(PID.TID 0000.0001) 
(PID.TID 0000.0001) // ======================================================
(PID.TID 0000.0001) //                      MITgcm UV
(PID.TID 0000.0001) //                      =========
(PID.TID 0000.0001) // ======================================================
(PID.TID 0000.0001) // execution environment starting up...
(PID.TID 0000.0001) // Run starting Wed Apr  1 14:19:48 1998
(PID.TID 0000.0001) // on melville.lcs.mit.edu
(PID.TID 0000.0001) // account cnh
(PID.TID 0000.0001) // MITgcm UV Release: $Name:  $
(PID.TID 0000.0001) 
(PID.TID 0000.0001) // =======================================================
(PID.TID 0000.0001) // Execution Environment parameter file "eedata"
(PID.TID 0000.0001) // =======================================================
(PID.TID 0000.0001) ># Example "eedata" file
(PID.TID 0000.0001) ># Lines beginning "#" are comments
(PID.TID 0000.0001) ># nTx - No. threads per process in X
(PID.TID 0000.0001) ># nTy - No. threads per process in Y
(PID.TID 0000.0001) > &EEPARMS
(PID.TID 0000.0001) > nTx=1
(PID.TID 0000.0001) > nTy=1
(PID.TID 0000.0001) > &
(PID.TID 0000.0001) ># Note: Some systems use & as the
(PID.TID 0000.0001) ># namelist terminator. Other systems
(PID.TID 0000.0001) ># use a / character (as shown here).
(PID.TID 0000.0001) 
(PID.TID 0000.0001) // =======================================================
(PID.TID 0000.0001) // Computational Grid Specification ( see files "SIZE.h" )
(PID.TID 0000.0001) //                                  ( and "eedata"       )
(PID.TID 0000.0001) // =======================================================
(PID.TID 0000.0001)      nPx =    1 ; /* No. processes in X */
(PID.TID 0000.0001)      nPy =    1 ; /* No. processes in Y */
(PID.TID 0000.0001)      nSx =    1 ; /* No. tiles in X per process */
(PID.TID 0000.0001)      nSy =    1 ; /* No. tiles in Y per process */
(PID.TID 0000.0001)      sNx =   20 ; /* Tile size in X */
(PID.TID 0000.0001)      sNy =   16 ; /* Tile size in Y */
(PID.TID 0000.0001)      OLx =    3 ; /* Tile overlap distance in X */
(PID.TID 0000.0001)      OLy =    3 ; /* Tile overlap distance in Y */
(PID.TID 0000.0001)      nTx =    1 ; /* No. threads in X per process */
(PID.TID 0000.0001)      nTy =    1 ; /* No. threads in Y per process */
(PID.TID 0000.0001)       Nr =   23 ; /* No. levels in the vertical   */
(PID.TID 0000.0001)       nX =   20 ; /* Total domain size in X ( = nPx*nSx*sNx ) */
(PID.TID 0000.0001)       nY =   16 ; /* Total domain size in Y ( = nPy*nSy*sNy ) */
(PID.TID 0000.0001)   nTiles =    1 ; /* Total no. tiles per process ( = nSx*nSy ) */
(PID.TID 0000.0001)   nProcs =    1 ; /* Total no. processes ( = nPx*nPy ) */
(PID.TID 0000.0001) nThreads =    1 ; /* Total no. threads per process ( = nTx*nTy ) */
(PID.TID 0000.0001) usingMPI =    F ; /* Flag used to control whether MPI is in use */
(PID.TID 0000.0001)                   /*  note: To execute a program with MPI calls */
(PID.TID 0000.0001)                   /*  it must be launched appropriately e.g     */
(PID.TID 0000.0001)                   /*  "mpirun -np 64 ......"                    */
(PID.TID 0000.0001) 
(PID.TID 0000.0001) // ======================================================
(PID.TID 0000.0001) // Mapping of tiles to threads
(PID.TID 0000.0001) // ======================================================
(PID.TID 0000.0001) // -o- Thread   1, tiles (   1:   1,   1:   1)
(PID.TID 0000.0001) 
(PID.TID 0000.0001) // ======================================================
(PID.TID 0000.0001) // Tile <-> Tile connectvity table
(PID.TID 0000.0001) // ======================================================
(PID.TID 0000.0001) // Tile number: 000001 (process no. = 000001)
(PID.TID 0000.0001) //        WEST: Tile = 000001, Process = 000001, Comm = put
(PID.TID 0000.0001) //                bi = 000001, bj = 000001
(PID.TID 0000.0001) //        EAST: Tile = 000001, Process = 000001, Comm = put
(PID.TID 0000.0001) //                bi = 000001, bj = 000001
(PID.TID 0000.0001) //       SOUTH: Tile = 000001, Process = 000001, Comm = put
(PID.TID 0000.0001) //                bi = 000001, bj = 000001
(PID.TID 0000.0001) //       NORTH: Tile = 000001, Process = 000001, Comm = put
(PID.TID 0000.0001) //                bi = 000001, bj = 000001
(PID.TID 0000.0001) 
(PID.TID 0000.0001) // =======================================================
(PID.TID 0000.0001) // Model parameter file "data"
(PID.TID 0000.0001) // =======================================================
(PID.TID 0000.0001) ># ====================
(PID.TID 0000.0001) ># | Model parameters |
(PID.TID 0000.0001) ># ====================
(PID.TID 0000.0001) >#
(PID.TID 0000.0001) ># Continuous equation parameters
(PID.TID 0000.0001) >#
(PID.TID 0000.0001) >#   tRef            - Reference vertical potential temperature          (deg C)
(PID.TID 0000.0001) >#   sRef            - Reference vertical salinity                         (PSU)
(PID.TID 0000.0001) >#   viscAh          - Horizontal eddy viscosity coefficient             (m^2/s)
(PID.TID 0000.0001) >#   viscAz          - Vertical eddy viscosity coefficient               (m^2/s)
(PID.TID 0000.0001) >#   diffKhT         - Horizontal temperature diffusivity                (m^2/s)
(PID.TID 0000.0001) >#   diffKzT         - Vertical temperature diffusivity                  (m^2/s)
(PID.TID 0000.0001) >#   diffKhS         - Horizontal salt diffusivity                       (m^2/s)
(PID.TID 0000.0001) >#   diffKzS         - Vertical salt diffusivity                         (m^2/s)
(PID.TID 0000.0001) >#   f0              - Reference coriolis parameter,
(PID.TID 0000.0001) >#                     south edge of f on beta plane                       (1/s)
(PID.TID 0000.0001) >#   beta            - df/dy                                         (s^-1.m^-1)
(PID.TID 0000.0001) >#   tAlpha          - Linear EOS thermal expansion coefficient           (1/oC)
(PID.TID 0000.0001) >#   sBeta           - Linear EOS haline contraction coefficient         (1/ppt)
(PID.TID 0000.0001) >#   gravity         - Acceleration due to gravity                       (m/s^2)
(PID.TID 0000.0001) >#   gBaro           - Accel. due to gravity used in barotropic equation (m/s^2)
(PID.TID 0000.0001) >#   rigidLid        - Set to true to use rigid lid
(PID.TID 0000.0001) >#   implicitFreeSurface - Set to true to use implicit free surface
(PID.TID 0000.0001) >#   eosType         - Flag for linear or polynomial equation of state
(PID.TID 0000.0001) >#   momAdvection    - On/Off flag for momentum self transport
(PID.TID 0000.0001) >#   momViscosity    - On/Off flag for momentum mixing
(PID.TID 0000.0001) >#
(PID.TID 0000.0001) > &PARM01
(PID.TID 0000.0001) > tRef= 24.0 , 23.0 , 22.0 , 21.0 , 20.0 ,
(PID.TID 0000.0001) >       19.0 , 18.0 , 17.0 , 16.0 , 15.0 ,
(PID.TID 0000.0001) >       14.0 , 13.0 , 12.0 , 11.0 , 10.0 ,
(PID.TID 0000.0001) >        9.0 ,  8.0 ,  7.0 ,  6.0,   5.0 ,
(PID.TID 0000.0001) >        4.0 ,  3.0 ,  2.0 ,
(PID.TID 0000.0001) > sRef= 34.65, 34.75, 34.82, 34.87, 34.90,
(PID.TID 0000.0001) >       34.90, 34.86, 34.78, 34.69, 34.60,
(PID.TID 0000.0001) >       34.58, 34.62, 34.68, 34.72, 34.73,
(PID.TID 0000.0001) >       34.74, 34.73, 34.73, 34.72, 34.72,
(PID.TID 0000.0001) >       34.71, 34.70, 34.69,
(PID.TID 0000.0001) > no_slip_sides=.FALSE.,
(PID.TID 0000.0001) > no_slip_bottom=.TRUE.,
(PID.TID 0000.0001) > viscAz=1.93e-5,
(PID.TID 0000.0001) > viscAh=5.E4,
(PID.TID 0000.0001) > diffKhT=0.0,
(PID.TID 0000.0001) > diffKzT=1.46e-5,
(PID.TID 0000.0001) > diffKhS=0.0,
(PID.TID 0000.0001) > diffKzS=1.46e-5,
(PID.TID 0000.0001) > beta=1.E-11,
(PID.TID 0000.0001) > tAlpha=2.E-4,
(PID.TID 0000.0001) > sBeta =7.4E-4,
(PID.TID 0000.0001) > rigidLid=.FALSE.,
(PID.TID 0000.0001) > implicitFreeSurface=.TRUE.,
(PID.TID 0000.0001) > eosType='POLY3',
(PID.TID 0000.0001) > readBinaryPrec=32,
(PID.TID 0000.0001) > writeBinaryPrec=32,
(PID.TID 0000.0001) > saltStepping=.TRUE.,
(PID.TID 0000.0001) > tempStepping=.TRUE.,
(PID.TID 0000.0001) > momStepping=.TRUE.,
(PID.TID 0000.0001) > implicitDiffusion=.TRUE.,
(PID.TID 0000.0001) > implicitViscosity=.TRUE.,
(PID.TID 0000.0001) > globalFiles=.TRUE.,
(PID.TID 0000.0001) > allowFreezing=.FALSE.,
(PID.TID 0000.0001) > HeatCapacity_Cp = 3986.D0
(PID.TID 0000.0001) > gravity         = 9.8156,
(PID.TID 0000.0001) > gBaro           = 9.8156,
(PID.TID 0000.0001) > rhoNil          = 1027.D0
(PID.TID 0000.0001) > useCDscheme=.TRUE.
(PID.TID 0000.0001) > &
(PID.TID 0000.0001) >
(PID.TID 0000.0001) ># Elliptic solver parameters
(PID.TID 0000.0001) >#
(PID.TID 0000.0001) >#   cg2dMaxIters       - Maximum number of 2d solver iterations
(PID.TID 0000.0001) >#   cg2dTargetResidual - Solver target residual
(PID.TID 0000.0001) >#
(PID.TID 0000.0001) > &PARM02
(PID.TID 0000.0001) > cg2dMaxIters=500,
(PID.TID 0000.0001) > cg2dTargetResidual=1.D-8
(PID.TID 0000.0001) > &
(PID.TID 0000.0001) >
(PID.TID 0000.0001) ># Time stepping parameters
(PID.TID 0000.0001) >#
(PID.TID 0000.0001) >#   startTime         - Integration starting time                (s)
(PID.TID 0000.0001) >#   endTime           - Integration ending time                  (s)
(PID.TID 0000.0001) >#   tauCD             - CD scheme coupling timescale             (s)
(PID.TID 0000.0001) >#   deltaTMom         - Timestep for momemtum equations          (s)
(PID.TID 0000.0001) >#   deltaTtracer      - Tracer timestep                          (s)
(PID.TID 0000.0001) >#   deltaTClock       - Timestep used as model "clock"           (s)
(PID.TID 0000.0001) >#   abEps             - Adams-Bashforth stabilising factor
(PID.TID 0000.0001) >#   pChkPtFreq        - Frequency of permanent check pointing    (s)
(PID.TID 0000.0001) >#   chkPtFreq         - Frequency of rolling check pointing      (s)
(PID.TID 0000.0001) >#   dumpFreq          - Frequency at which model state is stored (s)
(PID.TID 0000.0001) >#   tauThetaClimRelax - Relaxation to climatology time scale     (s)
(PID.TID 0000.0001) >#   tauSaltClimRelax  - Relaxation to climatology time scale     (s)
(PID.TID 0000.0001) >#
(PID.TID 0000.0001) > &PARM03
(PID.TID 0000.0001) > tauCD=172800.,
(PID.TID 0000.0001) > startTime=0.0,
(PID.TID 0000.0001) > endTime=39600.,
(PID.TID 0000.0001) > deltaTmom=3600.0,
(PID.TID 0000.0001) > deltaTtracer=3600.0,
(PID.TID 0000.0001) > deltaTClock =3600.0,
(PID.TID 0000.0001) > cAdjFreq=0.,
(PID.TID 0000.0001) > abEps=0.1,
(PID.TID 0000.0001) > pChkptFreq=36000.,
(PID.TID 0000.0001) > chkptFreq= 0.,
(PID.TID 0000.0001) > dumpFreq = 0.,
(PID.TID 0000.0001) > tavefreq = 36000.,
(PID.TID 0000.0001) > tauSaltClimRelax = 4142330.,
(PID.TID 0000.0001) > tauThetaClimRelax = 0.,
(PID.TID 0000.0001) > monitorFreq=1.,
(PID.TID 0000.0001) > &
(PID.TID 0000.0001) >
(PID.TID 0000.0001) ># Gridding parameters
(PID.TID 0000.0001) >#
(PID.TID 0000.0001) >#   usingSphericalPolarGrid - On/Off flag for spherical polar coordinates
(PID.TID 0000.0001) >#   usingCartesianGrid      - On/Off flag for selecting cartesian coordinates
(PID.TID 0000.0001) >#   delX                    - Zonal grid spacing         (degrees)
(PID.TID 0000.0001) >#   delY                    - Meridional grid spacing    (degrees)
(PID.TID 0000.0001) >#   delZ                    - Vertical grid spacing      (m)
(PID.TID 0000.0001) >#   phiMin                  - Southern boundary latitude (degrees)
(PID.TID 0000.0001) >#
(PID.TID 0000.0001) > &PARM04
(PID.TID 0000.0001) > usingCartesianGrid=.FALSE.,
(PID.TID 0000.0001) > usingSphericalPolarGrid=.TRUE.,
(PID.TID 0000.0001) > delX=20*2.E0,
(PID.TID 0000.0001) > delY=16*2.E0,
(PID.TID 0000.0001) > delZ= 10., 10., 15., 20., 20., 25., 35., 50., 75.,
(PID.TID 0000.0001) >       100., 150., 200., 275., 350., 415., 450.,
(PID.TID 0000.0001) >       500., 500., 500., 500., 500., 500., 500.
(PID.TID 0000.0001) > phimin=46.,
(PID.TID 0000.0001) > thetamin=280.,
(PID.TID 0000.0001) > rSphere         = 6371.D3
(PID.TID 0000.0001) > &
(PID.TID 0000.0001) >
(PID.TID 0000.0001) ># Input datasets
(PID.TID 0000.0001) >#
(PID.TID 0000.0001) >#   bathyFile       - File containing bathymetry
(PID.TID 0000.0001) >#   hydrogThetaFile - File containing initial potential temperature data
(PID.TID 0000.0001) >#   hydrogSaltFile  - File containing initial salinity data
(PID.TID 0000.0001) >#   zonalWindFile   - File containing zonal wind data
(PID.TID 0000.0001) >#   meridWindFile   - File containing meridional wind data
(PID.TID 0000.0001) >#   thetaClimFile   - File containing theta climatology used for relaxation
(PID.TID 0000.0001) >#   saltClimFile    - File containing salt climatology used for relaxation
(PID.TID 0000.0001) >#
(PID.TID 0000.0001) > &PARM05
(PID.TID 0000.0001) > bathyFile       = 'bathy.labsea',
(PID.TID 0000.0001) > hydrogThetaFile = 'LevCli_temp.labsea',
(PID.TID 0000.0001) > hydrogSaltFile  = 'LevCli_salt.labsea',
(PID.TID 0000.0001) > &
(PID.TID 0000.0001) >
(PID.TID 0000.0001) ># Open-boundaries
(PID.TID 0000.0001) > &PARM06
(PID.TID 0000.0001) > &
(PID.TID 0000.0001) 
(PID.TID 0000.0001) S/R INI_PARMS ; read PARM01 : OK
(PID.TID 0000.0001) S/R INI_PARMS ; read PARM02 : OK
(PID.TID 0000.0001) S/R INI_PARMS ; read PARM03 : OK
(PID.TID 0000.0001) S/R INI_PARMS ; read PARM04 : OK
(PID.TID 0000.0001) S/R INI_PARMS ; read PARM05 : OK
(PID.TID 0000.0001) %MON XC_max                       =   3.1900000000000E+02
(PID.TID 0000.0001) %MON XC_min                       =   2.8100000000000E+02
(PID.TID 0000.0001) %MON XC_mean                      =   3.0000000000000E+02
(PID.TID 0000.0001) %MON XC_sd                        =   1.1532562594671E+01
(PID.TID 0000.0001) %MON XG_max                       =   3.1800000000000E+02
(PID.TID 0000.0001) %MON XG_min                       =   2.8000000000000E+02
(PID.TID 0000.0001) %MON XG_mean                      =   2.9900000000000E+02
(PID.TID 0000.0001) %MON XG_sd                        =   1.1532562594671E+01
(PID.TID 0000.0001) %MON DXC_max                      =   1.5166951523772E+05
(PID.TID 0000.0001) %MON DXC_min                      =   5.0026831972764E+04
(PID.TID 0000.0001) %MON DXC_mean                     =   1.0305926321463E+05
(PID.TID 0000.0001) %MON DXC_sd                       =   3.1375805318756E+04
(PID.TID 0000.0001) %MON DXF_max                      =   1.5166951523772E+05
(PID.TID 0000.0001) %MON DXF_min                      =   5.0026831972764E+04
(PID.TID 0000.0001) %MON DXF_mean                     =   1.0305926321463E+05
(PID.TID 0000.0001) %MON DXF_sd                       =   3.1375805318756E+04
(PID.TID 0000.0001) %MON DXG_max                      =   1.5448497309243E+05
(PID.TID 0000.0001) %MON DXG_min                      =   5.3800974869835E+04
(PID.TID 0000.0001) %MON DXG_mean                     =   1.0642630187324E+05
(PID.TID 0000.0001) %MON DXG_sd                       =   3.1081829200899E+04
(PID.TID 0000.0001) %MON DXV_max                      =   1.5448497309243E+05
(PID.TID 0000.0001) %MON DXV_min                      =   5.3800974869835E+04
(PID.TID 0000.0001) %MON DXV_mean                     =   1.0642630187324E+05
(PID.TID 0000.0001) %MON DXV_sd                       =   3.1081829200899E+04
(PID.TID 0000.0001) %MON YC_max                       =   7.7000000000000E+01
(PID.TID 0000.0001) %MON YC_min                       =   4.7000000000000E+01
(PID.TID 0000.0001) %MON YC_mean                      =   6.2000000000000E+01
(PID.TID 0000.0001) %MON YC_sd                        =   9.2195444572929E+00
(PID.TID 0000.0001) %MON YG_max                       =   7.6000000000000E+01
(PID.TID 0000.0001) %MON YG_min                       =   4.6000000000000E+01
(PID.TID 0000.0001) %MON YG_mean                      =   6.1000000000000E+01
(PID.TID 0000.0001) %MON YG_sd                        =   9.2195444572929E+00
(PID.TID 0000.0001) %MON DYC_max                      =   2.2238985328912E+05
(PID.TID 0000.0001) %MON DYC_min                      =   2.2238985328912E+05
(PID.TID 0000.0001) %MON DYC_mean                     =   2.2238985328912E+05
(PID.TID 0000.0001) %MON DYC_sd                       =   6.1118043959141E-10
(PID.TID 0000.0001) %MON DYF_max                      =   2.2238985328912E+05
(PID.TID 0000.0001) %MON DYF_min                      =   2.2238985328912E+05
(PID.TID 0000.0001) %MON DYF_mean                     =   2.2238985328912E+05
(PID.TID 0000.0001) %MON DYF_sd                       =   6.1118043959141E-10
(PID.TID 0000.0001) %MON DYG_max                      =   2.2238985328912E+05
(PID.TID 0000.0001) %MON DYG_min                      =   2.2238985328912E+05
(PID.TID 0000.0001) %MON DYG_mean                     =   2.2238985328912E+05
(PID.TID 0000.0001) %MON DYG_sd                       =   6.1118043959141E-10
(PID.TID 0000.0001) %MON DYU_max                      =   2.2238985328912E+05
(PID.TID 0000.0001) %MON DYU_min                      =   2.2238985328912E+05
(PID.TID 0000.0001) %MON DYU_mean                     =   2.2238985328912E+05
(PID.TID 0000.0001) %MON DYU_sd                       =   6.1118043959141E-10
(PID.TID 0000.0001) %MON RA_max                       =   3.3728048822756E+10
(PID.TID 0000.0001) %MON RA_min                       =   1.1124894996734E+10
(PID.TID 0000.0001) %MON RA_mean                      =   2.2918170839356E+10
(PID.TID 0000.0001) %MON RA_sd                        =   6.9773064942263E+09
(PID.TID 0000.0001) %MON RAW_max                      =   3.3728048822756E+10
(PID.TID 0000.0001) %MON RAW_min                      =   1.1124894996734E+10
(PID.TID 0000.0001) %MON RAW_mean                     =   2.2918170839356E+10
(PID.TID 0000.0001) %MON RAW_sd                       =   6.9773064942263E+09
(PID.TID 0000.0001) %MON RAS_max                      =   3.4354146294179E+10
(PID.TID 0000.0001) %MON RAS_min                      =   1.1964183470077E+10
(PID.TID 0000.0001) %MON RAS_mean                     =   2.3666928057229E+10
(PID.TID 0000.0001) %MON RAS_sd                       =   6.9119325076329E+09
(PID.TID 0000.0001) %MON RAZ_max                      =   3.4354146294179E+10
(PID.TID 0000.0001) %MON RAZ_min                      =   1.1964183470077E+10
(PID.TID 0000.0001) %MON RAZ_mean                     =   2.3666928057229E+10
(PID.TID 0000.0001) %MON RAZ_sd                       =   6.9119325076329E+09
(PID.TID 0000.0001)  MDSREADFIELD: opening global file: bathy.labsea
(PID.TID 0000.0001) // =======================================================
(PID.TID 0000.0001) // Field Model R_low (ini_masks_etc) at iteration          1
(PID.TID 0000.0001) // CMIN =         -4.200000000000000E+03
(PID.TID 0000.0001) // CMAX =         -5.500000000000000E+01
(PID.TID 0000.0001) // CINT =          1.535185185185185E+02
(PID.TID 0000.0001) // SYMBOLS (CMIN->CMAX): -abcdefghijklmnopqrstuvwxyz+
(PID.TID 0000.0001) //                  0.0: .
(PID.TID 0000.0001) // RANGE I (Lo:Hi:Step):(  -2:  23:   1)
(PID.TID 0000.0001) // RANGE J (Lo:Hi:Step):(  19:  -2:  -1)
(PID.TID 0000.0001) // RANGE K (Lo:Hi:Step):(   1:   1:   1)
(PID.TID 0000.0001) // =======================================================
(PID.TID 0000.0001) K =   1
(PID.TID 0000.0001) //                I=7       I=17
(PID.TID 0000.0001) // |--J--|**0123456|890123456|890123
(PID.TID 0000.0001) //     19 cc-..........+.zzxmgcc-...
(PID.TID 0000.0001) //     18 jc-.......+zzz..zzsmjc-...
(PID.TID 0000.0001) //     17 wc-........++z+++z+wwc-...
(PID.TID 0000.0001) //     16 ....zyyz................zy
(PID.TID 0000.0001) //     15 ...yxwwuspxyxz.........yxw
(PID.TID 0000.0001) //     14 ....+wwspppsxzz.........+w
(PID.TID 0000.0001) //     13 .......zwsppsyz...........
(PID.TID 0000.0001) //     12 .........+ypswzz+.........
(PID.TID 0000.0001) //     11 ...........+wwy+..........
(PID.TID 0000.0001) //     10 ..........zzzywy+.........
(PID.TID 0000.0001) //      9 ..z.......+zxsmmm+....z...
(PID.TID 0000.0001) //      8 ..s.....zzzxumjjjjuz..s...
(PID.TID 0000.0001) //      7 pmj......z.+zmjggggjpmj...
(PID.TID 0000.0001) //      6 ggg.........zxmjggggggg...
(PID.TID 0000.0001) //      5 ggg..........zzsjgggggg...
(PID.TID 0000.0001) //      4 ccg............zzmgcccg...
(PID.TID 0000.0001) //      3 cc-..........+.zzxmgcc-...
(PID.TID 0000.0001) //      2 jc-.......+zzz..zzsmjc-...
(PID.TID 0000.0001) //      1 wc-........++z+++z+wwc-...
(PID.TID 0000.0001) //      0 ....zyyz................zy
(PID.TID 0000.0001) //     -1 ...yxwwuspxyxz.........yxw
(PID.TID 0000.0001) //     -2 ....+wwspppsxzz.........+w
(PID.TID 0000.0001) // =======================================================
(PID.TID 0000.0001) // END OF FIELD                                          =
(PID.TID 0000.0001) // =======================================================
(PID.TID 0000.0001) 
(PID.TID 0000.0001) // =======================================================
(PID.TID 0000.0001) // Field Model Ro_surf (ini_masks_etc) at iteration          1
(PID.TID 0000.0001) // CMIN =          1.000000000000000E+32
(PID.TID 0000.0001) // CMAX =         -1.000000000000000E+32
(PID.TID 0000.0001) // CINT =          0.000000000000000E+00
(PID.TID 0000.0001) // SYMBOLS (CMIN->CMAX): -abcdefghijklmnopqrstuvwxyz+
(PID.TID 0000.0001) //                  0.0: .
(PID.TID 0000.0001) // RANGE I (Lo:Hi:Step):(  -2:  23:   1)
(PID.TID 0000.0001) // RANGE J (Lo:Hi:Step):(  19:  -2:  -1)
(PID.TID 0000.0001) // RANGE K (Lo:Hi:Step):(   1:   1:   1)
(PID.TID 0000.0001) // =======================================================
(PID.TID 0000.0001) K =   1
(PID.TID 0000.0001) //                I=7       I=17
(PID.TID 0000.0001) // |--J--|**0123456|890123456|890123
(PID.TID 0000.0001) //     19 ..........................
(PID.TID 0000.0001) //     18 ..........................
(PID.TID 0000.0001) //     17 ..........................
(PID.TID 0000.0001) //     16 ..........................
(PID.TID 0000.0001) //     15 ..........................
(PID.TID 0000.0001) //     14 ..........................
(PID.TID 0000.0001) //     13 ..........................
(PID.TID 0000.0001) //     12 ..........................
(PID.TID 0000.0001) //     11 ..........................
(PID.TID 0000.0001) //     10 ..........................
(PID.TID 0000.0001) //      9 ..........................
(PID.TID 0000.0001) //      8 ..........................
(PID.TID 0000.0001) //      7 ..........................
(PID.TID 0000.0001) //      6 ..........................
(PID.TID 0000.0001) //      5 ..........................
(PID.TID 0000.0001) //      4 ..........................
(PID.TID 0000.0001) //      3 ..........................
(PID.TID 0000.0001) //      2 ..........................
(PID.TID 0000.0001) //      1 ..........................
(PID.TID 0000.0001) //      0 ..........................
(PID.TID 0000.0001) //     -1 ..........................
(PID.TID 0000.0001) //     -2 ..........................
(PID.TID 0000.0001) // =======================================================
(PID.TID 0000.0001) // END OF FIELD                                          =
(PID.TID 0000.0001) // =======================================================
(PID.TID 0000.0001) 
(PID.TID 0000.0001) // =======================================================
(PID.TID 0000.0001) // Field hFacC at iteration          1
(PID.TID 0000.0001) // CMIN =          1.000000000000000E+00
(PID.TID 0000.0001) // CMAX =          1.000000000000000E+00
(PID.TID 0000.0001) // CINT =          0.000000000000000E+00
(PID.TID 0000.0001) // SYMBOLS (CMIN->CMAX): -abcdefghijklmnopqrstuvwxyz+
(PID.TID 0000.0001) //                  0.0: .
(PID.TID 0000.0001) // RANGE I (Lo:Hi:Step):(  -2:  23:   1)
(PID.TID 0000.0001) // RANGE J (Lo:Hi:Step):(  19:  -2:  -1)
(PID.TID 0000.0001) // RANGE K (Lo:Hi:Step):(   1:   1:   1)
(PID.TID 0000.0001) // =======================================================
(PID.TID 0000.0001) K =   1
(PID.TID 0000.0001) //                I=7       I=17
(PID.TID 0000.0001) // |--J--|**0123456|890123456|890123
(PID.TID 0000.0001) //     19 ---..........-.--------...
(PID.TID 0000.0001) //     18 ---.......----..-------...
(PID.TID 0000.0001) //     17 ---........------------...
(PID.TID 0000.0001) //     16 ....----................--
(PID.TID 0000.0001) //     15 ...-----------.........---
(PID.TID 0000.0001) //     14 ....-----------.........--
(PID.TID 0000.0001) //     13 .......--------...........
(PID.TID 0000.0001) //     12 .........--------.........
(PID.TID 0000.0001) //     11 ...........-----..........
(PID.TID 0000.0001) //     10 ..........-------.........
(PID.TID 0000.0001) //      9 ..-.......--------....-...
(PID.TID 0000.0001) //      8 ..-.....------------..-...
(PID.TID 0000.0001) //      7 ---......-.------------...
(PID.TID 0000.0001) //      6 ---.........-----------...
(PID.TID 0000.0001) //      5 ---..........----------...
(PID.TID 0000.0001) //      4 ---............--------...
(PID.TID 0000.0001) //      3 ---..........-.--------...
(PID.TID 0000.0001) //      2 ---.......----..-------...
(PID.TID 0000.0001) //      1 ---........------------...
(PID.TID 0000.0001) //      0 ....----................--
(PID.TID 0000.0001) //     -1 ...-----------.........---
(PID.TID 0000.0001) //     -2 ....-----------.........--
(PID.TID 0000.0001) // =======================================================
(PID.TID 0000.0001) // END OF FIELD                                          =
(PID.TID 0000.0001) // =======================================================
(PID.TID 0000.0001) 
(PID.TID 0000.0001) // =======================================================
(PID.TID 0000.0001) // Field hFacW at iteration          1
(PID.TID 0000.0001) // CMIN =          1.000000000000000E+00
(PID.TID 0000.0001) // CMAX =          1.000000000000000E+00
(PID.TID 0000.0001) // CINT =          0.000000000000000E+00
(PID.TID 0000.0001) // SYMBOLS (CMIN->CMAX): -abcdefghijklmnopqrstuvwxyz+
(PID.TID 0000.0001) //                  0.0: .
(PID.TID 0000.0001) // RANGE I (Lo:Hi:Step):(  -2:  23:   1)
(PID.TID 0000.0001) // RANGE J (Lo:Hi:Step):(  19:  -2:  -1)
(PID.TID 0000.0001) // RANGE K (Lo:Hi:Step):(   1:   1:   1)
(PID.TID 0000.0001) // =======================================================
(PID.TID 0000.0001) K =   1
(PID.TID 0000.0001) //                I=7       I=17
(PID.TID 0000.0001) // |--J--|**0123456|890123456|890123
(PID.TID 0000.0001) //     19 ---.............-------...
(PID.TID 0000.0001) //     18 ---........---...------...
(PID.TID 0000.0001) //     17 ---.........-----------...
(PID.TID 0000.0001) //     16 .....---.................-
(PID.TID 0000.0001) //     15 ....----------..........--
(PID.TID 0000.0001) //     14 .....----------..........-
(PID.TID 0000.0001) //     13 ........-------...........
(PID.TID 0000.0001) //     12 ..........-------.........
(PID.TID 0000.0001) //     11 ............----..........
(PID.TID 0000.0001) //     10 ...........------.........
(PID.TID 0000.0001) //      9 ...........-------........
(PID.TID 0000.0001) //      8 .........-----------......
(PID.TID 0000.0001) //      7 ---.........-----------...
(PID.TID 0000.0001) //      6 ---..........----------...
(PID.TID 0000.0001) //      5 ---...........---------...
(PID.TID 0000.0001) //      4 ---.............-------...
(PID.TID 0000.0001) //      3 ---.............-------...
(PID.TID 0000.0001) //      2 ---........---...------...
(PID.TID 0000.0001) //      1 ---.........-----------...
(PID.TID 0000.0001) //      0 .....---.................-
(PID.TID 0000.0001) //     -1 ....----------..........--
(PID.TID 0000.0001) //     -2 .....----------..........-
(PID.TID 0000.0001) // =======================================================
(PID.TID 0000.0001) // END OF FIELD                                          =
(PID.TID 0000.0001) // =======================================================
(PID.TID 0000.0001) 
(PID.TID 0000.0001) // =======================================================
(PID.TID 0000.0001) // Field hFacS at iteration          1
(PID.TID 0000.0001) // CMIN =          1.000000000000000E+00
(PID.TID 0000.0001) // CMAX =          1.000000000000000E+00
(PID.TID 0000.0001) // CINT =          0.000000000000000E+00
(PID.TID 0000.0001) // SYMBOLS (CMIN->CMAX): -abcdefghijklmnopqrstuvwxyz+
(PID.TID 0000.0001) //                  0.0: .
(PID.TID 0000.0001) // RANGE I (Lo:Hi:Step):(  -2:  23:   1)
(PID.TID 0000.0001) // RANGE J (Lo:Hi:Step):(  19:  -2:  -1)
(PID.TID 0000.0001) // RANGE K (Lo:Hi:Step):(   1:   1:   1)
(PID.TID 0000.0001) // =======================================================
(PID.TID 0000.0001) K =   1
(PID.TID 0000.0001) //                I=7       I=17
(PID.TID 0000.0001) // |--J--|**0123456|890123456|890123
(PID.TID 0000.0001) //     19 ---..........-..-------...
(PID.TID 0000.0001) //     18 ---........---..-------...
(PID.TID 0000.0001) //     17 ..........................
(PID.TID 0000.0001) //     16 ....----................--
(PID.TID 0000.0001) //     15 ....----------..........--
(PID.TID 0000.0001) //     14 .......--------...........
(PID.TID 0000.0001) //     13 .........------...........
(PID.TID 0000.0001) //     12 ...........-----..........
(PID.TID 0000.0001) //     11 ...........-----..........
(PID.TID 0000.0001) //     10 ..........-------.........
(PID.TID 0000.0001) //      9 ..-.......--------....-...
(PID.TID 0000.0001) //      8 ..-......-.---------..-...
(PID.TID 0000.0001) //      7 ---.........-----------...
(PID.TID 0000.0001) //      6 ---..........----------...
(PID.TID 0000.0001) //      5 ---............--------...
(PID.TID 0000.0001) //      4 ---............--------...
(PID.TID 0000.0001) //      3 ---..........-..-------...
(PID.TID 0000.0001) //      2 ---........---..-------...
(PID.TID 0000.0001) //      1 ..........................
(PID.TID 0000.0001) //      0 ....----................--
(PID.TID 0000.0001) //     -1 ....----------..........--
(PID.TID 0000.0001) //     -2 .......--------...........
(PID.TID 0000.0001) // =======================================================
(PID.TID 0000.0001) // END OF FIELD                                          =
(PID.TID 0000.0001) // =======================================================
(PID.TID 0000.0001) 
(PID.TID 0000.0001)  PACKAGES_BOOT: opening data.pkg
(PID.TID 0000.0001)  OPEN_COPY_DATA_FILE: opening file data.pkg
(PID.TID 0000.0001) // =======================================================
(PID.TID 0000.0001) // Parameter file "data.pkg"
(PID.TID 0000.0001) // =======================================================
(PID.TID 0000.0001) ># Packages
(PID.TID 0000.0001) > &PACKAGES
(PID.TID 0000.0001) >  useGMRedi = .TRUE.,
(PID.TID 0000.0001) >  useKPP    = .TRUE.,
(PID.TID 0000.0001) >  useSEAICE = .TRUE.,
(PID.TID 0000.0001) >  useSBO    = .FALSE.,
(PID.TID 0000.0001) >  useECCO   = .FALSE.,
(PID.TID 0000.0001) > &
(PID.TID 0000.0001) 
(PID.TID 0000.0001)  PACKAGES_BOOT: finished reading data.pkg
(PID.TID 0000.0001)  GM_READPARMS: opening data.gmredi
(PID.TID 0000.0001)  OPEN_COPY_DATA_FILE: opening file data.gmredi
(PID.TID 0000.0001) // =======================================================
(PID.TID 0000.0001) // Parameter file "data.gmredi"
(PID.TID 0000.0001) // =======================================================
(PID.TID 0000.0001) ># GMREDI parameters
(PID.TID 0000.0001) > &GM_PARM01
(PID.TID 0000.0001) >  GM_background_K = 571.0
(PID.TID 0000.0001) >  GM_taper_scheme = 'ldd97'
(PID.TID 0000.0001) > &
(PID.TID 0000.0001) 
(PID.TID 0000.0001)  GM_READPARMS: finished reading data.gmredi
(PID.TID 0000.0001)  KPP_INIT: opening data.kpp
(PID.TID 0000.0001)  OPEN_COPY_DATA_FILE: opening file data.kpp
(PID.TID 0000.0001) // =======================================================
(PID.TID 0000.0001) // Parameter file "data.kpp"
(PID.TID 0000.0001) // =======================================================
(PID.TID 0000.0001) ># KPP parameters
(PID.TID 0000.0001) > &KPP_PARM01
(PID.TID 0000.0001) > KPPmixingMaps   = .FALSE.,
(PID.TID 0000.0001) > KPPwriteState   = .TRUE.,
(PID.TID 0000.0001) > kpp_taveFreq    = 864000.,
(PID.TID 0000.0001) > &
(PID.TID 0000.0001) 
(PID.TID 0000.0001)  KPP_INIT: finished reading data.kpp
(PID.TID 0000.0001)  SEAICE_INIT: opening data.seaice
(PID.TID 0000.0001)  OPEN_COPY_DATA_FILE: opening file data.seaice
(PID.TID 0000.0001) // =======================================================
(PID.TID 0000.0001) // Parameter file "data.seaice"
(PID.TID 0000.0001) // =======================================================
(PID.TID 0000.0001) ># SEAICE parameters
(PID.TID 0000.0001) > &SEAICE_PARM01
(PID.TID 0000.0001) >      npseudo           = 1
(PID.TID 0000.0001) >      LSR_ERROR         = 1e-10
(PID.TID 0000.0001) >      SEAICEwriteState  = .TRUE.
(PID.TID 0000.0001) > &
(PID.TID 0000.0001) 
(PID.TID 0000.0001)  SEAICE_INIT: finished reading data.seaice
(PID.TID 0000.0001) 
(PID.TID 0000.0001) // =======================================================
(PID.TID 0000.0001) // Calendar configuration >>> START <<<
(PID.TID 0000.0001) // =======================================================
(PID.TID 0000.0001) 
(PID.TID 0000.0001) Calendar version: 0.2.0
(PID.TID 0000.0001) 
(PID.TID 0000.0001) startTime =   /* Start time of the model integration [s] */
(PID.TID 0000.0001)                 0.000000000000000E+00
(PID.TID 0000.0001)     ;
(PID.TID 0000.0001) endTime =   /* End time of the model integration [s] */
(PID.TID 0000.0001)                 3.960000000000000E+04
(PID.TID 0000.0001)     ;
(PID.TID 0000.0001) deltatclock =   /* Time interval for a model forward step [s] */
(PID.TID 0000.0001)                 3.600000000000000E+03
(PID.TID 0000.0001)     ;
(PID.TID 0000.0001) usingGregorianCalendar =  /* Calendar Type: Gregorian Calendar */
(PID.TID 0000.0001)                   T
(PID.TID 0000.0001)     ;
(PID.TID 0000.0001) usingJulianCalendar =  /* Calendar Type: Julian Calendar */
(PID.TID 0000.0001)                   F
(PID.TID 0000.0001)     ;
(PID.TID 0000.0001) usingModelCalendar =  /* Calendar Type: Model Calendar */
(PID.TID 0000.0001)                   F
(PID.TID 0000.0001)     ;
(PID.TID 0000.0001) usingNoCalendar =  /* Calendar Type: No Calendar */
(PID.TID 0000.0001)                   F
(PID.TID 0000.0001)     ;
(PID.TID 0000.0001) modelstartdate (YYYYMMDD) =   /* Model start date YYYY-MM-DD  */
(PID.TID 0000.0001)                19790101
(PID.TID 0000.0001)     ;
(PID.TID 0000.0001) modelstartdate (HHMMSS) =   /* Model start date HH-MM-SS  */
(PID.TID 0000.0001)                       0
(PID.TID 0000.0001)     ;
(PID.TID 0000.0001) modelenddate (YYYYMMDD) =   /* Model end date YYYY-MM-DD  */
(PID.TID 0000.0001)                19790101
(PID.TID 0000.0001)     ;
(PID.TID 0000.0001) modelenddate (HHMMSS) =   /* Model end date HH-MM-SS  */
(PID.TID 0000.0001)                  110000
(PID.TID 0000.0001)     ;
(PID.TID 0000.0001) intyears =   /* Number of calendar years affected by the integration  */
(PID.TID 0000.0001)                       1
(PID.TID 0000.0001)     ;
(PID.TID 0000.0001) intmonths =   /* Number of calendar months affected by the integration  */
(PID.TID 0000.0001)                       1
(PID.TID 0000.0001)     ;
(PID.TID 0000.0001) intdays =   /* Number of calendar days affected by the integration  */
(PID.TID 0000.0001)                       1
(PID.TID 0000.0001)     ;
(PID.TID 0000.0001) nIter0 =   /* Base timestep number  */
(PID.TID 0000.0001)                       0
(PID.TID 0000.0001)     ;
(PID.TID 0000.0001) nEndIter =   /* Final timestep number  */
(PID.TID 0000.0001)                      11
(PID.TID 0000.0001)     ;
(PID.TID 0000.0001) nTimeSteps =   /* Number of model timesteps  */
(PID.TID 0000.0001)                      11
(PID.TID 0000.0001)     ;
(PID.TID 0000.0001) 
(PID.TID 0000.0001) // =======================================================
(PID.TID 0000.0001) // Calendar configuration  >>> END <<<
(PID.TID 0000.0001) // =======================================================
(PID.TID 0000.0001) 
(PID.TID 0000.0001) 
(PID.TID 0000.0001) // =======================================================
(PID.TID 0000.0001) // External forcing configuration >>> START <<<
(PID.TID 0000.0001) // =======================================================
(PID.TID 0000.0001) 
(PID.TID 0000.0001) External forcing version: 0.2.2
(PID.TID 0000.0001) Uses Calendar version:    0.2.0
(PID.TID 0000.0001) 
(PID.TID 0000.0001) // ALLOW_ATM_TEMP:                     defined
(PID.TID 0000.0001) // ALLOW_ATM_WIND:                     defined
(PID.TID 0000.0001) // ALLOW_DOWNWARD_RADIATION:           defined
(PID.TID 0000.0001) // ALLOW_BULKFORMULAE:             NOT defined
(PID.TID 0000.0001) 
(PID.TID 0000.0001)    Net shortwave flux forcing starts at       19781216 180000 SAT.
(PID.TID 0000.0001)    Net shortwave flux forcing period is       00000030 120000
(PID.TID 0000.0001)    Net shortwave flux forcing is read from file:
(PID.TID 0000.0001)    >>    <<
(PID.TID 0000.0001) 
(PID.TID 0000.0001)    Zonal wind forcing starts at                 19781216 180000 SAT.
(PID.TID 0000.0001)    Zonal wind forcing period is                 00000030 120000
(PID.TID 0000.0001)    Zonal wind forcing is read from file:
(PID.TID 0000.0001)    >>  u10m.labsea79  <<
(PID.TID 0000.0001) 
(PID.TID 0000.0001)    Meridional wind forcing starts at            19781216 180000 SAT.
(PID.TID 0000.0001)    Meridional wind forcing period is            00000030 120000
(PID.TID 0000.0001)    Meridional wind forcing is read from file:
(PID.TID 0000.0001)    >>  v10m.labsea79  <<
(PID.TID 0000.0001) 
(PID.TID 0000.0001)    Atmospheric temperature starts at            19781216 180000 SAT.
(PID.TID 0000.0001)    Atmospheric temperature period is            00000030 120000
(PID.TID 0000.0001)    Atmospheric temperature is read from file:
(PID.TID 0000.0001)    >>  tair.labsea1979  <<
(PID.TID 0000.0001) 
(PID.TID 0000.0001)    Atmospheric specific humidity starts at      19781216 180000 SAT.
(PID.TID 0000.0001)    Atmospheric specific humidity period is      00000030 120000
(PID.TID 0000.0001)    Atmospheric specific humidity is read from file:
(PID.TID 0000.0001)    >>  qa.labsea1979  <<
(PID.TID 0000.0001) 
(PID.TID 0000.0001)    Net longwave flux forcing starts at        19781216 180000 SAT.
(PID.TID 0000.0001)    Net longwave flux forcing period is        00000030 120000
(PID.TID 0000.0001)    Net longwave flux forcing is read from file:
(PID.TID 0000.0001)    >>    <<
(PID.TID 0000.0001) 
(PID.TID 0000.0001)    Precipitation data set starts at             19781216 180000 SAT.
(PID.TID 0000.0001)    Precipitation data period is                 00000030 120000
(PID.TID 0000.0001)    Precipitation data is read from file:
(PID.TID 0000.0001)    >>  prate.labsea1979  <<
(PID.TID 0000.0001) // EXF_READ_EVAP:                      defined
(PID.TID 0000.0001) 
(PID.TID 0000.0001)    Evaporation starts at      19781216 180000 SAT.
(PID.TID 0000.0001)    Evaporation period is      00000030 120000
(PID.TID 0000.0001)    Evaporation is read from file:
(PID.TID 0000.0001)    >>  evap.labsea1979  <<
(PID.TID 0000.0001) // ALLOW_RUNOFF:                       defined
(PID.TID 0000.0001) 
(PID.TID 0000.0001)    Runnoff starts at      00000000 000000 FRI.
(PID.TID 0000.0001)    Runoff period is      00000000 000000
(PID.TID 0000.0001)    Runoff is read from file:
(PID.TID 0000.0001)    >>    <<
(PID.TID 0000.0001) 
(PID.TID 0000.0001) // =======================================================
(PID.TID 0000.0001) // External forcing configuration  >>> END <<<
(PID.TID 0000.0001) // =======================================================
(PID.TID 0000.0001) 
(PID.TID 0000.0001) 
(PID.TID 0000.0001) // =======================================================
(PID.TID 0000.0001) // External forcing climatology configuration >>> START <<<
(PID.TID 0000.0001) // =======================================================
(PID.TID 0000.0001) 
(PID.TID 0000.0001) External forcing version: 0.2.2
(PID.TID 0000.0001) Uses Calendar version:    0.2.0
(PID.TID 0000.0001) 
(PID.TID 0000.0001) // ALLOW_CLIMTEMP_RELAXATION:      NOT defined
(PID.TID 0000.0001) // ALLOW_CLIMSALT_RELAXATION:      NOT defined
(PID.TID 0000.0001) // ALLOW_CLIMSST_RELAXATION:       NOT defined
(PID.TID 0000.0001) // ALLOW_CLIMSSS_RELAXATION:           defined
(PID.TID 0000.0001) 
(PID.TID 0000.0001)    Climatological SSS starts at          19781216 180000 SAT.
(PID.TID 0000.0001)    Climatological SSS period is          00000030 120000
(PID.TID 0000.0001)    Climatological SSS is read from file:
(PID.TID 0000.0001)    >>  SSS.labsea  <<
(PID.TID 0000.0001) 
(PID.TID 0000.0001) // =======================================================
(PID.TID 0000.0001) // External forcing climatology configuration  >>> END <<<
(PID.TID 0000.0001) // =======================================================
(PID.TID 0000.0001) 
(PID.TID 0000.0001) KPP_CHECK: #define ALLOW_KPP
(PID.TID 0000.0001) GMREDI_CHECK: #define GMREDI
(PID.TID 0000.0001) GM_AdvForm =  /* if FALSE => use SkewFlux Form */
(PID.TID 0000.0001)                   F
(PID.TID 0000.0001)     ;
(PID.TID 0000.0001) GM_AdvSeparate = /* Calc Bolus & Euler Adv. separately */
(PID.TID 0000.0001)                   F
(PID.TID 0000.0001)     ;
(PID.TID 0000.0001) GM_ExtraDiag =  /* Tensor Extra Diag (line 1&2) non 0 */
(PID.TID 0000.0001)                   F
(PID.TID 0000.0001)     ;
(PID.TID 0000.0001) GM_isopycK =   /* Background Isopyc. Diffusivity ( m^2/s ) */
(PID.TID 0000.0001)                 5.710000000000000E+02
(PID.TID 0000.0001)     ;
(PID.TID 0000.0001)  GM_skewflx*K =   /* Background GM_SkewFlx Diffusivity ( m^2/s ) */
(PID.TID 0000.0001)                 5.710000000000000E+02
(PID.TID 0000.0001)     ;
(PID.TID 0000.0001)  GM_advec*K =   /* Backg. GM-Advec(=Bolus) Diffusivity ( m^2/s ) */
(PID.TID 0000.0001)                 0.000000000000000E+00
(PID.TID 0000.0001)     ;
(PID.TID 0000.0001)  GM_Visbeck_alpha =   /* Visbeck alpha coeff. ( ) */
(PID.TID 0000.0001)                 0.000000000000000E+00
(PID.TID 0000.0001)     ;
(PID.TID 0000.0001)  Tapering/Cliping : ldd97
(PID.TID 0000.0001)  GM_Small_Number =  /* epsilon used in slope calc */
(PID.TID 0000.0001)                 1.000000000000000E-12
(PID.TID 0000.0001)     ;
(PID.TID 0000.0001)  GM_slopeSqCutoff =  /* Slope^2 cut-off value */
(PID.TID 0000.0001)                 1.000000000000000E+48
(PID.TID 0000.0001)     ;
(PID.TID 0000.0001) SEAICE_CHECK: #define ALLOW_SEAICE
(PID.TID 0000.0001) 
(PID.TID 0000.0001) // ===================================
(PID.TID 0000.0001) // GAD parameters :
(PID.TID 0000.0001) // ===================================
(PID.TID 0000.0001) tempAdvScheme =   /* Temp. advection scheme selector */
(PID.TID 0000.0001)                       2
(PID.TID 0000.0001)     ;
(PID.TID 0000.0001) tempMultiDimAdvec =   /* use Muti-Dim Advec method for Temp */
(PID.TID 0000.0001)                   F
(PID.TID 0000.0001)     ;
(PID.TID 0000.0001) tempAdamsBashforth =   /* use Adams-Bashforth time-stepping for Temp */
(PID.TID 0000.0001)                   T
(PID.TID 0000.0001)     ;
(PID.TID 0000.0001) saltAdvScheme =   /* Salt. advection scheme selector */
(PID.TID 0000.0001)                       2
(PID.TID 0000.0001)     ;
(PID.TID 0000.0001) saltMultiDimAdvec =   /* use Muti-Dim Advec method for Salt */
(PID.TID 0000.0001)                   F
(PID.TID 0000.0001)     ;
(PID.TID 0000.0001) saltAdamsBashforth =   /* use Adams-Bashforth time-stepping for Salt */
(PID.TID 0000.0001)                   T
(PID.TID 0000.0001)     ;
(PID.TID 0000.0001) // ===================================
(PID.TID 0000.0001) %MON fCori_max                    =   1.4171638136144E-04
(PID.TID 0000.0001) %MON fCori_min                    =   1.0637108408252E-04
(PID.TID 0000.0001) %MON fCori_mean                   =   1.2676338344768E-04
(PID.TID 0000.0001) %MON fCori_sd                     =   1.1001401444773E-05
(PID.TID 0000.0001) %MON fCoriG_max                   =   1.4112379284621E-04
(PID.TID 0000.0001) %MON fCoriG_min                   =   1.0462373297123E-04
(PID.TID 0000.0001) %MON fCoriG_mean                  =   1.2556776212280E-04
(PID.TID 0000.0001) %MON fCoriG_sd                    =   1.1352720951562E-05
(PID.TID 0000.0001) %MON fCoriCos_max                 =   9.9192640635770E-05
(PID.TID 0000.0001) %MON fCoriCos_min                 =   3.2717804617776E-05
(PID.TID 0000.0001) %MON fCoriCos_mean                =   6.7401286568454E-05
(PID.TID 0000.0001) %MON fCoriCos_sd                  =   2.0519937554777E-05
(PID.TID 0000.0001) // CG2D normalisation factor =          0.1609493984093918964983078E-03
(PID.TID 0000.0001) 
(PID.TID 0000.0001) CONFIG_CHECK: OK
(PID.TID 0000.0001) // =======================================================
(PID.TID 0000.0001) // Model configuration
(PID.TID 0000.0001) // =======================================================
(PID.TID 0000.0001) //
(PID.TID 0000.0001) // "Physical" paramters ( PARM01 in namelist )
(PID.TID 0000.0001) //
(PID.TID 0000.0001) buoyancyRelation = OCEANIC
(PID.TID 0000.0001) tRef =   /* Reference temperature profile ( oC or oK ) */
(PID.TID 0000.0001)                 2.400000000000000E+01,      /* K =  1 */
(PID.TID 0000.0001)                 2.300000000000000E+01,      /* K =  2 */
(PID.TID 0000.0001)                 2.200000000000000E+01,      /* K =  3 */
(PID.TID 0000.0001)                 2.100000000000000E+01,      /* K =  4 */
(PID.TID 0000.0001)                 2.000000000000000E+01,      /* K =  5 */
(PID.TID 0000.0001)                 1.900000000000000E+01,      /* K =  6 */
(PID.TID 0000.0001)                 1.800000000000000E+01,      /* K =  7 */
(PID.TID 0000.0001)                 1.700000000000000E+01,      /* K =  8 */
(PID.TID 0000.0001)                 1.600000000000000E+01,      /* K =  9 */
(PID.TID 0000.0001)                 1.500000000000000E+01,      /* K = 10 */
(PID.TID 0000.0001)                 1.400000000000000E+01,      /* K = 11 */
(PID.TID 0000.0001)                 1.300000000000000E+01,      /* K = 12 */
(PID.TID 0000.0001)                 1.200000000000000E+01,      /* K = 13 */
(PID.TID 0000.0001)                 1.100000000000000E+01,      /* K = 14 */
(PID.TID 0000.0001)                 1.000000000000000E+01,      /* K = 15 */
(PID.TID 0000.0001)                 9.000000000000000E+00,      /* K = 16 */
(PID.TID 0000.0001)                 8.000000000000000E+00,      /* K = 17 */
(PID.TID 0000.0001)                 7.000000000000000E+00,      /* K = 18 */
(PID.TID 0000.0001)                 6.000000000000000E+00,      /* K = 19 */
(PID.TID 0000.0001)                 5.000000000000000E+00,      /* K = 20 */
(PID.TID 0000.0001)                 4.000000000000000E+00,      /* K = 21 */
(PID.TID 0000.0001)                 3.000000000000000E+00,      /* K = 22 */
(PID.TID 0000.0001)                 2.000000000000000E+00       /* K = 23 */
(PID.TID 0000.0001)     ;
(PID.TID 0000.0001) sRef =   /* Reference salinity profile ( ppt ) */
(PID.TID 0000.0001)                 3.465000000000000E+01,      /* K =  1 */
(PID.TID 0000.0001)                 3.475000000000000E+01,      /* K =  2 */
(PID.TID 0000.0001)                 3.482000000000000E+01,      /* K =  3 */
(PID.TID 0000.0001)                 3.487000000000000E+01,      /* K =  4 */
(PID.TID 0000.0001)     2 @  3.490000000000000E+01,             /* K =  5:  6 */
(PID.TID 0000.0001)                 3.486000000000000E+01,      /* K =  7 */
(PID.TID 0000.0001)                 3.478000000000000E+01,      /* K =  8 */
(PID.TID 0000.0001)                 3.469000000000000E+01,      /* K =  9 */
(PID.TID 0000.0001)                 3.460000000000000E+01,      /* K = 10 */
(PID.TID 0000.0001)                 3.458000000000000E+01,      /* K = 11 */
(PID.TID 0000.0001)                 3.462000000000000E+01,      /* K = 12 */
(PID.TID 0000.0001)                 3.468000000000000E+01,      /* K = 13 */
(PID.TID 0000.0001)                 3.472000000000000E+01,      /* K = 14 */
(PID.TID 0000.0001)                 3.473000000000000E+01,      /* K = 15 */
(PID.TID 0000.0001)                 3.474000000000000E+01,      /* K = 16 */
(PID.TID 0000.0001)     2 @  3.473000000000000E+01,             /* K = 17: 18 */
(PID.TID 0000.0001)     2 @  3.472000000000000E+01,             /* K = 19: 20 */
(PID.TID 0000.0001)                 3.471000000000000E+01,      /* K = 21 */
(PID.TID 0000.0001)                 3.470000000000000E+01,      /* K = 22 */
(PID.TID 0000.0001)                 3.469000000000000E+01       /* K = 23 */
(PID.TID 0000.0001)     ;
(PID.TID 0000.0001) viscAh =   /* Lateral eddy viscosity ( m^2/s ) */
(PID.TID 0000.0001)                 5.000000000000000E+04
(PID.TID 0000.0001)     ;
(PID.TID 0000.0001) viscAh =   /* Lateral biharmonic viscosity ( m^4/s ) */
(PID.TID 0000.0001)                 0.000000000000000E+00
(PID.TID 0000.0001)     ;
(PID.TID 0000.0001) no_slip_sides =  /* Viscous BCs: No-slip sides */
(PID.TID 0000.0001)                   F
(PID.TID 0000.0001)     ;
(PID.TID 0000.0001) viscAz =   /* Vertical eddy viscosity ( m^2/s ) */
(PID.TID 0000.0001)                 1.930000000000000E-05
(PID.TID 0000.0001)     ;
(PID.TID 0000.0001) viscAr =   /* Vertical eddy viscosity ( units of r^2/s ) */
(PID.TID 0000.0001)                 1.930000000000000E-05
(PID.TID 0000.0001)     ;
(PID.TID 0000.0001) diffKhT =   /* Laplacian diffusion of heat laterally ( m^2/s ) */
(PID.TID 0000.0001)                 0.000000000000000E+00
(PID.TID 0000.0001)     ;
(PID.TID 0000.0001) diffK4T =   /* Bihaarmonic diffusion of heat laterally ( m^4/s ) */
(PID.TID 0000.0001)                 0.000000000000000E+00
(PID.TID 0000.0001)     ;
(PID.TID 0000.0001) diffKzT =   /* Laplacian diffusion of heat vertically ( m^2/s ) */
(PID.TID 0000.0001)                 1.460000000000000E-05
(PID.TID 0000.0001)     ;
(PID.TID 0000.0001) diffKrT =   /* Laplacian diffusion of heat vertically ( m^2/s ) */
(PID.TID 0000.0001)                 1.460000000000000E-05
(PID.TID 0000.0001)     ;
(PID.TID 0000.0001) diffKhS =   /* Laplacian diffusion of salt laterally ( m^2/s ) */
(PID.TID 0000.0001)                 0.000000000000000E+00
(PID.TID 0000.0001)     ;
(PID.TID 0000.0001) diffK4S =   /* Bihaarmonic diffusion of salt laterally ( m^4/s ) */
(PID.TID 0000.0001)                 0.000000000000000E+00
(PID.TID 0000.0001)     ;
(PID.TID 0000.0001) diffKzS =   /* Laplacian diffusion of salt vertically ( m^2/s ) */
(PID.TID 0000.0001)                 1.460000000000000E-05
(PID.TID 0000.0001)     ;
(PID.TID 0000.0001) diffKrS =   /* Laplacian diffusion of salt vertically ( m^2/s ) */
(PID.TID 0000.0001)                 1.460000000000000E-05
(PID.TID 0000.0001)     ;
(PID.TID 0000.0001)  Equation of State : eosType = POLY3
(PID.TID 0000.0001) tAlpha =   /* Linear EOS thermal expansion coefficient ( 1/degree ) */
(PID.TID 0000.0001)                 2.000000000000000E-04
(PID.TID 0000.0001)     ;
(PID.TID 0000.0001) sBeta =   /* Linear EOS haline contraction coefficient ( 1/ppt ) */
(PID.TID 0000.0001)                 7.400000000000000E-04
(PID.TID 0000.0001)     ;
(PID.TID 0000.0001)   1  13.499  32.600  24.480  -0.201   0.771  -0.005  -0.002   0.000   0.000   0.000   0.000   0.000
(PID.TID 0000.0001)   2  13.498  32.600  24.525  -0.202   0.771  -0.005  -0.002   0.000   0.000   0.000   0.000   0.000
(PID.TID 0000.0001)   3  13.496  32.600  24.581  -0.202   0.771  -0.005  -0.002   0.000   0.000   0.000   0.000   0.000
(PID.TID 0000.0001)   4  13.494  32.600  24.660  -0.202   0.771  -0.005  -0.002   0.000   0.000   0.000   0.000   0.000
(PID.TID 0000.0001)   5  13.491  32.600  24.750  -0.203   0.771  -0.005  -0.002   0.000   0.000   0.000   0.000   0.000
(PID.TID 0000.0001)   6  13.488  32.600  24.851  -0.203   0.770  -0.005  -0.002   0.000   0.000   0.000   0.000   0.000
(PID.TID 0000.0001)   7  13.484  32.600  24.985  -0.204   0.770  -0.005  -0.002   0.000   0.000   0.000   0.000   0.000
(PID.TID 0000.0001)   8  13.478  32.600  25.176  -0.204   0.770  -0.005  -0.002   0.000   0.000   0.000   0.000   0.000
(PID.TID 0000.0001)   9  13.469  32.600  25.456  -0.205   0.769  -0.005  -0.002   0.000   0.000   0.000   0.000   0.000
(PID.TID 0000.0001)  10   8.467  35.150  28.748  -0.163   0.781  -0.005  -0.002   0.001   0.000   0.000   0.000   0.000
(PID.TID 0000.0001)  11   8.454  35.150  29.315  -0.166   0.780  -0.005  -0.002   0.001   0.000   0.000   0.000   0.000
(PID.TID 0000.0001)  12   5.946  34.900  30.300  -0.143   0.785  -0.006  -0.002   0.001   0.000   0.000   0.000   0.000
(PID.TID 0000.0001)  13   4.433  34.900  31.591  -0.132   0.786  -0.006  -0.003   0.000   0.000   0.000   0.000   0.000
(PID.TID 0000.0001)  14   3.909  34.750  32.966  -0.134   0.785  -0.006  -0.003   0.000   0.000   0.000   0.000   0.000
(PID.TID 0000.0001)  15   1.899  34.800  35.002  -0.121   0.787  -0.006  -0.003   0.000   0.000   0.000   0.000   0.000
(PID.TID 0000.0001)  16   1.372  34.750  36.991  -0.127   0.785  -0.006  -0.003  -0.001   0.000   0.000   0.000   0.000
(PID.TID 0000.0001)  17   1.332  34.800  39.171  -0.140   0.782  -0.006  -0.003  -0.001   0.000   0.000   0.000   0.000
(PID.TID 0000.0001)  18   0.797  34.800  41.472  -0.147   0.779  -0.006  -0.003  -0.001   0.000   0.000   0.000   0.000
(PID.TID 0000.0001)  19   0.749  34.800  43.682  -0.160   0.775  -0.005  -0.002  -0.002   0.000   0.000   0.000   0.000
(PID.TID 0000.0001)  20   0.214  34.750  45.912  -0.168   0.772  -0.005  -0.002  -0.002   0.000   0.000   0.000   0.000
(PID.TID 0000.0001)  21   0.160  34.750  48.080  -0.181   0.768  -0.005  -0.002  -0.003   0.000   0.000   0.000   0.000
(PID.TID 0000.0001)  22   0.584  34.750  50.131  -0.197   0.763  -0.005  -0.002  -0.001   0.000   0.000   0.000   0.000
(PID.TID 0000.0001)  23   0.522  34.750  52.248  -0.209   0.760  -0.005  -0.002  -0.002   0.000   0.000   0.000   0.000
(PID.TID 0000.0001) rhonil =   /* Reference density ( kg/m^3 ) */
(PID.TID 0000.0001)                 1.027000000000000E+03
(PID.TID 0000.0001)     ;
(PID.TID 0000.0001) rhoConst =   /* Reference density ( kg/m^3 ) */
(PID.TID 0000.0001)                 1.027000000000000E+03
(PID.TID 0000.0001)     ;
(PID.TID 0000.0001) rhoConstFresh =   /* Reference density ( kg/m^3 ) */
(PID.TID 0000.0001)                 9.998000000000000E+02
(PID.TID 0000.0001)     ;
(PID.TID 0000.0001) gravity =   /* Gravitational acceleration ( m/s^2 ) */
(PID.TID 0000.0001)                 9.815600000000000E+00
(PID.TID 0000.0001)     ;
(PID.TID 0000.0001) gBaro =   /* Barotropic gravity ( m/s^2 ) */
(PID.TID 0000.0001)                 9.815600000000000E+00
(PID.TID 0000.0001)     ;
(PID.TID 0000.0001) rotationPeriod =   /* Rotation Period ( s ) */
(PID.TID 0000.0001)                 8.640000000000000E+04
(PID.TID 0000.0001)     ;
(PID.TID 0000.0001) omega =   /* Angular velocity ( rad/s ) */
(PID.TID 0000.0001)                 7.272205216643040E-05
(PID.TID 0000.0001)     ;
(PID.TID 0000.0001) f0 =   /* Reference coriolis parameter ( 1/s ) */
(PID.TID 0000.0001)                 1.000000000000000E-04
(PID.TID 0000.0001)     ;
(PID.TID 0000.0001) beta =   /* Beta ( 1/(m.s) ) */
(PID.TID 0000.0001)                 9.999999999999999E-12
(PID.TID 0000.0001)     ;
(PID.TID 0000.0001) freeSurfFac =   /* Implicit free surface factor */
(PID.TID 0000.0001)                 1.000000000000000E+00
(PID.TID 0000.0001)     ;
(PID.TID 0000.0001) implicitFreeSurface =   /* Implicit free surface on/off flag */
(PID.TID 0000.0001)                   T
(PID.TID 0000.0001)     ;
(PID.TID 0000.0001) rigidLid =   /* Rigid lid on/off flag */
(PID.TID 0000.0001)                   F
(PID.TID 0000.0001)     ;
(PID.TID 0000.0001) implicSurfPress =   /* Surface Pressure implicit factor (0-1)*/
(PID.TID 0000.0001)                 1.000000000000000E+00
(PID.TID 0000.0001)     ;
(PID.TID 0000.0001) implicDiv2Dflow =   /* Barot. Flow Div. implicit factor (0-1)*/
(PID.TID 0000.0001)                 1.000000000000000E+00
(PID.TID 0000.0001)     ;
(PID.TID 0000.0001) exactConserv =   /* Exact Volume Conservation on/off flag*/
(PID.TID 0000.0001)                   F
(PID.TID 0000.0001)     ;
(PID.TID 0000.0001) uniformLin_PhiSurf =   /* use uniform Bo_surf on/off flag*/
(PID.TID 0000.0001)                   T
(PID.TID 0000.0001)     ;
(PID.TID 0000.0001) nonlinFreeSurf =   /* Non-linear Free Surf. options (-1,0,1,2,3)*/
(PID.TID 0000.0001)                       0
(PID.TID 0000.0001)     ;
(PID.TID 0000.0001)      -1,0= Off ; 1,2,3= On, 2=+rescale gU,gV, 3=+update cg2d solv.
(PID.TID 0000.0001) hFacInf =   /* lower threshold for hFac (nonlinFreeSurf only)*/
(PID.TID 0000.0001)                 2.000000000000000E-01
(PID.TID 0000.0001)     ;
(PID.TID 0000.0001) hFacSup =   /* upper threshold for hFac (nonlinFreeSurf only)*/
(PID.TID 0000.0001)                 2.000000000000000E+00
(PID.TID 0000.0001)     ;
(PID.TID 0000.0001) select_rStar =   /* r* Coordinate options (not yet implemented)*/
(PID.TID 0000.0001)                       0
(PID.TID 0000.0001)     ;
(PID.TID 0000.0001) useRealFreshWaterFlux =   /* Real Fresh Water Flux on/off flag*/
(PID.TID 0000.0001)                   F
(PID.TID 0000.0001)     ;
(PID.TID 0000.0001) convertFW2Salt = /* convert F.W. Flux to Salt Flux (-1=use local S)(ppt)*/
(PID.TID 0000.0001)                 3.500000000000000E+01
(PID.TID 0000.0001)     ;
(PID.TID 0000.0001) multiDimAdvection =   /* enable/disable Multi-Dim Advection */
(PID.TID 0000.0001)                   T
(PID.TID 0000.0001)     ;
(PID.TID 0000.0001) staggerTimeStep =   /* Stagger time stepping on/off flag */
(PID.TID 0000.0001)                   F
(PID.TID 0000.0001)     ;
(PID.TID 0000.0001) momStepping =  /* Momentum equation on/off flag */
(PID.TID 0000.0001)                   T
(PID.TID 0000.0001)     ;
(PID.TID 0000.0001) momAdvection =  /* Momentum advection on/off flag */
(PID.TID 0000.0001)                   T
(PID.TID 0000.0001)     ;
(PID.TID 0000.0001) momViscosity =  /* Momentum viscosity on/off flag */
(PID.TID 0000.0001)                   T
(PID.TID 0000.0001)     ;
(PID.TID 0000.0001) useCoriolis =  /* Coriolis on/off flag */
(PID.TID 0000.0001)                   T
(PID.TID 0000.0001)     ;
(PID.TID 0000.0001) momForcing =  /* Momentum forcing on/off flag */
(PID.TID 0000.0001)                   T
(PID.TID 0000.0001)     ;
(PID.TID 0000.0001) momPressureForcing =  /* Momentum pressure term on/off flag */
(PID.TID 0000.0001)                   T
(PID.TID 0000.0001)     ;
(PID.TID 0000.0001) tempStepping =  /* Temperature equation on/off flag */
(PID.TID 0000.0001)                   T
(PID.TID 0000.0001)     ;
(PID.TID 0000.0001) tempAdvection=  /* Temperature advection on/off flag */
(PID.TID 0000.0001)                   T
(PID.TID 0000.0001)     ;
(PID.TID 0000.0001) tempForcing  =  /* Temperature forcing on/off flag */
(PID.TID 0000.0001)                   T
(PID.TID 0000.0001)     ;
(PID.TID 0000.0001) saltStepping =  /* Salinity equation on/off flag */
(PID.TID 0000.0001)                   T
(PID.TID 0000.0001)     ;
(PID.TID 0000.0001) saltAdvection=  /* Salinity advection on/off flag */
(PID.TID 0000.0001)                   T
(PID.TID 0000.0001)     ;
(PID.TID 0000.0001) saltForcing  =  /* Salinity forcing on/off flag */
(PID.TID 0000.0001)                   T
(PID.TID 0000.0001)     ;
(PID.TID 0000.0001) nonHydrostatic =  /* Non-Hydrostatic on/off flag */
(PID.TID 0000.0001)                   F
(PID.TID 0000.0001)     ;
(PID.TID 0000.0001) useCDscheme =  /* CD scheme on/off flag */
(PID.TID 0000.0001)                   T
(PID.TID 0000.0001)     ;
(PID.TID 0000.0001) useJamartWetPoints= /* Coriolis WetPoints method flag */
(PID.TID 0000.0001)                   F
(PID.TID 0000.0001)     ;
(PID.TID 0000.0001) //
(PID.TID 0000.0001) // Elliptic solver(s) paramters ( PARM02 in namelist )
(PID.TID 0000.0001) //
(PID.TID 0000.0001) cg2dMaxIters =   /* Upper limit on 2d con. grad iterations  */
(PID.TID 0000.0001)                     500
(PID.TID 0000.0001)     ;
(PID.TID 0000.0001) cg2dChkResFreq =   /* 2d con. grad convergence test frequency */
(PID.TID 0000.0001)                       1
(PID.TID 0000.0001)     ;
(PID.TID 0000.0001) cg2dTargetResidual =   /* 2d con. grad target residual  */
(PID.TID 0000.0001)                 1.000000000000000E-08
(PID.TID 0000.0001)     ;
(PID.TID 0000.0001) //
(PID.TID 0000.0001) // Time stepping paramters ( PARM03 in namelist )
(PID.TID 0000.0001) //
(PID.TID 0000.0001) nIter0 =   /* Base timestep number  */
(PID.TID 0000.0001)                       0
(PID.TID 0000.0001)     ;
(PID.TID 0000.0001) nTimeSteps =   /* Number of timesteps */
(PID.TID 0000.0001)                      11
(PID.TID 0000.0001)     ;
(PID.TID 0000.0001) deltatTmom =   /* Momentum equation timestep ( s ) */
(PID.TID 0000.0001)                 3.600000000000000E+03
(PID.TID 0000.0001)     ;
(PID.TID 0000.0001) deltaTfreesurf =   /* FreeSurface equation timestep ( s ) */
(PID.TID 0000.0001)                 3.600000000000000E+03
(PID.TID 0000.0001)     ;
(PID.TID 0000.0001) deltatTtracer =   /* Tracer equation timestep ( s ) */
(PID.TID 0000.0001)                 3.600000000000000E+03
(PID.TID 0000.0001)     ;
(PID.TID 0000.0001) deltatTClock  =   /* Model clock timestep ( s ) */
(PID.TID 0000.0001)                 3.600000000000000E+03
(PID.TID 0000.0001)     ;
(PID.TID 0000.0001) cAdjFreq =   /* Convective adjustment interval ( s ) */
(PID.TID 0000.0001)                 0.000000000000000E+00
(PID.TID 0000.0001)     ;
(PID.TID 0000.0001) forcing_In_AB =   /* put T,S Forcing in Adams-Bash. stepping */
(PID.TID 0000.0001)                   T
(PID.TID 0000.0001)     ;
(PID.TID 0000.0001) abeps =   /* Adams-Bashforth stabilizing weight */
(PID.TID 0000.0001)                 1.000000000000000E-01
(PID.TID 0000.0001)     ;
(PID.TID 0000.0001) tauCD =   /* CD coupling time-scale ( s ) */
(PID.TID 0000.0001)                 1.728000000000000E+05
(PID.TID 0000.0001)     ;
(PID.TID 0000.0001) rCD =   /* Normalised CD coupling parameter */
(PID.TID 0000.0001)                 9.791666666666666E-01
(PID.TID 0000.0001)     ;
(PID.TID 0000.0001) startTime =   /* Run start time ( s ). */
(PID.TID 0000.0001)                 0.000000000000000E+00
(PID.TID 0000.0001)     ;
(PID.TID 0000.0001) endTime =   /* Integration ending time ( s ). */
(PID.TID 0000.0001)                 3.960000000000000E+04
(PID.TID 0000.0001)     ;
(PID.TID 0000.0001) pChkPtFreq =   /* Permanent restart/checkpoint file interval ( s ). */
(PID.TID 0000.0001)                 3.600000000000000E+04
(PID.TID 0000.0001)     ;
(PID.TID 0000.0001) chkPtFreq =   /* Rolling restart/checkpoint file interval ( s ). */
(PID.TID 0000.0001)                 0.000000000000000E+00
(PID.TID 0000.0001)     ;
(PID.TID 0000.0001) dumpFreq =   /* Model state write out interval ( s ). */
(PID.TID 0000.0001)                 0.000000000000000E+00
(PID.TID 0000.0001)     ;
(PID.TID 0000.0001) //
(PID.TID 0000.0001) // Gridding paramters ( PARM04 in namelist )
(PID.TID 0000.0001) //
(PID.TID 0000.0001) usingCartesianGrid =   /* Cartesian coordinates flag ( True / False ) */
(PID.TID 0000.0001)                   F
(PID.TID 0000.0001)     ;
(PID.TID 0000.0001) usingSphericalPolarGrid =   /* Spherical coordinates flag ( True / False ) */
(PID.TID 0000.0001)                   T
(PID.TID 0000.0001)     ;
(PID.TID 0000.0001) groundAtK1 =   /* Lower Boundary (ground) at the surface(k=1) ( T / F ) */
(PID.TID 0000.0001)                   F
(PID.TID 0000.0001)     ;
(PID.TID 0000.0001) Ro_SeaLevel =   /* r(1) ( units of r ) */
(PID.TID 0000.0001)                 0.000000000000000E+00
(PID.TID 0000.0001)     ;
(PID.TID 0000.0001) rkFac =   /* minus Vertical index orientation  */
(PID.TID 0000.0001)                 1.000000000000000E+00
(PID.TID 0000.0001)     ;
(PID.TID 0000.0001) horiVertRatio =   /* Ratio on units : Horiz - Vertical */
(PID.TID 0000.0001)                 1.000000000000000E+00
(PID.TID 0000.0001)     ;
(PID.TID 0000.0001) drC =   /* C spacing ( units of r ) */
(PID.TID 0000.0001)                 5.000000000000000E+00,      /* K =  1 */
(PID.TID 0000.0001)                 1.000000000000000E+01,      /* K =  2 */
(PID.TID 0000.0001)                 1.250000000000000E+01,      /* K =  3 */
(PID.TID 0000.0001)                 1.750000000000000E+01,      /* K =  4 */
(PID.TID 0000.0001)                 2.000000000000000E+01,      /* K =  5 */
(PID.TID 0000.0001)                 2.250000000000000E+01,      /* K =  6 */
(PID.TID 0000.0001)                 3.000000000000000E+01,      /* K =  7 */
(PID.TID 0000.0001)                 4.250000000000000E+01,      /* K =  8 */
(PID.TID 0000.0001)                 6.250000000000000E+01,      /* K =  9 */
(PID.TID 0000.0001)                 8.750000000000000E+01,      /* K = 10 */
(PID.TID 0000.0001)                 1.250000000000000E+02,      /* K = 11 */
(PID.TID 0000.0001)                 1.750000000000000E+02,      /* K = 12 */
(PID.TID 0000.0001)                 2.375000000000000E+02,      /* K = 13 */
(PID.TID 0000.0001)                 3.125000000000000E+02,      /* K = 14 */
(PID.TID 0000.0001)                 3.825000000000000E+02,      /* K = 15 */
(PID.TID 0000.0001)                 4.325000000000000E+02,      /* K = 16 */
(PID.TID 0000.0001)                 4.750000000000000E+02,      /* K = 17 */
(PID.TID 0000.0001)     6 @  5.000000000000000E+02              /* K = 18: 23 */
(PID.TID 0000.0001)     ;
(PID.TID 0000.0001) drF =   /* W spacing ( units of r ) */
(PID.TID 0000.0001)     2 @  1.000000000000000E+01,             /* K =  1:  2 */
(PID.TID 0000.0001)                 1.500000000000000E+01,      /* K =  3 */
(PID.TID 0000.0001)     2 @  2.000000000000000E+01,             /* K =  4:  5 */
(PID.TID 0000.0001)                 2.500000000000000E+01,      /* K =  6 */
(PID.TID 0000.0001)                 3.500000000000000E+01,      /* K =  7 */
(PID.TID 0000.0001)                 5.000000000000000E+01,      /* K =  8 */
(PID.TID 0000.0001)                 7.500000000000000E+01,      /* K =  9 */
(PID.TID 0000.0001)                 1.000000000000000E+02,      /* K = 10 */
(PID.TID 0000.0001)                 1.500000000000000E+02,      /* K = 11 */
(PID.TID 0000.0001)                 2.000000000000000E+02,      /* K = 12 */
(PID.TID 0000.0001)                 2.750000000000000E+02,      /* K = 13 */
(PID.TID 0000.0001)                 3.500000000000000E+02,      /* K = 14 */
(PID.TID 0000.0001)                 4.150000000000000E+02,      /* K = 15 */
(PID.TID 0000.0001)                 4.500000000000000E+02,      /* K = 16 */
(PID.TID 0000.0001)     7 @  5.000000000000000E+02              /* K = 17: 23 */
(PID.TID 0000.0001)     ;
(PID.TID 0000.0001) delX =   /* U spacing ( m - cartesian, degrees - spherical ) */
(PID.TID 0000.0001)    20 @  2.000000000000000E+00              /* I =  1: 20 */
(PID.TID 0000.0001)     ;
(PID.TID 0000.0001) delY =   /* V spacing ( m - cartesian, degrees - spherical ) */
(PID.TID 0000.0001)    16 @  2.000000000000000E+00              /* J =  1: 16 */
(PID.TID 0000.0001)     ;
(PID.TID 0000.0001) phiMin =    /* South edge (ignored - cartesian, degrees - spherical ) */
(PID.TID 0000.0001)                 4.600000000000000E+01
(PID.TID 0000.0001)     ;
(PID.TID 0000.0001) thetaMin =    /* West edge ( ignored - cartesian, degrees - spherical ) */
(PID.TID 0000.0001)                 2.800000000000000E+02
(PID.TID 0000.0001)     ;
(PID.TID 0000.0001) rSphere =    /* Radius ( ignored - cartesian, m - spherical ) */
(PID.TID 0000.0001)                 6.371000000000000E+06
(PID.TID 0000.0001)     ;
(PID.TID 0000.0001) xcoord =   /* P-point X coord ( m - cartesian, degrees - spherical ) */
(PID.TID 0000.0001)                 2.810000000000000E+02,      /* I =  1 */
(PID.TID 0000.0001)                 2.830000000000000E+02,      /* I =  2 */
(PID.TID 0000.0001)                 2.850000000000000E+02,      /* I =  3 */
(PID.TID 0000.0001)                 2.870000000000000E+02,      /* I =  4 */
(PID.TID 0000.0001)                 2.890000000000000E+02,      /* I =  5 */
(PID.TID 0000.0001)                 2.910000000000000E+02,      /* I =  6 */
(PID.TID 0000.0001)                 2.930000000000000E+02,      /* I =  7 */
(PID.TID 0000.0001)                 2.950000000000000E+02,      /* I =  8 */
(PID.TID 0000.0001)                 2.970000000000000E+02,      /* I =  9 */
(PID.TID 0000.0001)                 2.990000000000000E+02,      /* I = 10 */
(PID.TID 0000.0001)                 3.010000000000000E+02,      /* I = 11 */
(PID.TID 0000.0001)                 3.030000000000000E+02,      /* I = 12 */
(PID.TID 0000.0001)                 3.050000000000000E+02,      /* I = 13 */
(PID.TID 0000.0001)                 3.070000000000000E+02,      /* I = 14 */
(PID.TID 0000.0001)                 3.090000000000000E+02,      /* I = 15 */
(PID.TID 0000.0001)                 3.110000000000000E+02,      /* I = 16 */
(PID.TID 0000.0001)                 3.130000000000000E+02,      /* I = 17 */
(PID.TID 0000.0001)                 3.150000000000000E+02,      /* I = 18 */
(PID.TID 0000.0001)                 3.170000000000000E+02,      /* I = 19 */
(PID.TID 0000.0001)                 3.190000000000000E+02       /* I = 20 */
(PID.TID 0000.0001)     ;
(PID.TID 0000.0001) ycoord =   /* P-point Y coord ( m - cartesian, degrees - spherical ) */
(PID.TID 0000.0001)                 4.700000000000000E+01,      /* J =  1 */
(PID.TID 0000.0001)                 4.900000000000000E+01,      /* J =  2 */
(PID.TID 0000.0001)                 5.100000000000000E+01,      /* J =  3 */
(PID.TID 0000.0001)                 5.300000000000000E+01,      /* J =  4 */
(PID.TID 0000.0001)                 5.500000000000000E+01,      /* J =  5 */
(PID.TID 0000.0001)                 5.700000000000000E+01,      /* J =  6 */
(PID.TID 0000.0001)                 5.900000000000000E+01,      /* J =  7 */
(PID.TID 0000.0001)                 6.100000000000000E+01,      /* J =  8 */
(PID.TID 0000.0001)                 6.300000000000000E+01,      /* J =  9 */
(PID.TID 0000.0001)                 6.500000000000000E+01,      /* J = 10 */
(PID.TID 0000.0001)                 6.700000000000000E+01,      /* J = 11 */
(PID.TID 0000.0001)                 6.900000000000000E+01,      /* J = 12 */
(PID.TID 0000.0001)                 7.100000000000000E+01,      /* J = 13 */
(PID.TID 0000.0001)                 7.300000000000000E+01,      /* J = 14 */
(PID.TID 0000.0001)                 7.500000000000000E+01,      /* J = 15 */
(PID.TID 0000.0001)                 7.700000000000000E+01       /* J = 16 */
(PID.TID 0000.0001)     ;
(PID.TID 0000.0001) rcoord =   /* P-point R coordinate (  units of r ) */
(PID.TID 0000.0001)                -5.000000000000000E+00,      /* K =  1 */
(PID.TID 0000.0001)                -1.500000000000000E+01,      /* K =  2 */
(PID.TID 0000.0001)                -2.750000000000000E+01,      /* K =  3 */
(PID.TID 0000.0001)                -4.500000000000000E+01,      /* K =  4 */
(PID.TID 0000.0001)                -6.500000000000000E+01,      /* K =  5 */
(PID.TID 0000.0001)                -8.750000000000000E+01,      /* K =  6 */
(PID.TID 0000.0001)                -1.175000000000000E+02,      /* K =  7 */
(PID.TID 0000.0001)                -1.600000000000000E+02,      /* K =  8 */
(PID.TID 0000.0001)                -2.225000000000000E+02,      /* K =  9 */
(PID.TID 0000.0001)                -3.100000000000000E+02,      /* K = 10 */
(PID.TID 0000.0001)                -4.350000000000000E+02,      /* K = 11 */
(PID.TID 0000.0001)                -6.100000000000000E+02,      /* K = 12 */
(PID.TID 0000.0001)                -8.475000000000000E+02,      /* K = 13 */
(PID.TID 0000.0001)                -1.160000000000000E+03,      /* K = 14 */
(PID.TID 0000.0001)                -1.542500000000000E+03,      /* K = 15 */
(PID.TID 0000.0001)                -1.975000000000000E+03,      /* K = 16 */
(PID.TID 0000.0001)                -2.450000000000000E+03,      /* K = 17 */
(PID.TID 0000.0001)                -2.950000000000000E+03,      /* K = 18 */
(PID.TID 0000.0001)                -3.450000000000000E+03,      /* K = 19 */
(PID.TID 0000.0001)                -3.950000000000000E+03,      /* K = 20 */
(PID.TID 0000.0001)                -4.450000000000000E+03,      /* K = 21 */
(PID.TID 0000.0001)                -4.950000000000000E+03,      /* K = 22 */
(PID.TID 0000.0001)                -5.450000000000000E+03       /* K = 23 */
(PID.TID 0000.0001)     ;
(PID.TID 0000.0001) rF =   /* W-Interf. R coordinate (  units of r ) */
(PID.TID 0000.0001)                 0.000000000000000E+00,      /* K =  1 */
(PID.TID 0000.0001)                -1.000000000000000E+01,      /* K =  2 */
(PID.TID 0000.0001)                -2.000000000000000E+01,      /* K =  3 */
(PID.TID 0000.0001)                -3.500000000000000E+01,      /* K =  4 */
(PID.TID 0000.0001)                -5.500000000000000E+01,      /* K =  5 */
(PID.TID 0000.0001)                -7.500000000000000E+01,      /* K =  6 */
(PID.TID 0000.0001)                -1.000000000000000E+02,      /* K =  7 */
(PID.TID 0000.0001)                -1.350000000000000E+02,      /* K =  8 */
(PID.TID 0000.0001)                -1.850000000000000E+02,      /* K =  9 */
(PID.TID 0000.0001)                -2.600000000000000E+02,      /* K = 10 */
(PID.TID 0000.0001)                -3.600000000000000E+02,      /* K = 11 */
(PID.TID 0000.0001)                -5.100000000000000E+02,      /* K = 12 */
(PID.TID 0000.0001)                -7.100000000000000E+02,      /* K = 13 */
(PID.TID 0000.0001)                -9.850000000000000E+02,      /* K = 14 */
(PID.TID 0000.0001)                -1.335000000000000E+03,      /* K = 15 */
(PID.TID 0000.0001)                -1.750000000000000E+03,      /* K = 16 */
(PID.TID 0000.0001)                -2.200000000000000E+03,      /* K = 17 */
(PID.TID 0000.0001)                -2.700000000000000E+03,      /* K = 18 */
(PID.TID 0000.0001)                -3.200000000000000E+03,      /* K = 19 */
(PID.TID 0000.0001)                -3.700000000000000E+03,      /* K = 20 */
(PID.TID 0000.0001)                -4.200000000000000E+03,      /* K = 21 */
(PID.TID 0000.0001)                -4.700000000000000E+03,      /* K = 22 */
(PID.TID 0000.0001)                -5.200000000000000E+03,      /* K = 23 */
(PID.TID 0000.0001)                -5.700000000000000E+03       /* K = 24 */
(PID.TID 0000.0001)     ;
(PID.TID 0000.0001) dxF =  /* dxF(:,1,:,1) ( m - cartesian, degrees - spherical ) */
(PID.TID 0000.0001)    20 @  1.516695152377177E+05              /* I =  1: 20 */
(PID.TID 0000.0001)     ;
(PID.TID 0000.0001) dxF =  /* dxF(1,:,1,:) ( m - cartesian, degrees - spherical ) */
(PID.TID 0000.0001)                 1.516695152377177E+05,      /* J =  1 */
(PID.TID 0000.0001)                 1.459008712061998E+05,      /* J =  2 */
(PID.TID 0000.0001)                 1.399544694374234E+05,      /* J =  3 */
(PID.TID 0000.0001)                 1.338375547059709E+05,      /* J =  4 */
(PID.TID 0000.0001)                 1.275575795302040E+05,      /* J =  5 */
(PID.TID 0000.0001)                 1.211221950925184E+05,      /* J =  6 */
(PID.TID 0000.0001)                 1.145392419175564E+05,      /* J =  7 */
(PID.TID 0000.0001)                 1.078167403197357E+05,      /* J =  8 */
(PID.TID 0000.0001)                 1.009628806317309E+05,      /* J =  9 */
(PID.TID 0000.0001)                 9.398601322581599E+04,      /* J = 10 */
(PID.TID 0000.0001)                 8.689463834022089E+04,      /* J = 11 */
(PID.TID 0000.0001)                 7.969739572290120E+04,      /* J = 12 */
(PID.TID 0000.0001)                 7.240305410533582E+04,      /* J = 13 */
(PID.TID 0000.0001)                 6.502050051917860E+04,      /* J = 14 */
(PID.TID 0000.0001)                 5.755872946877906E+04,      /* J = 15 */
(PID.TID 0000.0001)                 5.002683197276441E+04       /* J = 16 */
(PID.TID 0000.0001)     ;
(PID.TID 0000.0001) dyF =  /* dyF(:,1,:,1) ( m - cartesian, degrees - spherical ) */
(PID.TID 0000.0001)    20 @  2.223898532891175E+05              /* I =  1: 20 */
(PID.TID 0000.0001)     ;
(PID.TID 0000.0001) dyF =  /* dyF(1,:,1,:) ( m - cartesian, degrees - spherical ) */
(PID.TID 0000.0001)    16 @  2.223898532891175E+05              /* J =  1: 16 */
(PID.TID 0000.0001)     ;
(PID.TID 0000.0001) dxG =  /* dxG(:,1,:,1) ( m - cartesian, degrees - spherical ) */
(PID.TID 0000.0001)    20 @  1.544849730924338E+05              /* I =  1: 20 */
(PID.TID 0000.0001)     ;
(PID.TID 0000.0001) dxG =  /* dxG(1,:,1,:) ( m - cartesian, degrees - spherical ) */
(PID.TID 0000.0001)                 1.544849730924338E+05,      /* J =  1 */
(PID.TID 0000.0001)                 1.488078573794047E+05,      /* J =  2 */
(PID.TID 0000.0001)                 1.429494422142520E+05,      /* J =  3 */
(PID.TID 0000.0001)                 1.369168651734348E+05,      /* J =  4 */
(PID.TID 0000.0001)                 1.307174760228300E+05,      /* J =  5 */
(PID.TID 0000.0001)                 1.243588277631750E+05,      /* J =  6 */
(PID.TID 0000.0001)                 1.178486674278995E+05,      /* J =  7 */
(PID.TID 0000.0001)                 1.111949266445588E+05,      /* J =  8 */
(PID.TID 0000.0001)                 1.044057119713670E+05,      /* J =  9 */
(PID.TID 0000.0001)                 9.748929502060510E+04,      /* J = 10 */
(PID.TID 0000.0001)                 9.045410238093534E+04,      /* J = 11 */
(PID.TID 0000.0001)                 8.330870535090074E+04,      /* J = 12 */
(PID.TID 0000.0001)                 7.606180949611843E+04,      /* J = 13 */
(PID.TID 0000.0001)                 6.872224404288860E+04,      /* J = 14 */
(PID.TID 0000.0001)                 6.129895112114272E+04,      /* J = 15 */
(PID.TID 0000.0001)                 5.380097486983529E+04       /* J = 16 */
(PID.TID 0000.0001)     ;
(PID.TID 0000.0001) dyG =  /* dyG(:,1,:,1) ( m - cartesian, degrees - spherical ) */
(PID.TID 0000.0001)    20 @  2.223898532891175E+05              /* I =  1: 20 */
(PID.TID 0000.0001)     ;
(PID.TID 0000.0001) dyG =  /* dyG(1,:,1,:) ( m - cartesian, degrees - spherical ) */
(PID.TID 0000.0001)    16 @  2.223898532891175E+05              /* J =  1: 16 */
(PID.TID 0000.0001)     ;
(PID.TID 0000.0001) dxC =  /* dxC(:,1,:,1) ( m - cartesian, degrees - spherical ) */
(PID.TID 0000.0001)    20 @  1.516695152377177E+05              /* I =  1: 20 */
(PID.TID 0000.0001)     ;
(PID.TID 0000.0001) dxC =  /* dxC(1,:,1,:) ( m - cartesian, degrees - spherical ) */
(PID.TID 0000.0001)                 1.516695152377177E+05,      /* J =  1 */
(PID.TID 0000.0001)                 1.459008712061998E+05,      /* J =  2 */
(PID.TID 0000.0001)                 1.399544694374234E+05,      /* J =  3 */
(PID.TID 0000.0001)                 1.338375547059709E+05,      /* J =  4 */
(PID.TID 0000.0001)                 1.275575795302040E+05,      /* J =  5 */
(PID.TID 0000.0001)                 1.211221950925184E+05,      /* J =  6 */
(PID.TID 0000.0001)                 1.145392419175564E+05,      /* J =  7 */
(PID.TID 0000.0001)                 1.078167403197357E+05,      /* J =  8 */
(PID.TID 0000.0001)                 1.009628806317309E+05,      /* J =  9 */
(PID.TID 0000.0001)                 9.398601322581599E+04,      /* J = 10 */
(PID.TID 0000.0001)                 8.689463834022089E+04,      /* J = 11 */
(PID.TID 0000.0001)                 7.969739572290120E+04,      /* J = 12 */
(PID.TID 0000.0001)                 7.240305410533582E+04,      /* J = 13 */
(PID.TID 0000.0001)                 6.502050051917860E+04,      /* J = 14 */
(PID.TID 0000.0001)                 5.755872946877906E+04,      /* J = 15 */
(PID.TID 0000.0001)                 5.002683197276441E+04       /* J = 16 */
(PID.TID 0000.0001)     ;
(PID.TID 0000.0001) dyC =  /* dyC(:,1,:,1) ( m - cartesian, degrees - spherical ) */
(PID.TID 0000.0001)    20 @  2.223898532891175E+05              /* I =  1: 20 */
(PID.TID 0000.0001)     ;
(PID.TID 0000.0001) dyC =  /* dyC(1,:,1,:) ( m - cartesian, degrees - spherical ) */
(PID.TID 0000.0001)    16 @  2.223898532891175E+05              /* J =  1: 16 */
(PID.TID 0000.0001)     ;
(PID.TID 0000.0001) dxV =  /* dxV(:,1,:,1) ( m - cartesian, degrees - spherical ) */
(PID.TID 0000.0001)    20 @  1.544849730924338E+05              /* I =  1: 20 */
(PID.TID 0000.0001)     ;
(PID.TID 0000.0001) dxV =  /* dxV(1,:,1,:) ( m - cartesian, degrees - spherical ) */
(PID.TID 0000.0001)                 1.544849730924338E+05,      /* J =  1 */
(PID.TID 0000.0001)                 1.488078573794047E+05,      /* J =  2 */
(PID.TID 0000.0001)                 1.429494422142520E+05,      /* J =  3 */
(PID.TID 0000.0001)                 1.369168651734348E+05,      /* J =  4 */
(PID.TID 0000.0001)                 1.307174760228300E+05,      /* J =  5 */
(PID.TID 0000.0001)                 1.243588277631750E+05,      /* J =  6 */
(PID.TID 0000.0001)                 1.178486674278995E+05,      /* J =  7 */
(PID.TID 0000.0001)                 1.111949266445588E+05,      /* J =  8 */
(PID.TID 0000.0001)                 1.044057119713670E+05,      /* J =  9 */
(PID.TID 0000.0001)                 9.748929502060510E+04,      /* J = 10 */
(PID.TID 0000.0001)                 9.045410238093534E+04,      /* J = 11 */
(PID.TID 0000.0001)                 8.330870535090074E+04,      /* J = 12 */
(PID.TID 0000.0001)                 7.606180949611843E+04,      /* J = 13 */
(PID.TID 0000.0001)                 6.872224404288860E+04,      /* J = 14 */
(PID.TID 0000.0001)                 6.129895112114272E+04,      /* J = 15 */
(PID.TID 0000.0001)                 5.380097486983529E+04       /* J = 16 */
(PID.TID 0000.0001)     ;
(PID.TID 0000.0001) dyU =  /* dyU(:,1,:,1) ( m - cartesian, degrees - spherical ) */
(PID.TID 0000.0001)    20 @  2.223898532891175E+05              /* I =  1: 20 */
(PID.TID 0000.0001)     ;
(PID.TID 0000.0001) dyU =  /* dyU(1,:,1,:) ( m - cartesian, degrees - spherical ) */
(PID.TID 0000.0001)    16 @  2.223898532891175E+05              /* J =  1: 16 */
(PID.TID 0000.0001)     ;
(PID.TID 0000.0001) rA =  /* rA(:,1,:,1) ( m - cartesian, degrees - spherical ) */
(PID.TID 0000.0001)    20 @  3.372804882275622E+10              /* I =  1: 20 */
(PID.TID 0000.0001)     ;
(PID.TID 0000.0001) rA =  /* rA(1,:,1,:) ( m - cartesian, degrees - spherical ) */
(PID.TID 0000.0001)                 3.372804882275622E+10,      /* J =  1 */
(PID.TID 0000.0001)                 3.244522605358469E+10,      /* J =  2 */
(PID.TID 0000.0001)                 3.112287377427107E+10,      /* J =  3 */
(PID.TID 0000.0001)                 2.976260306737443E+10,      /* J =  4 */
(PID.TID 0000.0001)                 2.836607121321791E+10,      /* J =  5 */
(PID.TID 0000.0001)                 2.693497967074619E+10,      /* J =  6 */
(PID.TID 0000.0001)                 2.547107200456126E+10,      /* J =  7 */
(PID.TID 0000.0001)                 2.397613176065683E+10,      /* J =  8 */
(PID.TID 0000.0001)                 2.245198029344202E+10,      /* J =  9 */
(PID.TID 0000.0001)                 2.090047454670184E+10,      /* J = 10 */
(PID.TID 0000.0001)                 1.932350479119799E+10,      /* J = 11 */
(PID.TID 0000.0001)                 1.772299232166360E+10,      /* J = 12 */
(PID.TID 0000.0001)                 1.610088711600322E+10,      /* J = 13 */
(PID.TID 0000.0001)                 1.445916545954347E+10,      /* J = 14 */
(PID.TID 0000.0001)                 1.279982753723483E+10,      /* J = 15 */
(PID.TID 0000.0001)                 1.112489499673431E+10       /* J = 16 */
(PID.TID 0000.0001)     ;
(PID.TID 0000.0001) rAw =  /* rAw(:,1,:,1) ( m - cartesian, degrees - spherical ) */
(PID.TID 0000.0001)    20 @  3.372804882275622E+10              /* I =  1: 20 */
(PID.TID 0000.0001)     ;
(PID.TID 0000.0001) rAw =  /* rAw(1,:,1,:) ( m - cartesian, degrees - spherical ) */
(PID.TID 0000.0001)                 3.372804882275622E+10,      /* J =  1 */
(PID.TID 0000.0001)                 3.244522605358469E+10,      /* J =  2 */
(PID.TID 0000.0001)                 3.112287377427107E+10,      /* J =  3 */
(PID.TID 0000.0001)                 2.976260306737443E+10,      /* J =  4 */
(PID.TID 0000.0001)                 2.836607121321791E+10,      /* J =  5 */
(PID.TID 0000.0001)                 2.693497967074619E+10,      /* J =  6 */
(PID.TID 0000.0001)                 2.547107200456126E+10,      /* J =  7 */
(PID.TID 0000.0001)                 2.397613176065683E+10,      /* J =  8 */
(PID.TID 0000.0001)                 2.245198029344202E+10,      /* J =  9 */
(PID.TID 0000.0001)                 2.090047454670184E+10,      /* J = 10 */
(PID.TID 0000.0001)                 1.932350479119799E+10,      /* J = 11 */
(PID.TID 0000.0001)                 1.772299232166360E+10,      /* J = 12 */
(PID.TID 0000.0001)                 1.610088711600322E+10,      /* J = 13 */
(PID.TID 0000.0001)                 1.445916545954347E+10,      /* J = 14 */
(PID.TID 0000.0001)                 1.279982753723483E+10,      /* J = 15 */
(PID.TID 0000.0001)                 1.112489499673431E+10       /* J = 16 */
(PID.TID 0000.0001)     ;
(PID.TID 0000.0001) rAs =  /* rAs(:,1,:,1) ( m - cartesian, degrees - spherical ) */
(PID.TID 0000.0001)    20 @  3.435414629417912E+10              /* I =  1: 20 */
(PID.TID 0000.0001)     ;
(PID.TID 0000.0001) rAs =  /* rAs(1,:,1,:) ( m - cartesian, degrees - spherical ) */
(PID.TID 0000.0001)                 3.435414629417912E+10,      /* J =  1 */
(PID.TID 0000.0001)                 3.309167746093092E+10,      /* J =  2 */
(PID.TID 0000.0001)                 3.178889151607879E+10,      /* J =  3 */
(PID.TID 0000.0001)                 3.044737570361750E+10,      /* J =  4 */
(PID.TID 0000.0001)                 2.906876445392023E+10,      /* J =  5 */
(PID.TID 0000.0001)                 2.765473739243565E+10,      /* J =  6 */
(PID.TID 0000.0001)                 2.620701729332415E+10,      /* J =  7 */
(PID.TID 0000.0001)                 2.472736798052209E+10,      /* J =  8 */
(PID.TID 0000.0001)                 2.321759217879510E+10,      /* J =  9 */
(PID.TID 0000.0001)                 2.167952931739408E+10,      /* J = 10 */
(PID.TID 0000.0001)                 2.011505328899535E+10,      /* J = 11 */
(PID.TID 0000.0001)                 1.852607016665023E+10,      /* J = 12 */
(PID.TID 0000.0001)                 1.691451588152949E+10,      /* J = 13 */
(PID.TID 0000.0001)                 1.528235386428856E+10,      /* J = 14 */
(PID.TID 0000.0001)                 1.363157265293021E+10,      /* J = 15 */
(PID.TID 0000.0001)                 1.196418347007695E+10       /* J = 16 */
(PID.TID 0000.0001)     ;
(PID.TID 0000.0001) 
(PID.TID 0000.0001)  MDSREADFIELD: opening global file: LevCli_temp.labsea
(PID.TID 0000.0001) // =======================================================
(PID.TID 0000.0001) // Field Initial Temperature at iteration          1
(PID.TID 0000.0001) // CMIN =          9.205863475799561E-01
(PID.TID 0000.0001) // CMAX =          1.333307647705078E+01
(PID.TID 0000.0001) // CINT =          4.597218566470676E-01
(PID.TID 0000.0001) // SYMBOLS (CMIN->CMAX): -abcdefghijklmnopqrstuvwxyz+
(PID.TID 0000.0001) //                  0.0: .
(PID.TID 0000.0001) // RANGE I (Lo:Hi:Step):(   1:  20:   1)
(PID.TID 0000.0001) // RANGE J (Lo:Hi:Step):(  16:   1:  -1)
(PID.TID 0000.0001) // RANGE K (Lo:Hi:Step):(   1:   1:   1)
(PID.TID 0000.0001) // =======================================================
(PID.TID 0000.0001) K =   1
(PID.TID 0000.0001)                I=10      I=20
(PID.TID 0000.0001) |--J--|123456789|123456789|
(PID.TID 0000.0001)     16 .----...............
(PID.TID 0000.0001)     15 aabaaaaaaaa.........
(PID.TID 0000.0001)     14 .ccccccbbbbc........
(PID.TID 0000.0001)     13 ....dddddddd........
(PID.TID 0000.0001)     12 ......dcdddddd......
(PID.TID 0000.0001)     11 ........cccdd.......
(PID.TID 0000.0001)     10 .......bbcdddd......
(PID.TID 0000.0001)      9 .......cdeeffff....j
(PID.TID 0000.0001)      8 .....ccdefgghhggh..k
(PID.TID 0000.0001)      7 ......d.fghiiiiiijkl
(PID.TID 0000.0001)      6 .........ghhijjjkklm
(PID.TID 0000.0001)      5 ..........hhhijklmnn
(PID.TID 0000.0001)      4 ............ghikmopq
(PID.TID 0000.0001)      3 ..........k.hhiknqsu
(PID.TID 0000.0001)      2 .......oonm..ijknqux
(PID.TID 0000.0001)      1 ........qponlkklosw+
(PID.TID 0000.0001) // =======================================================
(PID.TID 0000.0001) // END OF FIELD                                          =
(PID.TID 0000.0001) // =======================================================
(PID.TID 0000.0001) 
(PID.TID 0000.0001)  MDSREADFIELD: opening global file: LevCli_salt.labsea
(PID.TID 0000.0001) // =======================================================
(PID.TID 0000.0001) // Field Initial Salinity at iteration          1
(PID.TID 0000.0001) // CMIN =          3.012869834899902E+01
(PID.TID 0000.0001) // CMAX =          3.487366104125977E+01
(PID.TID 0000.0001) // CINT =          1.757393589726201E-01
(PID.TID 0000.0001) // SYMBOLS (CMIN->CMAX): -abcdefghijklmnopqrstuvwxyz+
(PID.TID 0000.0001) //                  0.0: .
(PID.TID 0000.0001) // RANGE I (Lo:Hi:Step):(   1:  20:   1)
(PID.TID 0000.0001) // RANGE J (Lo:Hi:Step):(  16:   1:  -1)
(PID.TID 0000.0001) // RANGE K (Lo:Hi:Step):(   1:   1:   1)
(PID.TID 0000.0001) // =======================================================
(PID.TID 0000.0001) K =   1
(PID.TID 0000.0001)                I=10      I=20
(PID.TID 0000.0001) |--J--|123456789|123456789|
(PID.TID 0000.0001)     16 .nnos...............
(PID.TID 0000.0001)     15 lnoppppppol.........
(PID.TID 0000.0001)     14 .nponmllllmn........
(PID.TID 0000.0001)     13 ....ljhijkmo........
(PID.TID 0000.0001)     12 ......ghjlmors......
(PID.TID 0000.0001)     11 ........jmnpr.......
(PID.TID 0000.0001)     10 .......jlnpqrq......
(PID.TID 0000.0001)      9 .......noqsttts....w
(PID.TID 0000.0001)      8 .....jlnpsuvwwutu..x
(PID.TID 0000.0001)      7 ......j.rruwxyxxwxxy
(PID.TID 0000.0001)      6 .........ppruxyyzzzz
(PID.TID 0000.0001)      5 ..........ijoswyzzzz
(PID.TID 0000.0001)      4 ............iotwyzzz
(PID.TID 0000.0001)      3 ..........g.imquwyzz
(PID.TID 0000.0001)      2 .......-bef..knqtvxz
(PID.TID 0000.0001)      1 ........-cegijlosvy+
(PID.TID 0000.0001) // =======================================================
(PID.TID 0000.0001) // END OF FIELD                                          =
(PID.TID 0000.0001) // =======================================================
(PID.TID 0000.0001) 
(PID.TID 0000.0001) Start initial hydrostatic pressure computation
(PID.TID 0000.0001) Pressure is predetermined for buoyancyRelation OCEANIC
(PID.TID 0000.0001) 
(PID.TID 0000.0001) // =======================================================
(PID.TID 0000.0001) // Field Current CSTICE   at iteration          0
(PID.TID 0000.0001) // CMIN =          2.249510543438649E-01
(PID.TID 0000.0001) // CMAX =          6.819983600624985E-01
(PID.TID 0000.0001) // CINT =          1.692767798957902E-02
(PID.TID 0000.0001) // SYMBOLS (CMIN->CMAX): -abcdefghijklmnopqrstuvwxyz+
(PID.TID 0000.0001) //                  0.0: .
(PID.TID 0000.0001) // RANGE I (Lo:Hi:Step):(  -2:  23:   1)
(PID.TID 0000.0001) // RANGE J (Lo:Hi:Step):(  19:  -2:  -1)
(PID.TID 0000.0001) // RANGE K (Lo:Hi:Step):(   1:   1:   1)
(PID.TID 0000.0001) // =======================================================
(PID.TID 0000.0001) K =   1
(PID.TID 0000.0001)                I=7       I=17
(PID.TID 0000.0001) |--J--|**0123456|890123456|890123
(PID.TID 0000.0001)     19 xxxxxxxxxxxxxxxxxxxxxxxxxx
(PID.TID 0000.0001)     18 yyyyyyyyyyyyyyyyyyyyyyyyyy
(PID.TID 0000.0001)     17 ++++++++++++++++++++++++++
(PID.TID 0000.0001)     16 --------------------------
(PID.TID 0000.0001)     15 bbbbbbbbbbbbbbbbbbbbbbbbbb
(PID.TID 0000.0001)     14 dddddddddddddddddddddddddd
(PID.TID 0000.0001)     13 ffffffffffffffffffffffffff
(PID.TID 0000.0001)     12 hhhhhhhhhhhhhhhhhhhhhhhhhh
(PID.TID 0000.0001)     11 jjjjjjjjjjjjjjjjjjjjjjjjjj
(PID.TID 0000.0001)     10 llllllllllllllllllllllllll
(PID.TID 0000.0001)      9 nnnnnnnnnnnnnnnnnnnnnnnnnn
(PID.TID 0000.0001)      8 oooooooooooooooooooooooooo
(PID.TID 0000.0001)      7 qqqqqqqqqqqqqqqqqqqqqqqqqq
(PID.TID 0000.0001)      6 ssssssssssssssssssssssssss
(PID.TID 0000.0001)      5 uuuuuuuuuuuuuuuuuuuuuuuuuu
(PID.TID 0000.0001)      4 vvvvvvvvvvvvvvvvvvvvvvvvvv
(PID.TID 0000.0001)      3 xxxxxxxxxxxxxxxxxxxxxxxxxx
(PID.TID 0000.0001)      2 yyyyyyyyyyyyyyyyyyyyyyyyyy
(PID.TID 0000.0001)      1 ++++++++++++++++++++++++++
(PID.TID 0000.0001)      0 --------------------------
(PID.TID 0000.0001)     -1 bbbbbbbbbbbbbbbbbbbbbbbbbb
(PID.TID 0000.0001)     -2 dddddddddddddddddddddddddd
(PID.TID 0000.0001) // =======================================================
(PID.TID 0000.0001) // END OF FIELD                                          =
(PID.TID 0000.0001) // =======================================================
(PID.TID 0000.0001) 
(PID.TID 0000.0001) // =======================================================
(PID.TID 0000.0001) // Field Current CSUICE   at iteration          0
(PID.TID 0000.0001) // CMIN =          2.419218955996677E-01
(PID.TID 0000.0001) // CMAX =          6.946583704589973E-01
(PID.TID 0000.0001) // CINT =          1.676801758738258E-02
(PID.TID 0000.0001) // SYMBOLS (CMIN->CMAX): -abcdefghijklmnopqrstuvwxyz+
(PID.TID 0000.0001) //                  0.0: .
(PID.TID 0000.0001) // RANGE I (Lo:Hi:Step):(  -2:  23:   1)
(PID.TID 0000.0001) // RANGE J (Lo:Hi:Step):(  19:  -2:  -1)
(PID.TID 0000.0001) // RANGE K (Lo:Hi:Step):(   1:   1:   1)
(PID.TID 0000.0001) // =======================================================
(PID.TID 0000.0001) K =   1
(PID.TID 0000.0001)                I=7       I=17
(PID.TID 0000.0001) |--J--|**0123456|890123456|890123
(PID.TID 0000.0001)     19 xxxxxxxxxxxxxxxxxxxxxxxxxx
(PID.TID 0000.0001)     18 yyyyyyyyyyyyyyyyyyyyyyyyyy
(PID.TID 0000.0001)     17 ++++++++++++++++++++++++++
(PID.TID 0000.0001)     16 --------------------------
(PID.TID 0000.0001)     15 bbbbbbbbbbbbbbbbbbbbbbbbbb
(PID.TID 0000.0001)     14 dddddddddddddddddddddddddd
(PID.TID 0000.0001)     13 ffffffffffffffffffffffffff
(PID.TID 0000.0001)     12 hhhhhhhhhhhhhhhhhhhhhhhhhh
(PID.TID 0000.0001)     11 jjjjjjjjjjjjjjjjjjjjjjjjjj
(PID.TID 0000.0001)     10 llllllllllllllllllllllllll
(PID.TID 0000.0001)      9 nnnnnnnnnnnnnnnnnnnnnnnnnn
(PID.TID 0000.0001)      8 oooooooooooooooooooooooooo
(PID.TID 0000.0001)      7 qqqqqqqqqqqqqqqqqqqqqqqqqq
(PID.TID 0000.0001)      6 ssssssssssssssssssssssssss
(PID.TID 0000.0001)      5 uuuuuuuuuuuuuuuuuuuuuuuuuu
(PID.TID 0000.0001)      4 vvvvvvvvvvvvvvvvvvvvvvvvvv
(PID.TID 0000.0001)      3 xxxxxxxxxxxxxxxxxxxxxxxxxx
(PID.TID 0000.0001)      2 yyyyyyyyyyyyyyyyyyyyyyyyyy
(PID.TID 0000.0001)      1 ++++++++++++++++++++++++++
(PID.TID 0000.0001)      0 --------------------------
(PID.TID 0000.0001)     -1 bbbbbbbbbbbbbbbbbbbbbbbbbb
(PID.TID 0000.0001)     -2 dddddddddddddddddddddddddd
(PID.TID 0000.0001) // =======================================================
(PID.TID 0000.0001) // END OF FIELD                                          =
(PID.TID 0000.0001) // =======================================================
(PID.TID 0000.0001) 
(PID.TID 0000.0001) // =======================================================
(PID.TID 0000.0001) // Field Current TNGTICE   at iteration          0
(PID.TID 0000.0001) // CMIN =          1.072368710024683E+00
(PID.TID 0000.0001) // CMAX =          4.331475874284157E+00
(PID.TID 0000.0001) // CINT =          1.207076727503509E-01
(PID.TID 0000.0001) // SYMBOLS (CMIN->CMAX): -abcdefghijklmnopqrstuvwxyz+
(PID.TID 0000.0001) //                  0.0: .
(PID.TID 0000.0001) // RANGE I (Lo:Hi:Step):(  -2:  23:   1)
(PID.TID 0000.0001) // RANGE J (Lo:Hi:Step):(  19:  -2:  -1)
(PID.TID 0000.0001) // RANGE K (Lo:Hi:Step):(   1:   1:   1)
(PID.TID 0000.0001) // =======================================================
(PID.TID 0000.0001) K =   1
(PID.TID 0000.0001)                I=7       I=17
(PID.TID 0000.0001) |--J--|**0123456|890123456|890123
(PID.TID 0000.0001)     19 aaaaaaaaaaaaaaaaaaaaaaaaaa
(PID.TID 0000.0001)     18 aaaaaaaaaaaaaaaaaaaaaaaaaa
(PID.TID 0000.0001)     17 --------------------------
(PID.TID 0000.0001)     16 ++++++++++++++++++++++++++
(PID.TID 0000.0001)     15 vvvvvvvvvvvvvvvvvvvvvvvvvv
(PID.TID 0000.0001)     14 rrrrrrrrrrrrrrrrrrrrrrrrrr
(PID.TID 0000.0001)     13 oooooooooooooooooooooooooo
(PID.TID 0000.0001)     12 mmmmmmmmmmmmmmmmmmmmmmmmmm
(PID.TID 0000.0001)     11 kkkkkkkkkkkkkkkkkkkkkkkkkk
(PID.TID 0000.0001)     10 iiiiiiiiiiiiiiiiiiiiiiiiii
(PID.TID 0000.0001)      9 gggggggggggggggggggggggggg
(PID.TID 0000.0001)      8 ffffffffffffffffffffffffff
(PID.TID 0000.0001)      7 eeeeeeeeeeeeeeeeeeeeeeeeee
(PID.TID 0000.0001)      6 dddddddddddddddddddddddddd
(PID.TID 0000.0001)      5 cccccccccccccccccccccccccc
(PID.TID 0000.0001)      4 bbbbbbbbbbbbbbbbbbbbbbbbbb
(PID.TID 0000.0001)      3 aaaaaaaaaaaaaaaaaaaaaaaaaa
(PID.TID 0000.0001)      2 aaaaaaaaaaaaaaaaaaaaaaaaaa
(PID.TID 0000.0001)      1 --------------------------
(PID.TID 0000.0001)      0 ++++++++++++++++++++++++++
(PID.TID 0000.0001)     -1 vvvvvvvvvvvvvvvvvvvvvvvvvv
(PID.TID 0000.0001)     -2 rrrrrrrrrrrrrrrrrrrrrrrrrr
(PID.TID 0000.0001) // =======================================================
(PID.TID 0000.0001) // END OF FIELD                                          =
(PID.TID 0000.0001) // =======================================================
(PID.TID 0000.0001) 
(PID.TID 0000.0001) // =======================================================
(PID.TID 0000.0001) // Field Current TNGICE   at iteration          0
(PID.TID 0000.0001) // CMIN =          1.035530313790569E+00
(PID.TID 0000.0001) // CMAX =          4.010780933535846E+00
(PID.TID 0000.0001) // CINT =          1.101944673979732E-01
(PID.TID 0000.0001) // SYMBOLS (CMIN->CMAX): -abcdefghijklmnopqrstuvwxyz+
(PID.TID 0000.0001) //                  0.0: .
(PID.TID 0000.0001) // RANGE I (Lo:Hi:Step):(  -2:  23:   1)
(PID.TID 0000.0001) // RANGE J (Lo:Hi:Step):(  19:  -2:  -1)
(PID.TID 0000.0001) // RANGE K (Lo:Hi:Step):(   1:   1:   1)
(PID.TID 0000.0001) // =======================================================
(PID.TID 0000.0001) K =   1
(PID.TID 0000.0001)                I=7       I=17
(PID.TID 0000.0001) |--J--|**0123456|890123456|890123
(PID.TID 0000.0001)     19 aaaaaaaaaaaaaaaaaaaaaaaaaa
(PID.TID 0000.0001)     18 aaaaaaaaaaaaaaaaaaaaaaaaaa
(PID.TID 0000.0001)     17 --------------------------
(PID.TID 0000.0001)     16 ++++++++++++++++++++++++++
(PID.TID 0000.0001)     15 vvvvvvvvvvvvvvvvvvvvvvvvvv
(PID.TID 0000.0001)     14 ssssssssssssssssssssssssss
(PID.TID 0000.0001)     13 pppppppppppppppppppppppppp
(PID.TID 0000.0001)     12 mmmmmmmmmmmmmmmmmmmmmmmmmm
(PID.TID 0000.0001)     11 kkkkkkkkkkkkkkkkkkkkkkkkkk
(PID.TID 0000.0001)     10 iiiiiiiiiiiiiiiiiiiiiiiiii
(PID.TID 0000.0001)      9 hhhhhhhhhhhhhhhhhhhhhhhhhh
(PID.TID 0000.0001)      8 ffffffffffffffffffffffffff
(PID.TID 0000.0001)      7 eeeeeeeeeeeeeeeeeeeeeeeeee
(PID.TID 0000.0001)      6 dddddddddddddddddddddddddd
(PID.TID 0000.0001)      5 cccccccccccccccccccccccccc
(PID.TID 0000.0001)      4 bbbbbbbbbbbbbbbbbbbbbbbbbb
(PID.TID 0000.0001)      3 aaaaaaaaaaaaaaaaaaaaaaaaaa
(PID.TID 0000.0001)      2 aaaaaaaaaaaaaaaaaaaaaaaaaa
(PID.TID 0000.0001)      1 --------------------------
(PID.TID 0000.0001)      0 ++++++++++++++++++++++++++
(PID.TID 0000.0001)     -1 vvvvvvvvvvvvvvvvvvvvvvvvvv
(PID.TID 0000.0001)     -2 ssssssssssssssssssssssssss
(PID.TID 0000.0001) // =======================================================
(PID.TID 0000.0001) // END OF FIELD                                          =
(PID.TID 0000.0001) // =======================================================
(PID.TID 0000.0001) 
(PID.TID 0000.0001) // =======================================================
(PID.TID 0000.0001) // Field Current SINEICE   at iteration          0
(PID.TID 0000.0001) // CMIN =          7.193398003386511E-01
(PID.TID 0000.0001) // CMAX =          9.702957262759965E-01
(PID.TID 0000.0001) // CINT =          9.294663923605385E-03
(PID.TID 0000.0001) // SYMBOLS (CMIN->CMAX): -abcdefghijklmnopqrstuvwxyz+
(PID.TID 0000.0001) //                  0.0: .
(PID.TID 0000.0001) // RANGE I (Lo:Hi:Step):(  -2:  23:   1)
(PID.TID 0000.0001) // RANGE J (Lo:Hi:Step):(  19:  -2:  -1)
(PID.TID 0000.0001) // RANGE K (Lo:Hi:Step):(   1:   1:   1)
(PID.TID 0000.0001) // =======================================================
(PID.TID 0000.0001) K =   1
(PID.TID 0000.0001)                I=7       I=17
(PID.TID 0000.0001) |--J--|**0123456|890123456|890123
(PID.TID 0000.0001)     19 eeeeeeeeeeeeeeeeeeeeeeeeee
(PID.TID 0000.0001)     18 cccccccccccccccccccccccccc
(PID.TID 0000.0001)     17 --------------------------
(PID.TID 0000.0001)     16 ++++++++++++++++++++++++++
(PID.TID 0000.0001)     15 zzzzzzzzzzzzzzzzzzzzzzzzzz
(PID.TID 0000.0001)     14 yyyyyyyyyyyyyyyyyyyyyyyyyy
(PID.TID 0000.0001)     13 xxxxxxxxxxxxxxxxxxxxxxxxxx
(PID.TID 0000.0001)     12 vvvvvvvvvvvvvvvvvvvvvvvvvv
(PID.TID 0000.0001)     11 uuuuuuuuuuuuuuuuuuuuuuuuuu
(PID.TID 0000.0001)     10 ssssssssssssssssssssssssss
(PID.TID 0000.0001)      9 rrrrrrrrrrrrrrrrrrrrrrrrrr
(PID.TID 0000.0001)      8 pppppppppppppppppppppppppp
(PID.TID 0000.0001)      7 nnnnnnnnnnnnnnnnnnnnnnnnnn
(PID.TID 0000.0001)      6 llllllllllllllllllllllllll
(PID.TID 0000.0001)      5 jjjjjjjjjjjjjjjjjjjjjjjjjj
(PID.TID 0000.0001)      4 gggggggggggggggggggggggggg
(PID.TID 0000.0001)      3 eeeeeeeeeeeeeeeeeeeeeeeeee
(PID.TID 0000.0001)      2 cccccccccccccccccccccccccc
(PID.TID 0000.0001)      1 --------------------------
(PID.TID 0000.0001)      0 ++++++++++++++++++++++++++
(PID.TID 0000.0001)     -1 zzzzzzzzzzzzzzzzzzzzzzzzzz
(PID.TID 0000.0001)     -2 yyyyyyyyyyyyyyyyyyyyyyyyyy
(PID.TID 0000.0001) // =======================================================
(PID.TID 0000.0001) // END OF FIELD                                          =
(PID.TID 0000.0001) // =======================================================
(PID.TID 0000.0001) 
(PID.TID 0000.0001) // =======================================================
(PID.TID 0000.0001) // Field Current DXTICE   at iteration          0
(PID.TID 0000.0001) // CMIN =          2.223898532891174E+05
(PID.TID 0000.0001) // CMAX =          2.223898532891175E+05
(PID.TID 0000.0001) // CINT =          3.233758939637078E-12
(PID.TID 0000.0001) // SYMBOLS (CMIN->CMAX): -abcdefghijklmnopqrstuvwxyz+
(PID.TID 0000.0001) //                  0.0: .
(PID.TID 0000.0001) // RANGE I (Lo:Hi:Step):(  -2:  23:   1)
(PID.TID 0000.0001) // RANGE J (Lo:Hi:Step):(  19:  -2:  -1)
(PID.TID 0000.0001) // RANGE K (Lo:Hi:Step):(   1:   1:   1)
(PID.TID 0000.0001) // =======================================================
(PID.TID 0000.0001) K =   1
(PID.TID 0000.0001)                I=7       I=17
(PID.TID 0000.0001) |--J--|**0123456|890123456|890123
(PID.TID 0000.0001)     19 iiiiiiiiiiiiiiiiiiiiiiiiii
(PID.TID 0000.0001)     18 rrrrrrrrrrrrrrrrrrrrrrrrrr
(PID.TID 0000.0001)     17 iiiiiiiiiiiiiiiiiiiiiiiiii
(PID.TID 0000.0001)     16 rrrrrrrrrrrrrrrrrrrrrrrrrr
(PID.TID 0000.0001)     15 iiiiiiiiiiiiiiiiiiiiiiiiii
(PID.TID 0000.0001)     14 iiiiiiiiiiiiiiiiiiiiiiiiii
(PID.TID 0000.0001)     13 iiiiiiiiiiiiiiiiiiiiiiiiii
(PID.TID 0000.0001)     12 iiiiiiiiiiiiiiiiiiiiiiiiii
(PID.TID 0000.0001)     11 iiiiiiiiiiiiiiiiiiiiiiiiii
(PID.TID 0000.0001)     10 iiiiiiiiiiiiiiiiiiiiiiiiii
(PID.TID 0000.0001)      9 ++++++++++++++++++++++++++
(PID.TID 0000.0001)      8 iiiiiiiiiiiiiiiiiiiiiiiiii
(PID.TID 0000.0001)      7 iiiiiiiiiiiiiiiiiiiiiiiiii
(PID.TID 0000.0001)      6 iiiiiiiiiiiiiiiiiiiiiiiiii
(PID.TID 0000.0001)      5 --------------------------
(PID.TID 0000.0001)      4 iiiiiiiiiiiiiiiiiiiiiiiiii
(PID.TID 0000.0001)      3 iiiiiiiiiiiiiiiiiiiiiiiiii
(PID.TID 0000.0001)      2 rrrrrrrrrrrrrrrrrrrrrrrrrr
(PID.TID 0000.0001)      1 iiiiiiiiiiiiiiiiiiiiiiiiii
(PID.TID 0000.0001)      0 rrrrrrrrrrrrrrrrrrrrrrrrrr
(PID.TID 0000.0001)     -1 iiiiiiiiiiiiiiiiiiiiiiiiii
(PID.TID 0000.0001)     -2 iiiiiiiiiiiiiiiiiiiiiiiiii
(PID.TID 0000.0001) // =======================================================
(PID.TID 0000.0001) // END OF FIELD                                          =
(PID.TID 0000.0001) // =======================================================
(PID.TID 0000.0001) 
(PID.TID 0000.0001) // =======================================================
(PID.TID 0000.0001) // Field Current DXUICE   at iteration          0
(PID.TID 0000.0001) // CMIN =          2.223898532891175E+05
(PID.TID 0000.0001) // CMAX =          2.223898532891175E+05
(PID.TID 0000.0001) // CINT =          1.077919646545693E-12
(PID.TID 0000.0001) // SYMBOLS (CMIN->CMAX): -abcdefghijklmnopqrstuvwxyz+
(PID.TID 0000.0001) //                  0.0: .
(PID.TID 0000.0001) // RANGE I (Lo:Hi:Step):(  -2:  23:   1)
(PID.TID 0000.0001) // RANGE J (Lo:Hi:Step):(  19:  -2:  -1)
(PID.TID 0000.0001) // RANGE K (Lo:Hi:Step):(   1:   1:   1)
(PID.TID 0000.0001) // =======================================================
(PID.TID 0000.0001) K =   1
(PID.TID 0000.0001)                I=7       I=17
(PID.TID 0000.0001) |--J--|**0123456|890123456|890123
(PID.TID 0000.0001)     19 --------------------------
(PID.TID 0000.0001)     18 --------------------------
(PID.TID 0000.0001)     17 ++++++++++++++++++++++++++
(PID.TID 0000.0001)     16 --------------------------
(PID.TID 0000.0001)     15 ++++++++++++++++++++++++++
(PID.TID 0000.0001)     14 ++++++++++++++++++++++++++
(PID.TID 0000.0001)     13 ++++++++++++++++++++++++++
(PID.TID 0000.0001)     12 --------------------------
(PID.TID 0000.0001)     11 --------------------------
(PID.TID 0000.0001)     10 --------------------------
(PID.TID 0000.0001)      9 --------------------------
(PID.TID 0000.0001)      8 --------------------------
(PID.TID 0000.0001)      7 ++++++++++++++++++++++++++
(PID.TID 0000.0001)      6 ++++++++++++++++++++++++++
(PID.TID 0000.0001)      5 ++++++++++++++++++++++++++
(PID.TID 0000.0001)      4 --------------------------
(PID.TID 0000.0001)      3 --------------------------
(PID.TID 0000.0001)      2 --------------------------
(PID.TID 0000.0001)      1 ++++++++++++++++++++++++++
(PID.TID 0000.0001)      0 --------------------------
(PID.TID 0000.0001)     -1 ++++++++++++++++++++++++++
(PID.TID 0000.0001)     -2 ++++++++++++++++++++++++++
(PID.TID 0000.0001) // =======================================================
(PID.TID 0000.0001) // END OF FIELD                                          =
(PID.TID 0000.0001) // =======================================================
(PID.TID 0000.0001) 
(PID.TID 0000.0001) // =======================================================
(PID.TID 0000.0001) // Field Current DYTICE   at iteration          0
(PID.TID 0000.0001) // CMIN =          2.223898532891175E+05
(PID.TID 0000.0001) // CMAX =          2.223898532891175E+05
(PID.TID 0000.0001) // CINT =          0.000000000000000E+00
(PID.TID 0000.0001) // SYMBOLS (CMIN->CMAX): -abcdefghijklmnopqrstuvwxyz+
(PID.TID 0000.0001) //                  0.0: .
(PID.TID 0000.0001) // RANGE I (Lo:Hi:Step):(  -2:  23:   1)
(PID.TID 0000.0001) // RANGE J (Lo:Hi:Step):(  19:  -2:  -1)
(PID.TID 0000.0001) // RANGE K (Lo:Hi:Step):(   1:   1:   1)
(PID.TID 0000.0001) // =======================================================
(PID.TID 0000.0001) K =   1
(PID.TID 0000.0001)                I=7       I=17
(PID.TID 0000.0001) |--J--|**0123456|890123456|890123
(PID.TID 0000.0001)     19 --------------------------
(PID.TID 0000.0001)     18 --------------------------
(PID.TID 0000.0001)     17 --------------------------
(PID.TID 0000.0001)     16 --------------------------
(PID.TID 0000.0001)     15 --------------------------
(PID.TID 0000.0001)     14 --------------------------
(PID.TID 0000.0001)     13 --------------------------
(PID.TID 0000.0001)     12 --------------------------
(PID.TID 0000.0001)     11 --------------------------
(PID.TID 0000.0001)     10 --------------------------
(PID.TID 0000.0001)      9 --------------------------
(PID.TID 0000.0001)      8 --------------------------
(PID.TID 0000.0001)      7 --------------------------
(PID.TID 0000.0001)      6 --------------------------
(PID.TID 0000.0001)      5 --------------------------
(PID.TID 0000.0001)      4 --------------------------
(PID.TID 0000.0001)      3 --------------------------
(PID.TID 0000.0001)      2 --------------------------
(PID.TID 0000.0001)      1 --------------------------
(PID.TID 0000.0001)      0 --------------------------
(PID.TID 0000.0001)     -1 --------------------------
(PID.TID 0000.0001)     -2 --------------------------
(PID.TID 0000.0001) // =======================================================
(PID.TID 0000.0001) // END OF FIELD                                          =
(PID.TID 0000.0001) // =======================================================
(PID.TID 0000.0001) 
(PID.TID 0000.0001) // =======================================================
(PID.TID 0000.0001) // Field Current DYUICE   at iteration          0
(PID.TID 0000.0001) // CMIN =          2.223898532891175E+05
(PID.TID 0000.0001) // CMAX =          2.223898532891175E+05
(PID.TID 0000.0001) // CINT =          0.000000000000000E+00
(PID.TID 0000.0001) // SYMBOLS (CMIN->CMAX): -abcdefghijklmnopqrstuvwxyz+
(PID.TID 0000.0001) //                  0.0: .
(PID.TID 0000.0001) // RANGE I (Lo:Hi:Step):(  -2:  23:   1)
(PID.TID 0000.0001) // RANGE J (Lo:Hi:Step):(  19:  -2:  -1)
(PID.TID 0000.0001) // RANGE K (Lo:Hi:Step):(   1:   1:   1)
(PID.TID 0000.0001) // =======================================================
(PID.TID 0000.0001) K =   1
(PID.TID 0000.0001)                I=7       I=17
(PID.TID 0000.0001) |--J--|**0123456|890123456|890123
(PID.TID 0000.0001)     19 --------------------------
(PID.TID 0000.0001)     18 --------------------------
(PID.TID 0000.0001)     17 --------------------------
(PID.TID 0000.0001)     16 --------------------------
(PID.TID 0000.0001)     15 --------------------------
(PID.TID 0000.0001)     14 --------------------------
(PID.TID 0000.0001)     13 --------------------------
(PID.TID 0000.0001)     12 --------------------------
(PID.TID 0000.0001)     11 --------------------------
(PID.TID 0000.0001)     10 --------------------------
(PID.TID 0000.0001)      9 --------------------------
(PID.TID 0000.0001)      8 --------------------------
(PID.TID 0000.0001)      7 --------------------------
(PID.TID 0000.0001)      6 --------------------------
(PID.TID 0000.0001)      5 --------------------------
(PID.TID 0000.0001)      4 --------------------------
(PID.TID 0000.0001)      3 --------------------------
(PID.TID 0000.0001)      2 --------------------------
(PID.TID 0000.0001)      1 --------------------------
(PID.TID 0000.0001)      0 --------------------------
(PID.TID 0000.0001)     -1 --------------------------
(PID.TID 0000.0001)     -2 --------------------------
(PID.TID 0000.0001) // =======================================================
(PID.TID 0000.0001) // END OF FIELD                                          =
(PID.TID 0000.0001) // =======================================================
(PID.TID 0000.0001) 
(PID.TID 0000.0001) // =======================================================
(PID.TID 0000.0001) // Field Current HEFFM   at iteration          0
(PID.TID 0000.0001) // CMIN =          1.000000000000000E+00
(PID.TID 0000.0001) // CMAX =          1.000000000000000E+00
(PID.TID 0000.0001) // CINT =          0.000000000000000E+00
(PID.TID 0000.0001) // SYMBOLS (CMIN->CMAX): -abcdefghijklmnopqrstuvwxyz+
(PID.TID 0000.0001) //                  0.0: .
(PID.TID 0000.0001) // RANGE I (Lo:Hi:Step):(  -2:  23:   1)
(PID.TID 0000.0001) // RANGE J (Lo:Hi:Step):(  19:  -2:  -1)
(PID.TID 0000.0001) // RANGE K (Lo:Hi:Step):(   1:   1:   1)
(PID.TID 0000.0001) // =======================================================
(PID.TID 0000.0001) K =   1
(PID.TID 0000.0001)                I=7       I=17
(PID.TID 0000.0001) |--J--|**0123456|890123456|890123
(PID.TID 0000.0001)     19 ---..........-.--------...
(PID.TID 0000.0001)     18 ---.......----..-------...
(PID.TID 0000.0001)     17 ---........------------...
(PID.TID 0000.0001)     16 ....----................--
(PID.TID 0000.0001)     15 ...-----------.........---
(PID.TID 0000.0001)     14 ....-----------.........--
(PID.TID 0000.0001)     13 .......--------...........
(PID.TID 0000.0001)     12 .........--------.........
(PID.TID 0000.0001)     11 ...........-----..........
(PID.TID 0000.0001)     10 ..........-------.........
(PID.TID 0000.0001)      9 ..-.......--------....-...
(PID.TID 0000.0001)      8 ..-.....------------..-...
(PID.TID 0000.0001)      7 ---......-.------------...
(PID.TID 0000.0001)      6 ---.........-----------...
(PID.TID 0000.0001)      5 ---..........----------...
(PID.TID 0000.0001)      4 ---............--------...
(PID.TID 0000.0001)      3 ---..........-.--------...
(PID.TID 0000.0001)      2 ---.......----..-------...
(PID.TID 0000.0001)      1 ---........------------...
(PID.TID 0000.0001)      0 ....----................--
(PID.TID 0000.0001)     -1 ...-----------.........---
(PID.TID 0000.0001)     -2 ....-----------.........--
(PID.TID 0000.0001) // =======================================================
(PID.TID 0000.0001) // END OF FIELD                                          =
(PID.TID 0000.0001) // =======================================================
(PID.TID 0000.0001) 
(PID.TID 0000.0001) // =======================================================
(PID.TID 0000.0001) // Field Current UVM   at iteration          0
(PID.TID 0000.0001) // CMIN =          1.000000000000000E+00
(PID.TID 0000.0001) // CMAX =          1.000000000000000E+00
(PID.TID 0000.0001) // CINT =          0.000000000000000E+00
(PID.TID 0000.0001) // SYMBOLS (CMIN->CMAX): -abcdefghijklmnopqrstuvwxyz+
(PID.TID 0000.0001) //                  0.0: .
(PID.TID 0000.0001) // RANGE I (Lo:Hi:Step):(  -2:  23:   1)
(PID.TID 0000.0001) // RANGE J (Lo:Hi:Step):(  19:  -2:  -1)
(PID.TID 0000.0001) // RANGE K (Lo:Hi:Step):(   1:   1:   1)
(PID.TID 0000.0001) // =======================================================
(PID.TID 0000.0001) K =   1
(PID.TID 0000.0001)                I=7       I=17
(PID.TID 0000.0001) |--J--|**0123456|890123456|890123
(PID.TID 0000.0001)     19 ---..............------...
(PID.TID 0000.0001)     18 ---.........--...------...
(PID.TID 0000.0001)     17 ..........................
(PID.TID 0000.0001)     16 .....---.................-
(PID.TID 0000.0001)     15 .....---------...........-
(PID.TID 0000.0001)     14 ........-------...........
(PID.TID 0000.0001)     13 ..........-----...........
(PID.TID 0000.0001)     12 ............----..........
(PID.TID 0000.0001)     11 ............----..........
(PID.TID 0000.0001)     10 ...........------.........
(PID.TID 0000.0001)      9 ...........-------........
(PID.TID 0000.0001)      8 ............--------......
(PID.TID 0000.0001)      7 ---..........----------...
(PID.TID 0000.0001)      6 ---...........---------...
(PID.TID 0000.0001)      5 ---.............-------...
(PID.TID 0000.0001)      4 ---.............-------...
(PID.TID 0000.0001)      3 ---..............------...
(PID.TID 0000.0001)      2 ---.........--...------...
(PID.TID 0000.0001)      1 ..........................
(PID.TID 0000.0001)      0 .....---.................-
(PID.TID 0000.0001)     -1 .....---------...........-
(PID.TID 0000.0001)     -2 ........-------...........
(PID.TID 0000.0001) // =======================================================
(PID.TID 0000.0001) // END OF FIELD                                          =
(PID.TID 0000.0001) // =======================================================
(PID.TID 0000.0001) 
(PID.TID 0000.0001) // =======================================================
(PID.TID 0000.0001) // Model current state
(PID.TID 0000.0001) // =======================================================
(PID.TID 0000.0001) 
(PID.TID 0000.0001) // =======================================================
(PID.TID 0000.0001) // Begin MONITOR dynamic field statistics
(PID.TID 0000.0001) // =======================================================
(PID.TID 0000.0001) %MON time_tsnumber                =                     0
(PID.TID 0000.0001) %MON time_secondsf                =   0.0000000000000E+00
(PID.TID 0000.0001) %MON dynstat_eta_max              =   0.0000000000000E+00
(PID.TID 0000.0001) %MON dynstat_eta_min              =   0.0000000000000E+00
(PID.TID 0000.0001) %MON dynstat_eta_mean             =   0.0000000000000E+00
(PID.TID 0000.0001) %MON dynstat_eta_sd               =   0.0000000000000E+00
(PID.TID 0000.0001) %MON dynstat_eta_del2             =   0.0000000000000E+00
(PID.TID 0000.0001) %MON dynstat_uvel_max             =   0.0000000000000E+00
(PID.TID 0000.0001) %MON dynstat_uvel_min             =   0.0000000000000E+00
(PID.TID 0000.0001) %MON dynstat_uvel_mean            =   0.0000000000000E+00
(PID.TID 0000.0001) %MON dynstat_uvel_sd              =   0.0000000000000E+00
(PID.TID 0000.0001) %MON dynstat_uvel_del2            =   0.0000000000000E+00
(PID.TID 0000.0001) %MON dynstat_vvel_max             =   0.0000000000000E+00
(PID.TID 0000.0001) %MON dynstat_vvel_min             =   0.0000000000000E+00
(PID.TID 0000.0001) %MON dynstat_vvel_mean            =   0.0000000000000E+00
(PID.TID 0000.0001) %MON dynstat_vvel_sd              =   0.0000000000000E+00
(PID.TID 0000.0001) %MON dynstat_vvel_del2            =   0.0000000000000E+00
(PID.TID 0000.0001) %MON dynstat_wvel_max             =   0.0000000000000E+00
(PID.TID 0000.0001) %MON dynstat_wvel_min             =   0.0000000000000E+00
(PID.TID 0000.0001) %MON dynstat_wvel_mean            =   0.0000000000000E+00
(PID.TID 0000.0001) %MON dynstat_wvel_sd              =   0.0000000000000E+00
(PID.TID 0000.0001) %MON dynstat_wvel_del2            =   0.0000000000000E+00
(PID.TID 0000.0001) %MON dynstat_theta_max            =   1.3333076477051E+01
(PID.TID 0000.0001) %MON dynstat_theta_min            =  -1.4103618860245E+00
(PID.TID 0000.0001) %MON dynstat_theta_mean           =   3.1168426975828E+00
(PID.TID 0000.0001) %MON dynstat_theta_sd             =   1.4047681849177E+00
(PID.TID 0000.0001) %MON dynstat_theta_del2           =   9.7237468258508E-02
(PID.TID 0000.0001) %MON dynstat_salt_max             =   3.5450622558594E+01
(PID.TID 0000.0001) %MON dynstat_salt_min             =   3.0128698348999E+01
(PID.TID 0000.0001) %MON dynstat_salt_mean            =   3.4759355674691E+01
(PID.TID 0000.0001) %MON dynstat_salt_sd              =   4.4306214753982E-01
(PID.TID 0000.0001) %MON dynstat_salt_del2            =   3.8354629598638E-02
(PID.TID 0000.0001) %MON advcfl_uvel_max              =   0.0000000000000E+00
(PID.TID 0000.0001) %MON advcfl_vvel_max              =   0.0000000000000E+00
(PID.TID 0000.0001) %MON advcfl_wvel_max              =   0.0000000000000E+00
(PID.TID 0000.0001) %MON advcfl_W_hf_max              =   0.0000000000000E+00
(PID.TID 0000.0001) %MON pe_b_mean                    =   0.0000000000000E+00
(PID.TID 0000.0001) %MON ke_max                       =   0.0000000000000E+00
(PID.TID 0000.0001) %MON ke_mean                      =   0.0000000000000E+00
(PID.TID 0000.0001) %MON ke_vol                       =   5.3036189546438E+15
(PID.TID 0000.0001) %MON vort_r_min                   =   0.0000000000000E+00
(PID.TID 0000.0001) %MON vort_r_max                   =   0.0000000000000E+00
(PID.TID 0000.0001) %MON vort_a_mean                  =   1.2034316547494E-04
(PID.TID 0000.0001) %MON vort_a_sd                    =   8.7874391288758E-06
(PID.TID 0000.0001) %MON vort_p_mean                  =   1.7686401494479E-04
(PID.TID 0000.0001) %MON vort_p_sd                    =   1.1657305925705E-04
(PID.TID 0000.0001) %MON surfExpan_theta_mean         =   0.0000000000000E+00
(PID.TID 0000.0001) %MON surfExpan_salt_mean          =   0.0000000000000E+00
(PID.TID 0000.0001) // =======================================================
(PID.TID 0000.0001) // End MONITOR dynamic field statistics
(PID.TID 0000.0001) // =======================================================
(PID.TID 0000.0001) 
(PID.TID 0000.0001)  exf_GetFFieldsRec: first, changed, fac:   T   F   0.50000000E+00
(PID.TID 0000.0001)  exf_GetFFieldsRec:      count0, count1:   1   2
(PID.TID 0000.0001) 
(PID.TID 0000.0001)  MDSREADFIELD: opening global file: SSS.labsea
(PID.TID 0000.0001)  MDSREADFIELD: opening global file: SSS.labsea
(PID.TID 0000.0001) 
(PID.TID 0000.0001)  exf_GetFFieldsRec: first, changed, fac:   T   F   0.50000000E+00
(PID.TID 0000.0001)  exf_GetFFieldsRec:      count0, count1:   1   2
(PID.TID 0000.0001) 
(PID.TID 0000.0001)  MDSREADFIELD: opening global file: u10m.labsea79
(PID.TID 0000.0001)  MDSREADFIELD: opening global file: u10m.labsea79
(PID.TID 0000.0001) 
(PID.TID 0000.0001)  exf_GetFFieldsRec: first, changed, fac:   T   F   0.50000000E+00
(PID.TID 0000.0001)  exf_GetFFieldsRec:      count0, count1:   1   2
(PID.TID 0000.0001) 
(PID.TID 0000.0001)  MDSREADFIELD: opening global file: v10m.labsea79
(PID.TID 0000.0001)  MDSREADFIELD: opening global file: v10m.labsea79
(PID.TID 0000.0001) 
(PID.TID 0000.0001)  exf_GetFFieldsRec: first, changed, fac:   T   F   0.50000000E+00
(PID.TID 0000.0001)  exf_GetFFieldsRec:      count0, count1:   1   2
(PID.TID 0000.0001) 
(PID.TID 0000.0001)  MDSREADFIELD: opening global file: tair.labsea1979
(PID.TID 0000.0001)  MDSREADFIELD: opening global file: tair.labsea1979
(PID.TID 0000.0001) 
(PID.TID 0000.0001)  exf_GetFFieldsRec: first, changed, fac:   T   F   0.50000000E+00
(PID.TID 0000.0001)  exf_GetFFieldsRec:      count0, count1:   1   2
(PID.TID 0000.0001) 
(PID.TID 0000.0001)  MDSREADFIELD: opening global file: qa.labsea1979
(PID.TID 0000.0001)  MDSREADFIELD: opening global file: qa.labsea1979
(PID.TID 0000.0001) 
(PID.TID 0000.0001)  exf_GetFFieldsRec: first, changed, fac:   T   F   0.50000000E+00
(PID.TID 0000.0001)  exf_GetFFieldsRec:      count0, count1:   1   2
(PID.TID 0000.0001) 
(PID.TID 0000.0001)  MDSREADFIELD: opening global file: prate.labsea1979
(PID.TID 0000.0001)  MDSREADFIELD: opening global file: prate.labsea1979
(PID.TID 0000.0001) 
(PID.TID 0000.0001)  exf_GetFFieldsRec: first, changed, fac:   T   F   0.50000000E+00
(PID.TID 0000.0001)  exf_GetFFieldsRec:      count0, count1:   1   2
(PID.TID 0000.0001) 
(PID.TID 0000.0001)  MDSREADFIELD: opening global file: evap.labsea1979
(PID.TID 0000.0001)  MDSREADFIELD: opening global file: evap.labsea1979
(PID.TID 0000.0001) 
(PID.TID 0000.0001)  exf_GetFFieldsRec: first, changed, fac:   T   F   0.50000000E+00
(PID.TID 0000.0001)  exf_GetFFieldsRec:      count0, count1:   1   2
(PID.TID 0000.0001) 
(PID.TID 0000.0001)  MDSREADFIELD: opening global file: fsh.labsea1979
(PID.TID 0000.0001)  MDSREADFIELD: opening global file: fsh.labsea1979
(PID.TID 0000.0001) 
(PID.TID 0000.0001)  exf_GetFFieldsRec: first, changed, fac:   T   F   0.50000000E+00
(PID.TID 0000.0001)  exf_GetFFieldsRec:      count0, count1:   1   2
(PID.TID 0000.0001) 
(PID.TID 0000.0001)  MDSREADFIELD: opening global file: flo.labsea1979
(PID.TID 0000.0001)  MDSREADFIELD: opening global file: flo.labsea1979
 U lsr iters, error =     16  1.46456067759426E-11
 V lsr iters, error =     42  9.66634291056992E-11
 U lsr iters, error =     16  1.05018799646112E-11
 V lsr iters, error =     42  5.40221874395855E-11
 cg2d: Sum(rhs),rhsMax =   8.39606162372775E-16  9.82500706957235E-01
(PID.TID 0000.0001)                    cg2d_init_res =    1.61504414485784E+00
(PID.TID 0000.0001)                       cg2d_iters =    35
(PID.TID 0000.0001)                         cg2d_res =    7.09316766572263E-09
(PID.TID 0000.0001) // =======================================================
(PID.TID 0000.0001) // Begin MONITOR dynamic field statistics
(PID.TID 0000.0001) // =======================================================
(PID.TID 0000.0001) %MON time_tsnumber                =                     1
(PID.TID 0000.0001) %MON time_secondsf                =   3.6000000000000E+03
(PID.TID 0000.0001) %MON dynstat_eta_max              =   2.0317246732317E-01
(PID.TID 0000.0001) %MON dynstat_eta_min              =  -7.8930918448682E-02
(PID.TID 0000.0001) %MON dynstat_eta_mean             =  -2.5651566344490E-11
(PID.TID 0000.0001) %MON dynstat_eta_sd               =   4.6479594513611E-02
(PID.TID 0000.0001) %MON dynstat_eta_del2             =   6.3319294708896E-03
(PID.TID 0000.0001) %MON dynstat_uvel_max             =   1.8238406941307E-02
(PID.TID 0000.0001) %MON dynstat_uvel_min             =  -2.1747482854465E-02
(PID.TID 0000.0001) %MON dynstat_uvel_mean            =  -9.6363145613471E-04
(PID.TID 0000.0001) %MON dynstat_uvel_sd              =   2.9370245657274E-03
(PID.TID 0000.0001) %MON dynstat_uvel_del2            =   1.2413603396148E-03
(PID.TID 0000.0001) %MON dynstat_vvel_max             =   2.0246287741798E-02
(PID.TID 0000.0001) %MON dynstat_vvel_min             =  -1.1297772182903E-02
(PID.TID 0000.0001) %MON dynstat_vvel_mean            =  -1.6623641882345E-03
(PID.TID 0000.0001) %MON dynstat_vvel_sd              =   4.3623440910051E-03
(PID.TID 0000.0001) %MON dynstat_vvel_del2            =   9.7336637768905E-04
(PID.TID 0000.0001) %MON dynstat_wvel_max             =   1.1557182587602E-04
(PID.TID 0000.0001) %MON dynstat_wvel_min             =  -4.2894033606418E-05
(PID.TID 0000.0001) %MON dynstat_wvel_mean            =  -3.8531515024177E-22
(PID.TID 0000.0001) %MON dynstat_wvel_sd              =   2.4849141109278E-05
(PID.TID 0000.0001) %MON dynstat_wvel_del2            =   4.8207055252499E-06
(PID.TID 0000.0001) %MON dynstat_theta_max            =   1.2840394514888E+01
(PID.TID 0000.0001) %MON dynstat_theta_min            =  -1.9588605645529E+00
(PID.TID 0000.0001) %MON dynstat_theta_mean           =   3.0756355500084E+00
(PID.TID 0000.0001) %MON dynstat_theta_sd             =   1.3869476557505E+00
(PID.TID 0000.0001) %MON dynstat_theta_del2           =   1.0660169223734E-01
(PID.TID 0000.0001) %MON dynstat_salt_max             =   3.5450601647052E+01
(PID.TID 0000.0001) %MON dynstat_salt_min             =   2.8512838562087E+01
(PID.TID 0000.0001) %MON dynstat_salt_mean            =   3.4740949222677E+01
(PID.TID 0000.0001) %MON dynstat_salt_sd              =   5.2792425310881E-01
(PID.TID 0000.0001) %MON dynstat_salt_del2            =   4.3801711931921E-02
(PID.TID 0000.0001) %MON advcfl_uvel_max              =   1.3601922592565E-03
(PID.TID 0000.0001) %MON advcfl_vvel_max              =   3.2774263210523E-04
(PID.TID 0000.0001) %MON advcfl_wvel_max              =   4.0634493512650E-02
(PID.TID 0000.0001) %MON advcfl_W_hf_max              =   4.1253920282121E-02
(PID.TID 0000.0001) %MON pe_b_mean                    =   7.1219267521454E-06
(PID.TID 0000.0001) %MON ke_max                       =   2.4595152530144E-04
(PID.TID 0000.0001) %MON ke_mean                      =   1.2258064948767E-05
(PID.TID 0000.0001) %MON ke_vol                       =   5.3036189546438E+15
(PID.TID 0000.0001) %MON vort_r_min                   =  -2.9782441805819E-07
(PID.TID 0000.0001) %MON vort_r_max                   =   1.1267955082407E-07
(PID.TID 0000.0001) %MON vort_a_mean                  =   1.2034315621827E-04
(PID.TID 0000.0001) %MON vort_a_sd                    =   8.7865701842981E-06
(PID.TID 0000.0001) %MON vort_p_mean                  =   1.7686400134060E-04
(PID.TID 0000.0001) %MON vort_p_sd                    =   1.1659116546705E-04
(PID.TID 0000.0001) %MON surfExpan_theta_mean         =   4.8784262510041E-06
(PID.TID 0000.0001) %MON surfExpan_salt_mean          =  -4.7178297684947E-06
(PID.TID 0000.0001) // =======================================================
(PID.TID 0000.0001) // End MONITOR dynamic field statistics
(PID.TID 0000.0001) // =======================================================
(PID.TID 0000.0001) 
(PID.TID 0000.0001)  exf_GetFFieldsRec: first, changed, fac:   F   F   0.49863388E+00
(PID.TID 0000.0001)  exf_GetFFieldsRec:      count0, count1:   1   2
(PID.TID 0000.0001) 
(PID.TID 0000.0001) 
(PID.TID 0000.0001)  exf_GetFFieldsRec: first, changed, fac:   F   F   0.49863388E+00
(PID.TID 0000.0001)  exf_GetFFieldsRec:      count0, count1:   1   2
(PID.TID 0000.0001) 
(PID.TID 0000.0001) 
(PID.TID 0000.0001)  exf_GetFFieldsRec: first, changed, fac:   F   F   0.49863388E+00
(PID.TID 0000.0001)  exf_GetFFieldsRec:      count0, count1:   1   2
(PID.TID 0000.0001) 
(PID.TID 0000.0001) 
(PID.TID 0000.0001)  exf_GetFFieldsRec: first, changed, fac:   F   F   0.49863388E+00
(PID.TID 0000.0001)  exf_GetFFieldsRec:      count0, count1:   1   2
(PID.TID 0000.0001) 
(PID.TID 0000.0001) 
(PID.TID 0000.0001)  exf_GetFFieldsRec: first, changed, fac:   F   F   0.49863388E+00
(PID.TID 0000.0001)  exf_GetFFieldsRec:      count0, count1:   1   2
(PID.TID 0000.0001) 
(PID.TID 0000.0001) 
(PID.TID 0000.0001)  exf_GetFFieldsRec: first, changed, fac:   F   F   0.49863388E+00
(PID.TID 0000.0001)  exf_GetFFieldsRec:      count0, count1:   1   2
(PID.TID 0000.0001) 
(PID.TID 0000.0001) 
(PID.TID 0000.0001)  exf_GetFFieldsRec: first, changed, fac:   F   F   0.49863388E+00
(PID.TID 0000.0001)  exf_GetFFieldsRec:      count0, count1:   1   2
(PID.TID 0000.0001) 
(PID.TID 0000.0001) 
(PID.TID 0000.0001)  exf_GetFFieldsRec: first, changed, fac:   F   F   0.49863388E+00
(PID.TID 0000.0001)  exf_GetFFieldsRec:      count0, count1:   1   2
(PID.TID 0000.0001) 
(PID.TID 0000.0001) 
(PID.TID 0000.0001)  exf_GetFFieldsRec: first, changed, fac:   F   F   0.49863388E+00
(PID.TID 0000.0001)  exf_GetFFieldsRec:      count0, count1:   1   2
(PID.TID 0000.0001) 
 U lsr iters, error =     12  7.49501155583587E-12
 V lsr iters, error =     44  4.97192075989247E-11
 U lsr iters, error =     12  1.98679961371795E-12
 V lsr iters, error =     44  8.29205948696399E-11
 cg2d: Sum(rhs),rhsMax =   9.41906067031262E-10  1.20489293445197E+00
(PID.TID 0000.0001)                    cg2d_init_res =    3.48286642190428E-01
(PID.TID 0000.0001)                       cg2d_iters =    32
(PID.TID 0000.0001)                         cg2d_res =    7.68566073033337E-09
(PID.TID 0000.0001) // =======================================================
(PID.TID 0000.0001) // Begin MONITOR dynamic field statistics
(PID.TID 0000.0001) // =======================================================
(PID.TID 0000.0001) %MON time_tsnumber                =                     2
(PID.TID 0000.0001) %MON time_secondsf                =   7.2000000000000E+03
(PID.TID 0000.0001) %MON dynstat_eta_max              =   2.8973694140697E-01
(PID.TID 0000.0001) %MON dynstat_eta_min              =  -1.2974379902732E-01
(PID.TID 0000.0001) %MON dynstat_eta_mean             =   1.3901176822213E-11
(PID.TID 0000.0001) %MON dynstat_eta_sd               =   7.5209783315652E-02
(PID.TID 0000.0001) %MON dynstat_eta_del2             =   7.7380010663986E-03
(PID.TID 0000.0001) %MON dynstat_uvel_max             =   4.3563443919913E-02
(PID.TID 0000.0001) %MON dynstat_uvel_min             =  -4.2267387301958E-02
(PID.TID 0000.0001) %MON dynstat_uvel_mean            =  -8.2600388850687E-04
(PID.TID 0000.0001) %MON dynstat_uvel_sd              =   4.8732315184279E-03
(PID.TID 0000.0001) %MON dynstat_uvel_del2            =   2.0969600814912E-03
(PID.TID 0000.0001) %MON dynstat_vvel_max             =   4.2859702109127E-02
(PID.TID 0000.0001) %MON dynstat_vvel_min             =  -3.2914278220627E-02
(PID.TID 0000.0001) %MON dynstat_vvel_mean            =  -1.5496587870709E-03
(PID.TID 0000.0001) %MON dynstat_vvel_sd              =   7.2189854033260E-03
(PID.TID 0000.0001) %MON dynstat_vvel_del2            =   1.5562331267332E-03
(PID.TID 0000.0001) %MON dynstat_wvel_max             =   1.7696941451567E-04
(PID.TID 0000.0001) %MON dynstat_wvel_min             =  -6.9517244092159E-05
(PID.TID 0000.0001) %MON dynstat_wvel_mean            =   1.5993553465984E-22
(PID.TID 0000.0001) %MON dynstat_wvel_sd              =   3.2871150228671E-05
(PID.TID 0000.0001) %MON dynstat_wvel_del2            =   5.5720748255494E-06
(PID.TID 0000.0001) %MON dynstat_theta_max            =   1.2864033657242E+01
(PID.TID 0000.0001) %MON dynstat_theta_min            =  -1.9641818075998E+00
(PID.TID 0000.0001) %MON dynstat_theta_mean           =   3.0722729307973E+00
(PID.TID 0000.0001) %MON dynstat_theta_sd             =   1.3958950580491E+00
(PID.TID 0000.0001) %MON dynstat_theta_del2           =   1.0287102357275E-01
(PID.TID 0000.0001) %MON dynstat_salt_max             =   3.5450850478385E+01
(PID.TID 0000.0001) %MON dynstat_salt_min             =   2.8929747566798E+01
(PID.TID 0000.0001) %MON dynstat_salt_mean            =   3.4749658141999E+01
(PID.TID 0000.0001) %MON dynstat_salt_sd              =   4.8804250595754E-01
(PID.TID 0000.0001) %MON dynstat_salt_del2            =   4.3316018070600E-02
(PID.TID 0000.0001) %MON advcfl_uvel_max              =   2.0832374173058E-03
(PID.TID 0000.0001) %MON advcfl_vvel_max              =   6.9380381033961E-04
(PID.TID 0000.0001) %MON advcfl_wvel_max              =   1.7312895651806E-02
(PID.TID 0000.0001) %MON advcfl_W_hf_max              =   1.8026167220833E-02
(PID.TID 0000.0001) %MON pe_b_mean                    =   1.8647538666479E-05
(PID.TID 0000.0001) %MON ke_max                       =   9.2243263063630E-04
(PID.TID 0000.0001) %MON ke_mean                      =   3.0872159568006E-05
(PID.TID 0000.0001) %MON ke_vol                       =   5.3036189546438E+15
(PID.TID 0000.0001) %MON vort_r_min                   =  -5.9157721531906E-07
(PID.TID 0000.0001) %MON vort_r_max                   =   2.5539104772578E-07
(PID.TID 0000.0001) %MON vort_a_mean                  =   1.2034316372055E-04
(PID.TID 0000.0001) %MON vort_a_sd                    =   8.7866462966092E-06
(PID.TID 0000.0001) %MON vort_p_mean                  =   1.7686401236644E-04
(PID.TID 0000.0001) %MON vort_p_sd                    =   1.1659677080302E-04
(PID.TID 0000.0001) %MON surfExpan_theta_mean         =   3.0578763957856E-06
(PID.TID 0000.0001) %MON surfExpan_salt_mean          =  -4.7044393913880E-06
(PID.TID 0000.0001) // =======================================================
(PID.TID 0000.0001) // End MONITOR dynamic field statistics
(PID.TID 0000.0001) // =======================================================
(PID.TID 0000.0001) 
(PID.TID 0000.0001)  exf_GetFFieldsRec: first, changed, fac:   F   F   0.49726776E+00
(PID.TID 0000.0001)  exf_GetFFieldsRec:      count0, count1:   1   2
(PID.TID 0000.0001) 
(PID.TID 0000.0001) 
(PID.TID 0000.0001)  exf_GetFFieldsRec: first, changed, fac:   F   F   0.49726776E+00
(PID.TID 0000.0001)  exf_GetFFieldsRec:      count0, count1:   1   2
(PID.TID 0000.0001) 
(PID.TID 0000.0001) 
(PID.TID 0000.0001)  exf_GetFFieldsRec: first, changed, fac:   F   F   0.49726776E+00
(PID.TID 0000.0001)  exf_GetFFieldsRec:      count0, count1:   1   2
(PID.TID 0000.0001) 
(PID.TID 0000.0001) 
(PID.TID 0000.0001)  exf_GetFFieldsRec: first, changed, fac:   F   F   0.49726776E+00
(PID.TID 0000.0001)  exf_GetFFieldsRec:      count0, count1:   1   2
(PID.TID 0000.0001) 
(PID.TID 0000.0001) 
(PID.TID 0000.0001)  exf_GetFFieldsRec: first, changed, fac:   F   F   0.49726776E+00
(PID.TID 0000.0001)  exf_GetFFieldsRec:      count0, count1:   1   2
(PID.TID 0000.0001) 
(PID.TID 0000.0001) 
(PID.TID 0000.0001)  exf_GetFFieldsRec: first, changed, fac:   F   F   0.49726776E+00
(PID.TID 0000.0001)  exf_GetFFieldsRec:      count0, count1:   1   2
(PID.TID 0000.0001) 
(PID.TID 0000.0001) 
(PID.TID 0000.0001)  exf_GetFFieldsRec: first, changed, fac:   F   F   0.49726776E+00
(PID.TID 0000.0001)  exf_GetFFieldsRec:      count0, count1:   1   2
(PID.TID 0000.0001) 
(PID.TID 0000.0001) 
(PID.TID 0000.0001)  exf_GetFFieldsRec: first, changed, fac:   F   F   0.49726776E+00
(PID.TID 0000.0001)  exf_GetFFieldsRec:      count0, count1:   1   2
(PID.TID 0000.0001) 
(PID.TID 0000.0001) 
(PID.TID 0000.0001)  exf_GetFFieldsRec: first, changed, fac:   F   F   0.49726776E+00
(PID.TID 0000.0001)  exf_GetFFieldsRec:      count0, count1:   1   2
(PID.TID 0000.0001) 
 U lsr iters, error =     10  3.68018115981528E-12
 V lsr iters, error =     42  7.32801319625054E-11
 U lsr iters, error =     10  2.13129860981986E-12
 V lsr iters, error =     40  5.91782362317165E-11
 cg2d: Sum(rhs),rhsMax =  -5.02852676165233E-10  1.22307685479528E+00
(PID.TID 0000.0001)                    cg2d_init_res =    2.35159132483634E-01
(PID.TID 0000.0001)                       cg2d_iters =    33
(PID.TID 0000.0001)                         cg2d_res =    7.32469480933304E-09
(PID.TID 0000.0001) // =======================================================
(PID.TID 0000.0001) // Begin MONITOR dynamic field statistics
(PID.TID 0000.0001) // =======================================================
(PID.TID 0000.0001) %MON time_tsnumber                =                     3
(PID.TID 0000.0001) %MON time_secondsf                =   1.0800000000000E+04
(PID.TID 0000.0001) %MON dynstat_eta_max              =   3.1408594409242E-01
(PID.TID 0000.0001) %MON dynstat_eta_min              =  -1.4783027898431E-01
(PID.TID 0000.0001) %MON dynstat_eta_mean             =   2.7688117142321E-11
(PID.TID 0000.0001) %MON dynstat_eta_sd               =   8.6871179757059E-02
(PID.TID 0000.0001) %MON dynstat_eta_del2             =   7.7342736546305E-03
(PID.TID 0000.0001) %MON dynstat_uvel_max             =   5.6838289553305E-02
(PID.TID 0000.0001) %MON dynstat_uvel_min             =  -5.3176914135199E-02
(PID.TID 0000.0001) %MON dynstat_uvel_mean            =  -3.6976465916418E-04
(PID.TID 0000.0001) %MON dynstat_uvel_sd              =   6.2360198670190E-03
(PID.TID 0000.0001) %MON dynstat_uvel_del2            =   2.5961509718057E-03
(PID.TID 0000.0001) %MON dynstat_vvel_max             =   5.9004744597206E-02
(PID.TID 0000.0001) %MON dynstat_vvel_min             =  -5.1266562510238E-02
(PID.TID 0000.0001) %MON dynstat_vvel_mean            =  -8.7948821117795E-04
(PID.TID 0000.0001) %MON dynstat_vvel_sd              =   9.4236061149611E-03
(PID.TID 0000.0001) %MON dynstat_vvel_del2            =   1.8993115673002E-03
(PID.TID 0000.0001) %MON dynstat_wvel_max             =   2.3752023650708E-04
(PID.TID 0000.0001) %MON dynstat_wvel_min             =  -1.1057472209361E-04
(PID.TID 0000.0001) %MON dynstat_wvel_mean            =   5.4508776860207E-22
(PID.TID 0000.0001) %MON dynstat_wvel_sd              =   4.1070266777467E-05
(PID.TID 0000.0001) %MON dynstat_wvel_del2            =   6.4569091331824E-06
(PID.TID 0000.0001) %MON dynstat_theta_max            =   1.1858522745896E+01
(PID.TID 0000.0001) %MON dynstat_theta_min            =  -1.9603271616903E+00
(PID.TID 0000.0001) %MON dynstat_theta_mean           =   3.0722344612227E+00
(PID.TID 0000.0001) %MON dynstat_theta_sd             =   1.3858004636008E+00
(PID.TID 0000.0001) %MON dynstat_theta_del2           =   1.0899645432220E-01
(PID.TID 0000.0001) %MON dynstat_salt_max             =   3.5449936127868E+01
(PID.TID 0000.0001) %MON dynstat_salt_min             =   2.9475074638748E+01
(PID.TID 0000.0001) %MON dynstat_salt_mean            =   3.4750554911849E+01
(PID.TID 0000.0001) %MON dynstat_salt_sd              =   4.7649455926409E-01
(PID.TID 0000.0001) %MON dynstat_salt_del2            =   4.3429185832834E-02
(PID.TID 0000.0001) %MON advcfl_uvel_max              =   2.1100842895365E-03
(PID.TID 0000.0001) %MON advcfl_vvel_max              =   9.5515635002371E-04
(PID.TID 0000.0001) %MON advcfl_wvel_max              =   9.3379913375708E-03
(PID.TID 0000.0001) %MON advcfl_W_hf_max              =   8.7867821168250E-03
(PID.TID 0000.0001) %MON pe_b_mean                    =   2.4878505074529E-05
(PID.TID 0000.0001) %MON ke_max                       =   1.6813333910839E-03
(PID.TID 0000.0001) %MON ke_mean                      =   5.0286413455491E-05
(PID.TID 0000.0001) %MON ke_vol                       =   5.3036189546438E+15
(PID.TID 0000.0001) %MON vort_r_min                   =  -8.1473877773535E-07
(PID.TID 0000.0001) %MON vort_r_max                   =   3.7807907624011E-07
(PID.TID 0000.0001) %MON vort_a_mean                  =   1.2034316332881E-04
(PID.TID 0000.0001) %MON vort_a_sd                    =   8.7870956210534E-06
(PID.TID 0000.0001) %MON vort_p_mean                  =   1.7686401179071E-04
(PID.TID 0000.0001) %MON vort_p_sd                    =   1.1659586394863E-04
(PID.TID 0000.0001) %MON surfExpan_theta_mean         =   1.4669587625727E-06
(PID.TID 0000.0001) %MON surfExpan_salt_mean          =  -2.0439157467677E-06
(PID.TID 0000.0001) // =======================================================
(PID.TID 0000.0001) // End MONITOR dynamic field statistics
(PID.TID 0000.0001) // =======================================================
(PID.TID 0000.0001) 
(PID.TID 0000.0001)  exf_GetFFieldsRec: first, changed, fac:   F   F   0.49590164E+00
(PID.TID 0000.0001)  exf_GetFFieldsRec:      count0, count1:   1   2
(PID.TID 0000.0001) 
(PID.TID 0000.0001) 
(PID.TID 0000.0001)  exf_GetFFieldsRec: first, changed, fac:   F   F   0.49590164E+00
(PID.TID 0000.0001)  exf_GetFFieldsRec:      count0, count1:   1   2
(PID.TID 0000.0001) 
(PID.TID 0000.0001) 
(PID.TID 0000.0001)  exf_GetFFieldsRec: first, changed, fac:   F   F   0.49590164E+00
(PID.TID 0000.0001)  exf_GetFFieldsRec:      count0, count1:   1   2
(PID.TID 0000.0001) 
(PID.TID 0000.0001) 
(PID.TID 0000.0001)  exf_GetFFieldsRec: first, changed, fac:   F   F   0.49590164E+00
(PID.TID 0000.0001)  exf_GetFFieldsRec:      count0, count1:   1   2
(PID.TID 0000.0001) 
(PID.TID 0000.0001) 
(PID.TID 0000.0001)  exf_GetFFieldsRec: first, changed, fac:   F   F   0.49590164E+00
(PID.TID 0000.0001)  exf_GetFFieldsRec:      count0, count1:   1   2
(PID.TID 0000.0001) 
(PID.TID 0000.0001) 
(PID.TID 0000.0001)  exf_GetFFieldsRec: first, changed, fac:   F   F   0.49590164E+00
(PID.TID 0000.0001)  exf_GetFFieldsRec:      count0, count1:   1   2
(PID.TID 0000.0001) 
(PID.TID 0000.0001) 
(PID.TID 0000.0001)  exf_GetFFieldsRec: first, changed, fac:   F   F   0.49590164E+00
(PID.TID 0000.0001)  exf_GetFFieldsRec:      count0, count1:   1   2
(PID.TID 0000.0001) 
(PID.TID 0000.0001) 
(PID.TID 0000.0001)  exf_GetFFieldsRec: first, changed, fac:   F   F   0.49590164E+00
(PID.TID 0000.0001)  exf_GetFFieldsRec:      count0, count1:   1   2
(PID.TID 0000.0001) 
(PID.TID 0000.0001) 
(PID.TID 0000.0001)  exf_GetFFieldsRec: first, changed, fac:   F   F   0.49590164E+00
(PID.TID 0000.0001)  exf_GetFFieldsRec:      count0, count1:   1   2
(PID.TID 0000.0001) 
 U lsr iters, error =     10  1.93169785722702E-12
 V lsr iters, error =     36  8.61335769486546E-11
 U lsr iters, error =     10  1.16659459870050E-12
 V lsr iters, error =     34  9.72777321206226E-11
 cg2d: Sum(rhs),rhsMax =  -1.00736605862517E-09  1.21604185571460E+00
(PID.TID 0000.0001)                    cg2d_init_res =    1.80885635149529E-01
(PID.TID 0000.0001)                       cg2d_iters =    32
(PID.TID 0000.0001)                         cg2d_res =    5.82251898146689E-09
(PID.TID 0000.0001) // =======================================================
(PID.TID 0000.0001) // Begin MONITOR dynamic field statistics
(PID.TID 0000.0001) // =======================================================
(PID.TID 0000.0001) %MON time_tsnumber                =                     4
(PID.TID 0000.0001) %MON time_secondsf                =   1.4400000000000E+04
(PID.TID 0000.0001) %MON dynstat_eta_max              =   3.2065237093239E-01
(PID.TID 0000.0001) %MON dynstat_eta_min              =  -1.4132514893349E-01
(PID.TID 0000.0001) %MON dynstat_eta_mean             =   6.4866632143936E-11
(PID.TID 0000.0001) %MON dynstat_eta_sd               =   8.7612789366437E-02
(PID.TID 0000.0001) %MON dynstat_eta_del2             =   6.9091600697395E-03
(PID.TID 0000.0001) %MON dynstat_uvel_max             =   6.5137876624795E-02
(PID.TID 0000.0001) %MON dynstat_uvel_min             =  -5.1708069764152E-02
(PID.TID 0000.0001) %MON dynstat_uvel_mean            =   1.5192264065131E-04
(PID.TID 0000.0001) %MON dynstat_uvel_sd              =   7.3806019476647E-03
(PID.TID 0000.0001) %MON dynstat_uvel_del2            =   2.9205949634268E-03
(PID.TID 0000.0001) %MON dynstat_vvel_max             =   7.2752177926500E-02
(PID.TID 0000.0001) %MON dynstat_vvel_min             =  -6.5147664127222E-02
(PID.TID 0000.0001) %MON dynstat_vvel_mean            =  -4.7709431924430E-04
(PID.TID 0000.0001) %MON dynstat_vvel_sd              =   1.0774298480987E-02
(PID.TID 0000.0001) %MON dynstat_vvel_del2            =   2.0815499716683E-03
(PID.TID 0000.0001) %MON dynstat_wvel_max             =   3.0064417375726E-04
(PID.TID 0000.0001) %MON dynstat_wvel_min             =  -1.6429869080657E-04
(PID.TID 0000.0001) %MON dynstat_wvel_mean            =  -3.5881409884865E-22
(PID.TID 0000.0001) %MON dynstat_wvel_sd              =   5.0160626616215E-05
(PID.TID 0000.0001) %MON dynstat_wvel_del2            =   7.0940495700386E-06
(PID.TID 0000.0001) %MON dynstat_theta_max            =   1.1828936125430E+01
(PID.TID 0000.0001) %MON dynstat_theta_min            =  -1.9603842031264E+00
(PID.TID 0000.0001) %MON dynstat_theta_mean           =   3.0721525154710E+00
(PID.TID 0000.0001) %MON dynstat_theta_sd             =   1.3837984829129E+00
(PID.TID 0000.0001) %MON dynstat_theta_del2           =   1.1383809936852E-01
(PID.TID 0000.0001) %MON dynstat_salt_max             =   3.5450027202719E+01
(PID.TID 0000.0001) %MON dynstat_salt_min             =   2.9655599807725E+01
(PID.TID 0000.0001) %MON dynstat_salt_mean            =   3.4750529886456E+01
(PID.TID 0000.0001) %MON dynstat_salt_sd              =   4.7599372683547E-01
(PID.TID 0000.0001) %MON dynstat_salt_del2            =   4.2788979578307E-02
(PID.TID 0000.0001) %MON advcfl_uvel_max              =   1.8383568950815E-03
(PID.TID 0000.0001) %MON advcfl_vvel_max              =   1.1776968987650E-03
(PID.TID 0000.0001) %MON advcfl_wvel_max              =   6.2419090348114E-03
(PID.TID 0000.0001) %MON advcfl_W_hf_max              =   7.9195153306945E-03
(PID.TID 0000.0001) %MON pe_b_mean                    =   2.5305088249132E-05
(PID.TID 0000.0001) %MON ke_max                       =   2.6959877876038E-03
(PID.TID 0000.0001) %MON ke_mean                      =   6.6804823884674E-05
(PID.TID 0000.0001) %MON ke_vol                       =   5.3036189546438E+15
(PID.TID 0000.0001) %MON vort_r_min                   =  -9.1252697694582E-07
(PID.TID 0000.0001) %MON vort_r_max                   =   4.8421468773448E-07
(PID.TID 0000.0001) %MON vort_a_mean                  =   1.2034316101129E-04
(PID.TID 0000.0001) %MON vort_a_sd                    =   8.7876348716850E-06
(PID.TID 0000.0001) %MON vort_p_mean                  =   1.7686400838473E-04
(PID.TID 0000.0001) %MON vort_p_sd                    =   1.1659072259746E-04
(PID.TID 0000.0001) %MON surfExpan_theta_mean         =   3.2340174685071E-06
(PID.TID 0000.0001) %MON surfExpan_salt_mean          =   2.8509604429468E-07
(PID.TID 0000.0001) // =======================================================
(PID.TID 0000.0001) // End MONITOR dynamic field statistics
(PID.TID 0000.0001) // =======================================================
(PID.TID 0000.0001) 
(PID.TID 0000.0001)  exf_GetFFieldsRec: first, changed, fac:   F   F   0.49453552E+00
(PID.TID 0000.0001)  exf_GetFFieldsRec:      count0, count1:   1   2
(PID.TID 0000.0001) 
(PID.TID 0000.0001) 
(PID.TID 0000.0001)  exf_GetFFieldsRec: first, changed, fac:   F   F   0.49453552E+00
(PID.TID 0000.0001)  exf_GetFFieldsRec:      count0, count1:   1   2
(PID.TID 0000.0001) 
(PID.TID 0000.0001) 
(PID.TID 0000.0001)  exf_GetFFieldsRec: first, changed, fac:   F   F   0.49453552E+00
(PID.TID 0000.0001)  exf_GetFFieldsRec:      count0, count1:   1   2
(PID.TID 0000.0001) 
(PID.TID 0000.0001) 
(PID.TID 0000.0001)  exf_GetFFieldsRec: first, changed, fac:   F   F   0.49453552E+00
(PID.TID 0000.0001)  exf_GetFFieldsRec:      count0, count1:   1   2
(PID.TID 0000.0001) 
(PID.TID 0000.0001) 
(PID.TID 0000.0001)  exf_GetFFieldsRec: first, changed, fac:   F   F   0.49453552E+00
(PID.TID 0000.0001)  exf_GetFFieldsRec:      count0, count1:   1   2
(PID.TID 0000.0001) 
(PID.TID 0000.0001) 
(PID.TID 0000.0001)  exf_GetFFieldsRec: first, changed, fac:   F   F   0.49453552E+00
(PID.TID 0000.0001)  exf_GetFFieldsRec:      count0, count1:   1   2
(PID.TID 0000.0001) 
(PID.TID 0000.0001) 
(PID.TID 0000.0001)  exf_GetFFieldsRec: first, changed, fac:   F   F   0.49453552E+00
(PID.TID 0000.0001)  exf_GetFFieldsRec:      count0, count1:   1   2
(PID.TID 0000.0001) 
(PID.TID 0000.0001) 
(PID.TID 0000.0001)  exf_GetFFieldsRec: first, changed, fac:   F   F   0.49453552E+00
(PID.TID 0000.0001)  exf_GetFFieldsRec:      count0, count1:   1   2
(PID.TID 0000.0001) 
(PID.TID 0000.0001) 
(PID.TID 0000.0001)  exf_GetFFieldsRec: first, changed, fac:   F   F   0.49453552E+00
(PID.TID 0000.0001)  exf_GetFFieldsRec:      count0, count1:   1   2
(PID.TID 0000.0001) 
 U lsr iters, error =     10  9.32587340685131E-13
 V lsr iters, error =     36  5.18790091181415E-11
 U lsr iters, error =     10  8.86346551709494E-13
 V lsr iters, error =     34  6.37703736252595E-11
 cg2d: Sum(rhs),rhsMax =  -2.37190688617828E-09  1.20994684250996E+00
(PID.TID 0000.0001)                    cg2d_init_res =    1.10985729406446E-01
(PID.TID 0000.0001)                       cg2d_iters =    31
(PID.TID 0000.0001)                         cg2d_res =    9.67583137814497E-09
(PID.TID 0000.0001) // =======================================================
(PID.TID 0000.0001) // Begin MONITOR dynamic field statistics
(PID.TID 0000.0001) // =======================================================
(PID.TID 0000.0001) %MON time_tsnumber                =                     5
(PID.TID 0000.0001) %MON time_secondsf                =   1.8000000000000E+04
(PID.TID 0000.0001) %MON dynstat_eta_max              =   3.2352784417128E-01
(PID.TID 0000.0001) %MON dynstat_eta_min              =  -1.3360722161314E-01
(PID.TID 0000.0001) %MON dynstat_eta_mean             =   9.3510944470196E-11
(PID.TID 0000.0001) %MON dynstat_eta_sd               =   8.3759985262770E-02
(PID.TID 0000.0001) %MON dynstat_eta_del2             =   6.7060405598893E-03
(PID.TID 0000.0001) %MON dynstat_uvel_max             =   7.9742019126149E-02
(PID.TID 0000.0001) %MON dynstat_uvel_min             =  -4.3383697118750E-02
(PID.TID 0000.0001) %MON dynstat_uvel_mean            =   4.6259300701016E-04
(PID.TID 0000.0001) %MON dynstat_uvel_sd              =   8.4312234264866E-03
(PID.TID 0000.0001) %MON dynstat_uvel_del2            =   3.0573650916876E-03
(PID.TID 0000.0001) %MON dynstat_vvel_max             =   8.1277893675395E-02
(PID.TID 0000.0001) %MON dynstat_vvel_min             =  -7.2035455982918E-02
(PID.TID 0000.0001) %MON dynstat_vvel_mean            =  -2.8289788886819E-04
(PID.TID 0000.0001) %MON dynstat_vvel_sd              =   1.1233639951765E-02
(PID.TID 0000.0001) %MON dynstat_vvel_del2            =   2.2188780269542E-03
(PID.TID 0000.0001) %MON dynstat_wvel_max             =   3.5462216182974E-04
(PID.TID 0000.0001) %MON dynstat_wvel_min             =  -2.2837043871409E-04
(PID.TID 0000.0001) %MON dynstat_wvel_mean            =   1.7310098184442E-21
(PID.TID 0000.0001) %MON dynstat_wvel_sd              =   5.8176035029929E-05
(PID.TID 0000.0001) %MON dynstat_wvel_del2            =   6.8370376970078E-06
(PID.TID 0000.0001) %MON dynstat_theta_max            =   1.1823611928604E+01
(PID.TID 0000.0001) %MON dynstat_theta_min            =  -1.9591012482271E+00
(PID.TID 0000.0001) %MON dynstat_theta_mean           =   3.0713903321056E+00
(PID.TID 0000.0001) %MON dynstat_theta_sd             =   1.3853423173130E+00
(PID.TID 0000.0001) %MON dynstat_theta_del2           =   1.1491633648164E-01
(PID.TID 0000.0001) %MON dynstat_salt_max             =   3.5450061578780E+01
(PID.TID 0000.0001) %MON dynstat_salt_min             =   2.9764282848154E+01
(PID.TID 0000.0001) %MON dynstat_salt_mean            =   3.4750031936163E+01
(PID.TID 0000.0001) %MON dynstat_salt_sd              =   4.7881095073486E-01
(PID.TID 0000.0001) %MON dynstat_salt_del2            =   4.3381583098989E-02
(PID.TID 0000.0001) %MON advcfl_uvel_max              =   1.9675774824430E-03
(PID.TID 0000.0001) %MON advcfl_vvel_max              =   1.3157093855853E-03
(PID.TID 0000.0001) %MON advcfl_wvel_max              =   6.7210608004402E-03
(PID.TID 0000.0001) %MON advcfl_W_hf_max              =   9.1592037988932E-03
(PID.TID 0000.0001) %MON pe_b_mean                    =   2.3128423231432E-05
(PID.TID 0000.0001) %MON ke_max                       =   3.8893651059397E-03
(PID.TID 0000.0001) %MON ke_mean                      =   7.7317858992968E-05
(PID.TID 0000.0001) %MON ke_vol                       =   5.3036189546438E+15
(PID.TID 0000.0001) %MON vort_r_min                   =  -8.7542884758527E-07
(PID.TID 0000.0001) %MON vort_r_max                   =   5.2817588171857E-07
(PID.TID 0000.0001) %MON vort_a_mean                  =   1.2034315793814E-04
(PID.TID 0000.0001) %MON vort_a_sd                    =   8.7879900757695E-06
(PID.TID 0000.0001) %MON vort_p_mean                  =   1.7686400386824E-04
(PID.TID 0000.0001) %MON vort_p_sd                    =   1.1658428241273E-04
(PID.TID 0000.0001) %MON surfExpan_theta_mean         =   4.1512943757017E-06
(PID.TID 0000.0001) %MON surfExpan_salt_mean          =   1.7311258725692E-06
(PID.TID 0000.0001) // =======================================================
(PID.TID 0000.0001) // End MONITOR dynamic field statistics
(PID.TID 0000.0001) // =======================================================
(PID.TID 0000.0001) 
(PID.TID 0000.0001)  exf_GetFFieldsRec: first, changed, fac:   F   F   0.49316940E+00
(PID.TID 0000.0001)  exf_GetFFieldsRec:      count0, count1:   1   2
(PID.TID 0000.0001) 
(PID.TID 0000.0001) 
(PID.TID 0000.0001)  exf_GetFFieldsRec: first, changed, fac:   F   F   0.49316940E+00
(PID.TID 0000.0001)  exf_GetFFieldsRec:      count0, count1:   1   2
(PID.TID 0000.0001) 
(PID.TID 0000.0001) 
(PID.TID 0000.0001)  exf_GetFFieldsRec: first, changed, fac:   F   F   0.49316940E+00
(PID.TID 0000.0001)  exf_GetFFieldsRec:      count0, count1:   1   2
(PID.TID 0000.0001) 
(PID.TID 0000.0001) 
(PID.TID 0000.0001)  exf_GetFFieldsRec: first, changed, fac:   F   F   0.49316940E+00
(PID.TID 0000.0001)  exf_GetFFieldsRec:      count0, count1:   1   2
(PID.TID 0000.0001) 
(PID.TID 0000.0001) 
(PID.TID 0000.0001)  exf_GetFFieldsRec: first, changed, fac:   F   F   0.49316940E+00
(PID.TID 0000.0001)  exf_GetFFieldsRec:      count0, count1:   1   2
(PID.TID 0000.0001) 
(PID.TID 0000.0001) 
(PID.TID 0000.0001)  exf_GetFFieldsRec: first, changed, fac:   F   F   0.49316940E+00
(PID.TID 0000.0001)  exf_GetFFieldsRec:      count0, count1:   1   2
(PID.TID 0000.0001) 
(PID.TID 0000.0001) 
(PID.TID 0000.0001)  exf_GetFFieldsRec: first, changed, fac:   F   F   0.49316940E+00
(PID.TID 0000.0001)  exf_GetFFieldsRec:      count0, count1:   1   2
(PID.TID 0000.0001) 
(PID.TID 0000.0001) 
(PID.TID 0000.0001)  exf_GetFFieldsRec: first, changed, fac:   F   F   0.49316940E+00
(PID.TID 0000.0001)  exf_GetFFieldsRec:      count0, count1:   1   2
(PID.TID 0000.0001) 
(PID.TID 0000.0001) 
(PID.TID 0000.0001)  exf_GetFFieldsRec: first, changed, fac:   F   F   0.49316940E+00
(PID.TID 0000.0001)  exf_GetFFieldsRec:      count0, count1:   1   2
(PID.TID 0000.0001) 
 U lsr iters, error =     10  8.11684053303452E-13
 V lsr iters, error =     38  7.10005456120918E-11
 U lsr iters, error =     10  5.05720465504567E-13
 V lsr iters, error =     38  6.16769303002102E-11
 cg2d: Sum(rhs),rhsMax =  -3.43673592015370E-09  1.20381206692526E+00
(PID.TID 0000.0001)                    cg2d_init_res =    1.12818744565272E-01
(PID.TID 0000.0001)                       cg2d_iters =    31
(PID.TID 0000.0001)                         cg2d_res =    9.66566274325964E-09
(PID.TID 0000.0001) // =======================================================
(PID.TID 0000.0001) // Begin MONITOR dynamic field statistics
(PID.TID 0000.0001) // =======================================================
(PID.TID 0000.0001) %MON time_tsnumber                =                     6
(PID.TID 0000.0001) %MON time_secondsf                =   2.1600000000000E+04
(PID.TID 0000.0001) %MON dynstat_eta_max              =   3.2506032854373E-01
(PID.TID 0000.0001) %MON dynstat_eta_min              =  -1.2809001417737E-01
(PID.TID 0000.0001) %MON dynstat_eta_mean             =   1.1848087411460E-10
(PID.TID 0000.0001) %MON dynstat_eta_sd               =   7.8899218252431E-02
(PID.TID 0000.0001) %MON dynstat_eta_del2             =   6.8199895383667E-03
(PID.TID 0000.0001) %MON dynstat_uvel_max             =   9.6517475293185E-02
(PID.TID 0000.0001) %MON dynstat_uvel_min             =  -4.2705288731425E-02
(PID.TID 0000.0001) %MON dynstat_uvel_mean            =   5.1578161127946E-04
(PID.TID 0000.0001) %MON dynstat_uvel_sd              =   9.3551966349324E-03
(PID.TID 0000.0001) %MON dynstat_uvel_del2            =   3.0258374982510E-03
(PID.TID 0000.0001) %MON dynstat_vvel_max             =   8.2870280108127E-02
(PID.TID 0000.0001) %MON dynstat_vvel_min             =  -7.7775240703271E-02
(PID.TID 0000.0001) %MON dynstat_vvel_mean            =  -1.8152607854879E-04
(PID.TID 0000.0001) %MON dynstat_vvel_sd              =   1.0869620554156E-02
(PID.TID 0000.0001) %MON dynstat_vvel_del2            =   2.3793664791613E-03
(PID.TID 0000.0001) %MON dynstat_wvel_max             =   3.8699917047741E-04
(PID.TID 0000.0001) %MON dynstat_wvel_min             =  -2.8131187493973E-04
(PID.TID 0000.0001) %MON dynstat_wvel_mean            =  -3.0428540999628E-22
(PID.TID 0000.0001) %MON dynstat_wvel_sd              =   6.3879456128512E-05
(PID.TID 0000.0001) %MON dynstat_wvel_del2            =   6.0460575546038E-06
(PID.TID 0000.0001) %MON dynstat_theta_max            =   1.1820009286449E+01
(PID.TID 0000.0001) %MON dynstat_theta_min            =  -1.9603998393581E+00
(PID.TID 0000.0001) %MON dynstat_theta_mean           =   3.0710286522620E+00
(PID.TID 0000.0001) %MON dynstat_theta_sd             =   1.3861041597299E+00
(PID.TID 0000.0001) %MON dynstat_theta_del2           =   1.1445699803523E-01
(PID.TID 0000.0001) %MON dynstat_salt_max             =   3.5450072480570E+01
(PID.TID 0000.0001) %MON dynstat_salt_min             =   2.9845239297629E+01
(PID.TID 0000.0001) %MON dynstat_salt_mean            =   3.4749999508857E+01
(PID.TID 0000.0001) %MON dynstat_salt_sd              =   4.7893629427913E-01
(PID.TID 0000.0001) %MON dynstat_salt_del2            =   4.3613994450149E-02
(PID.TID 0000.0001) %MON advcfl_uvel_max              =   2.3814999059492E-03
(PID.TID 0000.0001) %MON advcfl_vvel_max              =   1.3414866010160E-03
(PID.TID 0000.0001) %MON advcfl_wvel_max              =   7.2308204470292E-03
(PID.TID 0000.0001) %MON advcfl_W_hf_max              =   9.8782401022153E-03
(PID.TID 0000.0001) %MON pe_b_mean                    =   2.0521931884387E-05
(PID.TID 0000.0001) %MON ke_max                       =   4.8432407133893E-03
(PID.TID 0000.0001) %MON ke_mean                      =   8.0675923492023E-05
(PID.TID 0000.0001) %MON ke_vol                       =   5.3036189546438E+15
(PID.TID 0000.0001) %MON vort_r_min                   =  -7.1901894320133E-07
(PID.TID 0000.0001) %MON vort_r_max                   =   5.0594506749184E-07
(PID.TID 0000.0001) %MON vort_a_mean                  =   1.2034315485117E-04
(PID.TID 0000.0001) %MON vort_a_sd                    =   8.7881017016099E-06
(PID.TID 0000.0001) %MON vort_p_mean                  =   1.7686399933143E-04
(PID.TID 0000.0001) %MON vort_p_sd                    =   1.1657807143924E-04
(PID.TID 0000.0001) %MON surfExpan_theta_mean         =   3.9831666686395E-06
(PID.TID 0000.0001) %MON surfExpan_salt_mean          =   2.1062694024762E-06
(PID.TID 0000.0001) // =======================================================
(PID.TID 0000.0001) // End MONITOR dynamic field statistics
(PID.TID 0000.0001) // =======================================================
(PID.TID 0000.0001) 
(PID.TID 0000.0001)  exf_GetFFieldsRec: first, changed, fac:   F   F   0.49180328E+00
(PID.TID 0000.0001)  exf_GetFFieldsRec:      count0, count1:   1   2
(PID.TID 0000.0001) 
(PID.TID 0000.0001) 
(PID.TID 0000.0001)  exf_GetFFieldsRec: first, changed, fac:   F   F   0.49180328E+00
(PID.TID 0000.0001)  exf_GetFFieldsRec:      count0, count1:   1   2
(PID.TID 0000.0001) 
(PID.TID 0000.0001) 
(PID.TID 0000.0001)  exf_GetFFieldsRec: first, changed, fac:   F   F   0.49180328E+00
(PID.TID 0000.0001)  exf_GetFFieldsRec:      count0, count1:   1   2
(PID.TID 0000.0001) 
(PID.TID 0000.0001) 
(PID.TID 0000.0001)  exf_GetFFieldsRec: first, changed, fac:   F   F   0.49180328E+00
(PID.TID 0000.0001)  exf_GetFFieldsRec:      count0, count1:   1   2
(PID.TID 0000.0001) 
(PID.TID 0000.0001) 
(PID.TID 0000.0001)  exf_GetFFieldsRec: first, changed, fac:   F   F   0.49180328E+00
(PID.TID 0000.0001)  exf_GetFFieldsRec:      count0, count1:   1   2
(PID.TID 0000.0001) 
(PID.TID 0000.0001) 
(PID.TID 0000.0001)  exf_GetFFieldsRec: first, changed, fac:   F   F   0.49180328E+00
(PID.TID 0000.0001)  exf_GetFFieldsRec:      count0, count1:   1   2
(PID.TID 0000.0001) 
(PID.TID 0000.0001) 
(PID.TID 0000.0001)  exf_GetFFieldsRec: first, changed, fac:   F   F   0.49180328E+00
(PID.TID 0000.0001)  exf_GetFFieldsRec:      count0, count1:   1   2
(PID.TID 0000.0001) 
(PID.TID 0000.0001) 
(PID.TID 0000.0001)  exf_GetFFieldsRec: first, changed, fac:   F   F   0.49180328E+00
(PID.TID 0000.0001)  exf_GetFFieldsRec:      count0, count1:   1   2
(PID.TID 0000.0001) 
(PID.TID 0000.0001) 
(PID.TID 0000.0001)  exf_GetFFieldsRec: first, changed, fac:   F   F   0.49180328E+00
(PID.TID 0000.0001)  exf_GetFFieldsRec:      count0, count1:   1   2
(PID.TID 0000.0001) 
 U lsr iters, error =      8  4.27760313607105E-11
 V lsr iters, error =     40  7.05100623070790E-11
 U lsr iters, error =      8  3.24050636178090E-11
 V lsr iters, error =     38  5.72119283372141E-11
 cg2d: Sum(rhs),rhsMax =  -4.38197600774459E-09  1.19624694987836E+00
(PID.TID 0000.0001)                    cg2d_init_res =    7.23644492102335E-02
(PID.TID 0000.0001)                       cg2d_iters =    31
(PID.TID 0000.0001)                         cg2d_res =    7.81598049593746E-09
(PID.TID 0000.0001) // =======================================================
(PID.TID 0000.0001) // Begin MONITOR dynamic field statistics
(PID.TID 0000.0001) // =======================================================
(PID.TID 0000.0001) %MON time_tsnumber                =                     7
(PID.TID 0000.0001) %MON time_secondsf                =   2.5200000000000E+04
(PID.TID 0000.0001) %MON dynstat_eta_max              =   3.2370043198242E-01
(PID.TID 0000.0001) %MON dynstat_eta_min              =  -1.2098592137279E-01
(PID.TID 0000.0001) %MON dynstat_eta_mean             =   1.7433372404471E-10
(PID.TID 0000.0001) %MON dynstat_eta_sd               =   7.4256382085547E-02
(PID.TID 0000.0001) %MON dynstat_eta_del2             =   6.9205172993491E-03
(PID.TID 0000.0001) %MON dynstat_uvel_max             =   1.0746405735175E-01
(PID.TID 0000.0001) %MON dynstat_uvel_min             =  -4.1756734903070E-02
(PID.TID 0000.0001) %MON dynstat_uvel_mean            =   4.0983115980525E-04
(PID.TID 0000.0001) %MON dynstat_uvel_sd              =   1.0034683533428E-02
(PID.TID 0000.0001) %MON dynstat_uvel_del2            =   2.9074297021545E-03
(PID.TID 0000.0001) %MON dynstat_vvel_max             =   7.7755564120272E-02
(PID.TID 0000.0001) %MON dynstat_vvel_min             =  -8.4587801736929E-02
(PID.TID 0000.0001) %MON dynstat_vvel_mean            =  -7.4057102382640E-05
(PID.TID 0000.0001) %MON dynstat_vvel_sd              =   9.8604565767673E-03
(PID.TID 0000.0001) %MON dynstat_vvel_del2            =   2.5124914236806E-03
(PID.TID 0000.0001) %MON dynstat_wvel_max             =   3.9227429680656E-04
(PID.TID 0000.0001) %MON dynstat_wvel_min             =  -3.1585660731001E-04
(PID.TID 0000.0001) %MON dynstat_wvel_mean            =  -2.1611601377152E-22
(PID.TID 0000.0001) %MON dynstat_wvel_sd              =   6.6658569945886E-05
(PID.TID 0000.0001) %MON dynstat_wvel_del2            =   5.5615804754509E-06
(PID.TID 0000.0001) %MON dynstat_theta_max            =   1.1817301165007E+01
(PID.TID 0000.0001) %MON dynstat_theta_min            =  -1.9612240533279E+00
(PID.TID 0000.0001) %MON dynstat_theta_mean           =   3.0709810796159E+00
(PID.TID 0000.0001) %MON dynstat_theta_sd             =   1.3857788801504E+00
(PID.TID 0000.0001) %MON dynstat_theta_del2           =   1.1444995303819E-01
(PID.TID 0000.0001) %MON dynstat_salt_max             =   3.5450052979996E+01
(PID.TID 0000.0001) %MON dynstat_salt_min             =   2.9872722441049E+01
(PID.TID 0000.0001) %MON dynstat_salt_mean            =   3.4750082850117E+01
(PID.TID 0000.0001) %MON dynstat_salt_sd              =   4.7823446519908E-01
(PID.TID 0000.0001) %MON dynstat_salt_del2            =   4.3099342396050E-02
(PID.TID 0000.0001) %MON advcfl_uvel_max              =   2.6515990156051E-03
(PID.TID 0000.0001) %MON advcfl_vvel_max              =   1.3692894785854E-03
(PID.TID 0000.0001) %MON advcfl_wvel_max              =   8.2414145084193E-03
(PID.TID 0000.0001) %MON advcfl_W_hf_max              =   9.8866883367951E-03
(PID.TID 0000.0001) %MON pe_b_mean                    =   1.8177761999717E-05
(PID.TID 0000.0001) %MON ke_max                       =   5.3161678105196E-03
(PID.TID 0000.0001) %MON ke_mean                      =   7.7682928266755E-05
(PID.TID 0000.0001) %MON ke_vol                       =   5.3036189546438E+15
(PID.TID 0000.0001) %MON vort_r_min                   =  -6.2641107923732E-07
(PID.TID 0000.0001) %MON vort_r_max                   =   4.2969138921129E-07
(PID.TID 0000.0001) %MON vort_a_mean                  =   1.2034315412155E-04
(PID.TID 0000.0001) %MON vort_a_sd                    =   8.7880378650267E-06
(PID.TID 0000.0001) %MON vort_p_mean                  =   1.7686399825912E-04
(PID.TID 0000.0001) %MON vort_p_sd                    =   1.1657314628801E-04
(PID.TID 0000.0001) %MON surfExpan_theta_mean         =   2.5439078866359E-06
(PID.TID 0000.0001) %MON surfExpan_salt_mean          =   1.6968656776912E-06
(PID.TID 0000.0001) // =======================================================
(PID.TID 0000.0001) // End MONITOR dynamic field statistics
(PID.TID 0000.0001) // =======================================================
(PID.TID 0000.0001) 
(PID.TID 0000.0001)  exf_GetFFieldsRec: first, changed, fac:   F   F   0.49043716E+00
(PID.TID 0000.0001)  exf_GetFFieldsRec:      count0, count1:   1   2
(PID.TID 0000.0001) 
(PID.TID 0000.0001) 
(PID.TID 0000.0001)  exf_GetFFieldsRec: first, changed, fac:   F   F   0.49043716E+00
(PID.TID 0000.0001)  exf_GetFFieldsRec:      count0, count1:   1   2
(PID.TID 0000.0001) 
(PID.TID 0000.0001) 
(PID.TID 0000.0001)  exf_GetFFieldsRec: first, changed, fac:   F   F   0.49043716E+00
(PID.TID 0000.0001)  exf_GetFFieldsRec:      count0, count1:   1   2
(PID.TID 0000.0001) 
(PID.TID 0000.0001) 
(PID.TID 0000.0001)  exf_GetFFieldsRec: first, changed, fac:   F   F   0.49043716E+00
(PID.TID 0000.0001)  exf_GetFFieldsRec:      count0, count1:   1   2
(PID.TID 0000.0001) 
(PID.TID 0000.0001) 
(PID.TID 0000.0001)  exf_GetFFieldsRec: first, changed, fac:   F   F   0.49043716E+00
(PID.TID 0000.0001)  exf_GetFFieldsRec:      count0, count1:   1   2
(PID.TID 0000.0001) 
(PID.TID 0000.0001) 
(PID.TID 0000.0001)  exf_GetFFieldsRec: first, changed, fac:   F   F   0.49043716E+00
(PID.TID 0000.0001)  exf_GetFFieldsRec:      count0, count1:   1   2
(PID.TID 0000.0001) 
(PID.TID 0000.0001) 
(PID.TID 0000.0001)  exf_GetFFieldsRec: first, changed, fac:   F   F   0.49043716E+00
(PID.TID 0000.0001)  exf_GetFFieldsRec:      count0, count1:   1   2
(PID.TID 0000.0001) 
(PID.TID 0000.0001) 
(PID.TID 0000.0001)  exf_GetFFieldsRec: first, changed, fac:   F   F   0.49043716E+00
(PID.TID 0000.0001)  exf_GetFFieldsRec:      count0, count1:   1   2
(PID.TID 0000.0001) 
(PID.TID 0000.0001) 
(PID.TID 0000.0001)  exf_GetFFieldsRec: first, changed, fac:   F   F   0.49043716E+00
(PID.TID 0000.0001)  exf_GetFFieldsRec:      count0, count1:   1   2
(PID.TID 0000.0001) 
 U lsr iters, error =      8  3.45419303376211E-11
 V lsr iters, error =     38  5.32048784369910E-11
 U lsr iters, error =      8  3.39824554807704E-11
 V lsr iters, error =     36  5.89759224529224E-11
 cg2d: Sum(rhs),rhsMax =  -6.50443407468337E-09  1.18580862403976E+00
(PID.TID 0000.0001)                    cg2d_init_res =    6.71490098667223E-02
(PID.TID 0000.0001)                       cg2d_iters =    31
(PID.TID 0000.0001)                         cg2d_res =    8.77792314780810E-09
(PID.TID 0000.0001) // =======================================================
(PID.TID 0000.0001) // Begin MONITOR dynamic field statistics
(PID.TID 0000.0001) // =======================================================
(PID.TID 0000.0001) %MON time_tsnumber                =                     8
(PID.TID 0000.0001) %MON time_secondsf                =   2.8800000000000E+04
(PID.TID 0000.0001) %MON dynstat_eta_max              =   3.1794907171002E-01
(PID.TID 0000.0001) %MON dynstat_eta_min              =  -1.1372035419398E-01
(PID.TID 0000.0001) %MON dynstat_eta_mean             =   2.0705326223061E-10
(PID.TID 0000.0001) %MON dynstat_eta_sd               =   7.0096166072233E-02
(PID.TID 0000.0001) %MON dynstat_eta_del2             =   7.0843493920811E-03
(PID.TID 0000.0001) %MON dynstat_uvel_max             =   1.1103986075309E-01
(PID.TID 0000.0001) %MON dynstat_uvel_min             =  -4.2932068613964E-02
(PID.TID 0000.0001) %MON dynstat_uvel_mean            =   2.3363134943299E-04
(PID.TID 0000.0001) %MON dynstat_uvel_sd              =   1.0315404992178E-02
(PID.TID 0000.0001) %MON dynstat_uvel_del2            =   2.6924425277779E-03
(PID.TID 0000.0001) %MON dynstat_vvel_max             =   6.7047022201602E-02
(PID.TID 0000.0001) %MON dynstat_vvel_min             =  -8.8858711373093E-02
(PID.TID 0000.0001) %MON dynstat_vvel_mean            =   7.1084873216030E-05
(PID.TID 0000.0001) %MON dynstat_vvel_sd              =   8.5103062866552E-03
(PID.TID 0000.0001) %MON dynstat_vvel_del2            =   2.5893719493565E-03
(PID.TID 0000.0001) %MON dynstat_wvel_max             =   3.7093467635640E-04
(PID.TID 0000.0001) %MON dynstat_wvel_min             =  -3.2685026762451E-04
(PID.TID 0000.0001) %MON dynstat_wvel_mean            =  -1.4684404091588E-21
(PID.TID 0000.0001) %MON dynstat_wvel_sd              =   6.6347769892438E-05
(PID.TID 0000.0001) %MON dynstat_wvel_del2            =   5.7419892111129E-06
(PID.TID 0000.0001) %MON dynstat_theta_max            =   1.1814783098413E+01
(PID.TID 0000.0001) %MON dynstat_theta_min            =  -1.9619043049481E+00
(PID.TID 0000.0001) %MON dynstat_theta_mean           =   3.0709383549952E+00
(PID.TID 0000.0001) %MON dynstat_theta_sd             =   1.3855862088858E+00
(PID.TID 0000.0001) %MON dynstat_theta_del2           =   1.1465936376760E-01
(PID.TID 0000.0001) %MON dynstat_salt_max             =   3.5450001045993E+01
(PID.TID 0000.0001) %MON dynstat_salt_min             =   2.9873359034901E+01
(PID.TID 0000.0001) %MON dynstat_salt_mean            =   3.4750084663279E+01
(PID.TID 0000.0001) %MON dynstat_salt_sd              =   4.7815290224482E-01
(PID.TID 0000.0001) %MON dynstat_salt_del2            =   4.3099501784529E-02
(PID.TID 0000.0001) %MON advcfl_uvel_max              =   2.7398294157283E-03
(PID.TID 0000.0001) %MON advcfl_vvel_max              =   1.4384260622145E-03
(PID.TID 0000.0001) %MON advcfl_wvel_max              =   8.0305512185870E-03
(PID.TID 0000.0001) %MON advcfl_W_hf_max              =   1.0510677839835E-02
(PID.TID 0000.0001) %MON pe_b_mean                    =   1.6197999118389E-05
(PID.TID 0000.0001) %MON ke_max                       =   5.2154606882714E-03
(PID.TID 0000.0001) %MON ke_mean                      =   7.0236029881732E-05
(PID.TID 0000.0001) %MON ke_vol                       =   5.3036189546438E+15
(PID.TID 0000.0001) %MON vort_r_min                   =  -6.0328597898416E-07
(PID.TID 0000.0001) %MON vort_r_max                   =   3.7443856936290E-07
(PID.TID 0000.0001) %MON vort_a_mean                  =   1.2034315514588E-04
(PID.TID 0000.0001) %MON vort_a_sd                    =   8.7878844415183E-06
(PID.TID 0000.0001) %MON vort_p_mean                  =   1.7686399976455E-04
(PID.TID 0000.0001) %MON vort_p_sd                    =   1.1657053167829E-04
(PID.TID 0000.0001) %MON surfExpan_theta_mean         =   6.3307132019299E-07
(PID.TID 0000.0001) %MON surfExpan_salt_mean          =   1.0396652812863E-06
(PID.TID 0000.0001) // =======================================================
(PID.TID 0000.0001) // End MONITOR dynamic field statistics
(PID.TID 0000.0001) // =======================================================
(PID.TID 0000.0001) 
(PID.TID 0000.0001)  exf_GetFFieldsRec: first, changed, fac:   F   F   0.48907104E+00
(PID.TID 0000.0001)  exf_GetFFieldsRec:      count0, count1:   1   2
(PID.TID 0000.0001) 
(PID.TID 0000.0001) 
(PID.TID 0000.0001)  exf_GetFFieldsRec: first, changed, fac:   F   F   0.48907104E+00
(PID.TID 0000.0001)  exf_GetFFieldsRec:      count0, count1:   1   2
(PID.TID 0000.0001) 
(PID.TID 0000.0001) 
(PID.TID 0000.0001)  exf_GetFFieldsRec: first, changed, fac:   F   F   0.48907104E+00
(PID.TID 0000.0001)  exf_GetFFieldsRec:      count0, count1:   1   2
(PID.TID 0000.0001) 
(PID.TID 0000.0001) 
(PID.TID 0000.0001)  exf_GetFFieldsRec: first, changed, fac:   F   F   0.48907104E+00
(PID.TID 0000.0001)  exf_GetFFieldsRec:      count0, count1:   1   2
(PID.TID 0000.0001) 
(PID.TID 0000.0001) 
(PID.TID 0000.0001)  exf_GetFFieldsRec: first, changed, fac:   F   F   0.48907104E+00
(PID.TID 0000.0001)  exf_GetFFieldsRec:      count0, count1:   1   2
(PID.TID 0000.0001) 
(PID.TID 0000.0001) 
(PID.TID 0000.0001)  exf_GetFFieldsRec: first, changed, fac:   F   F   0.48907104E+00
(PID.TID 0000.0001)  exf_GetFFieldsRec:      count0, count1:   1   2
(PID.TID 0000.0001) 
(PID.TID 0000.0001) 
(PID.TID 0000.0001)  exf_GetFFieldsRec: first, changed, fac:   F   F   0.48907104E+00
(PID.TID 0000.0001)  exf_GetFFieldsRec:      count0, count1:   1   2
(PID.TID 0000.0001) 
(PID.TID 0000.0001) 
(PID.TID 0000.0001)  exf_GetFFieldsRec: first, changed, fac:   F   F   0.48907104E+00
(PID.TID 0000.0001)  exf_GetFFieldsRec:      count0, count1:   1   2
(PID.TID 0000.0001) 
(PID.TID 0000.0001) 
(PID.TID 0000.0001)  exf_GetFFieldsRec: first, changed, fac:   F   F   0.48907104E+00
(PID.TID 0000.0001)  exf_GetFFieldsRec:      count0, count1:   1   2
(PID.TID 0000.0001) 
 U lsr iters, error =      8  5.36771361273015E-11
 V lsr iters, error =     34  9.74799669694985E-11
 U lsr iters, error =      8  5.26233975557504E-11
 V lsr iters, error =     34  6.20071152626980E-11
 cg2d: Sum(rhs),rhsMax =  -7.81662760906965E-09  1.17193993249978E+00
(PID.TID 0000.0001)                    cg2d_init_res =    5.80988209502952E-02
(PID.TID 0000.0001)                       cg2d_iters =    31
(PID.TID 0000.0001)                         cg2d_res =    5.96123796770792E-09
(PID.TID 0000.0001) // =======================================================
(PID.TID 0000.0001) // Begin MONITOR dynamic field statistics
(PID.TID 0000.0001) // =======================================================
(PID.TID 0000.0001) %MON time_tsnumber                =                     9
(PID.TID 0000.0001) %MON time_secondsf                =   3.2400000000000E+04
(PID.TID 0000.0001) %MON dynstat_eta_max              =   3.0793871995659E-01
(PID.TID 0000.0001) %MON dynstat_eta_min              =  -1.0710797890956E-01
(PID.TID 0000.0001) %MON dynstat_eta_mean             =   2.2311753745436E-10
(PID.TID 0000.0001) %MON dynstat_eta_sd               =   6.6509862805641E-02
(PID.TID 0000.0001) %MON dynstat_eta_del2             =   7.3215225731030E-03
(PID.TID 0000.0001) %MON dynstat_uvel_max             =   1.0685817291087E-01
(PID.TID 0000.0001) %MON dynstat_uvel_min             =  -4.4997230980908E-02
(PID.TID 0000.0001) %MON dynstat_uvel_mean            =   3.8955687162131E-05
(PID.TID 0000.0001) %MON dynstat_uvel_sd              =   1.0052801601225E-02
(PID.TID 0000.0001) %MON dynstat_uvel_del2            =   2.4073870279666E-03
(PID.TID 0000.0001) %MON dynstat_vvel_max             =   5.2636838034575E-02
(PID.TID 0000.0001) %MON dynstat_vvel_min             =  -8.8566157268780E-02
(PID.TID 0000.0001) %MON dynstat_vvel_mean            =   2.4694160258454E-04
(PID.TID 0000.0001) %MON dynstat_vvel_sd              =   7.2249443337999E-03
(PID.TID 0000.0001) %MON dynstat_vvel_del2            =   2.5853717305335E-03
(PID.TID 0000.0001) %MON dynstat_wvel_max             =   3.2805028599363E-04
(PID.TID 0000.0001) %MON dynstat_wvel_min             =  -3.1249399087628E-04
(PID.TID 0000.0001) %MON dynstat_wvel_mean            =   3.8868887527824E-22
(PID.TID 0000.0001) %MON dynstat_wvel_sd              =   6.3054851685951E-05
(PID.TID 0000.0001) %MON dynstat_wvel_del2            =   6.1757158734993E-06
(PID.TID 0000.0001) %MON dynstat_theta_max            =   1.1812003608542E+01
(PID.TID 0000.0001) %MON dynstat_theta_min            =  -1.9619468694753E+00
(PID.TID 0000.0001) %MON dynstat_theta_mean           =   3.0708909011920E+00
(PID.TID 0000.0001) %MON dynstat_theta_sd             =   1.3855611476475E+00
(PID.TID 0000.0001) %MON dynstat_theta_del2           =   1.1483586243459E-01
(PID.TID 0000.0001) %MON dynstat_salt_max             =   3.5449918477153E+01
(PID.TID 0000.0001) %MON dynstat_salt_min             =   2.9873997335160E+01
(PID.TID 0000.0001) %MON dynstat_salt_mean            =   3.4750081500409E+01
(PID.TID 0000.0001) %MON dynstat_salt_sd              =   4.7815287977185E-01
(PID.TID 0000.0001) %MON dynstat_salt_del2            =   4.3083260394664E-02
(PID.TID 0000.0001) %MON advcfl_uvel_max              =   2.6366492488961E-03
(PID.TID 0000.0001) %MON advcfl_vvel_max              =   1.4336902581302E-03
(PID.TID 0000.0001) %MON advcfl_wvel_max              =   7.8918831017859E-03
(PID.TID 0000.0001) %MON advcfl_W_hf_max              =   1.0319287133964E-02
(PID.TID 0000.0001) %MON pe_b_mean                    =   1.4582935181201E-05
(PID.TID 0000.0001) %MON ke_max                       =   4.6076366589314E-03
(PID.TID 0000.0001) %MON ke_mean                      =   6.0249937919801E-05
(PID.TID 0000.0001) %MON ke_vol                       =   5.3036189546438E+15
(PID.TID 0000.0001) %MON vort_r_min                   =  -5.3617337025156E-07
(PID.TID 0000.0001) %MON vort_r_max                   =   3.1206177888642E-07
(PID.TID 0000.0001) %MON vort_a_mean                  =   1.2034315710075E-04
(PID.TID 0000.0001) %MON vort_a_sd                    =   8.7876993915623E-06
(PID.TID 0000.0001) %MON vort_p_mean                  =   1.7686400263755E-04
(PID.TID 0000.0001) %MON vort_p_sd                    =   1.1657068574237E-04
(PID.TID 0000.0001) %MON surfExpan_theta_mean         =  -1.2130770143946E-06
(PID.TID 0000.0001) %MON surfExpan_salt_mean          =   3.5190611693124E-07
(PID.TID 0000.0001) // =======================================================
(PID.TID 0000.0001) // End MONITOR dynamic field statistics
(PID.TID 0000.0001) // =======================================================
(PID.TID 0000.0001) 
(PID.TID 0000.0001)  exf_GetFFieldsRec: first, changed, fac:   F   F   0.48770492E+00
(PID.TID 0000.0001)  exf_GetFFieldsRec:      count0, count1:   1   2
(PID.TID 0000.0001) 
(PID.TID 0000.0001) 
(PID.TID 0000.0001)  exf_GetFFieldsRec: first, changed, fac:   F   F   0.48770492E+00
(PID.TID 0000.0001)  exf_GetFFieldsRec:      count0, count1:   1   2
(PID.TID 0000.0001) 
(PID.TID 0000.0001) 
(PID.TID 0000.0001)  exf_GetFFieldsRec: first, changed, fac:   F   F   0.48770492E+00
(PID.TID 0000.0001)  exf_GetFFieldsRec:      count0, count1:   1   2
(PID.TID 0000.0001) 
(PID.TID 0000.0001) 
(PID.TID 0000.0001)  exf_GetFFieldsRec: first, changed, fac:   F   F   0.48770492E+00
(PID.TID 0000.0001)  exf_GetFFieldsRec:      count0, count1:   1   2
(PID.TID 0000.0001) 
(PID.TID 0000.0001) 
(PID.TID 0000.0001)  exf_GetFFieldsRec: first, changed, fac:   F   F   0.48770492E+00
(PID.TID 0000.0001)  exf_GetFFieldsRec:      count0, count1:   1   2
(PID.TID 0000.0001) 
(PID.TID 0000.0001) 
(PID.TID 0000.0001)  exf_GetFFieldsRec: first, changed, fac:   F   F   0.48770492E+00
(PID.TID 0000.0001)  exf_GetFFieldsRec:      count0, count1:   1   2
(PID.TID 0000.0001) 
(PID.TID 0000.0001) 
(PID.TID 0000.0001)  exf_GetFFieldsRec: first, changed, fac:   F   F   0.48770492E+00
(PID.TID 0000.0001)  exf_GetFFieldsRec:      count0, count1:   1   2
(PID.TID 0000.0001) 
(PID.TID 0000.0001) 
(PID.TID 0000.0001)  exf_GetFFieldsRec: first, changed, fac:   F   F   0.48770492E+00
(PID.TID 0000.0001)  exf_GetFFieldsRec:      count0, count1:   1   2
(PID.TID 0000.0001) 
(PID.TID 0000.0001) 
(PID.TID 0000.0001)  exf_GetFFieldsRec: first, changed, fac:   F   F   0.48770492E+00
(PID.TID 0000.0001)  exf_GetFFieldsRec:      count0, count1:   1   2
(PID.TID 0000.0001) 
 U lsr iters, error =      8  8.36050652807622E-11
 V lsr iters, error =     34  7.13020052614359E-11
 U lsr iters, error =      8  8.52073157853444E-11
 V lsr iters, error =     30  8.62138190699246E-11
 cg2d: Sum(rhs),rhsMax =  -8.54331686298004E-09  1.15544652212201E+00
(PID.TID 0000.0001)                    cg2d_init_res =    5.80914449473561E-02
(PID.TID 0000.0001)                       cg2d_iters =    31
(PID.TID 0000.0001)                         cg2d_res =    5.04301376558456E-09
(PID.TID 0000.0001) // =======================================================
(PID.TID 0000.0001) // Begin MONITOR dynamic field statistics
(PID.TID 0000.0001) // =======================================================
(PID.TID 0000.0001) %MON time_tsnumber                =                    10
(PID.TID 0000.0001) %MON time_secondsf                =   3.6000000000000E+04
(PID.TID 0000.0001) %MON dynstat_eta_max              =   2.9524083140604E-01
(PID.TID 0000.0001) %MON dynstat_eta_min              =  -1.0167202517524E-01
(PID.TID 0000.0001) %MON dynstat_eta_mean             =   2.2414505670737E-10
(PID.TID 0000.0001) %MON dynstat_eta_sd               =   6.3648875665650E-02
(PID.TID 0000.0001) %MON dynstat_eta_del2             =   7.4766098570818E-03
(PID.TID 0000.0001) %MON dynstat_uvel_max             =   9.5708338108403E-02
(PID.TID 0000.0001) %MON dynstat_uvel_min             =  -4.5904517231986E-02
(PID.TID 0000.0001) %MON dynstat_uvel_mean            =  -1.3421897300125E-04
(PID.TID 0000.0001) %MON dynstat_uvel_sd              =   9.1874019531314E-03
(PID.TID 0000.0001) %MON dynstat_uvel_del2            =   2.1631606144471E-03
(PID.TID 0000.0001) %MON dynstat_vvel_max             =   3.6931301763127E-02
(PID.TID 0000.0001) %MON dynstat_vvel_min             =  -8.1133789427969E-02
(PID.TID 0000.0001) %MON dynstat_vvel_mean            =   4.1933226448382E-04
(PID.TID 0000.0001) %MON dynstat_vvel_sd              =   6.3493282967874E-03
(PID.TID 0000.0001) %MON dynstat_vvel_del2            =   2.4849556824710E-03
(PID.TID 0000.0001) %MON dynstat_wvel_max             =   2.7193343713147E-04
(PID.TID 0000.0001) %MON dynstat_wvel_min             =  -2.7492333890528E-04
(PID.TID 0000.0001) %MON dynstat_wvel_mean            =   6.1925993942400E-22
(PID.TID 0000.0001) %MON dynstat_wvel_sd              =   5.7108094311854E-05
(PID.TID 0000.0001) %MON dynstat_wvel_del2            =   6.4158605581433E-06
(PID.TID 0000.0001) %MON dynstat_theta_max            =   1.1808827864080E+01
(PID.TID 0000.0001) %MON dynstat_theta_min            =  -1.9615881724487E+00
(PID.TID 0000.0001) %MON dynstat_theta_mean           =   3.0708523083784E+00
(PID.TID 0000.0001) %MON dynstat_theta_sd             =   1.3855345573313E+00
(PID.TID 0000.0001) %MON dynstat_theta_del2           =   1.1500766221776E-01
(PID.TID 0000.0001) %MON dynstat_salt_max             =   3.5449810361333E+01
(PID.TID 0000.0001) %MON dynstat_salt_min             =   2.9874666484391E+01
(PID.TID 0000.0001) %MON dynstat_salt_mean            =   3.4750086045873E+01
(PID.TID 0000.0001) %MON dynstat_salt_sd              =   4.7811662971666E-01
(PID.TID 0000.0001) %MON dynstat_salt_del2            =   4.3139116595976E-02
(PID.TID 0000.0001) %MON advcfl_uvel_max              =   2.3615350226614E-03
(PID.TID 0000.0001) %MON advcfl_vvel_max              =   1.3133766564474E-03
(PID.TID 0000.0001) %MON advcfl_wvel_max              =   7.1308897449561E-03
(PID.TID 0000.0001) %MON advcfl_W_hf_max              =   9.3201295969237E-03
(PID.TID 0000.0001) %MON pe_b_mean                    =   1.3355320488061E-05
(PID.TID 0000.0001) %MON ke_max                       =   3.6797350100694E-03
(PID.TID 0000.0001) %MON ke_mean                      =   4.9099179816943E-05
(PID.TID 0000.0001) %MON ke_vol                       =   5.3036189546438E+15
(PID.TID 0000.0001) %MON vort_r_min                   =  -4.5588755203711E-07
(PID.TID 0000.0001) %MON vort_r_max                   =   2.5438312015005E-07
(PID.TID 0000.0001) %MON vort_a_mean                  =   1.2034315992693E-04
(PID.TID 0000.0001) %MON vort_a_sd                    =   8.7875191661656E-06
(PID.TID 0000.0001) %MON vort_p_mean                  =   1.7686400679108E-04
(PID.TID 0000.0001) %MON vort_p_sd                    =   1.1657349859132E-04
(PID.TID 0000.0001) %MON surfExpan_theta_mean         =  -2.6101912189006E-06
(PID.TID 0000.0001) %MON surfExpan_salt_mean          =  -2.2822956841204E-07
(PID.TID 0000.0001) // =======================================================
(PID.TID 0000.0001) // End MONITOR dynamic field statistics
(PID.TID 0000.0001) // =======================================================
(PID.TID 0000.0001) // Time-average data written, t-step        10
(PID.TID 0000.0001) 
(PID.TID 0000.0001) %CHECKPOINT        10 0000000010
(PID.TID 0000.0001) 
(PID.TID 0000.0001)  exf_GetFFieldsRec: first, changed, fac:   F   F   0.48633880E+00
(PID.TID 0000.0001)  exf_GetFFieldsRec:      count0, count1:   1   2
(PID.TID 0000.0001) 
(PID.TID 0000.0001) 
(PID.TID 0000.0001)  exf_GetFFieldsRec: first, changed, fac:   F   F   0.48633880E+00
(PID.TID 0000.0001)  exf_GetFFieldsRec:      count0, count1:   1   2
(PID.TID 0000.0001) 
(PID.TID 0000.0001) 
(PID.TID 0000.0001)  exf_GetFFieldsRec: first, changed, fac:   F   F   0.48633880E+00
(PID.TID 0000.0001)  exf_GetFFieldsRec:      count0, count1:   1   2
(PID.TID 0000.0001) 
(PID.TID 0000.0001) 
(PID.TID 0000.0001)  exf_GetFFieldsRec: first, changed, fac:   F   F   0.48633880E+00
(PID.TID 0000.0001)  exf_GetFFieldsRec:      count0, count1:   1   2
(PID.TID 0000.0001) 
(PID.TID 0000.0001) 
(PID.TID 0000.0001)  exf_GetFFieldsRec: first, changed, fac:   F   F   0.48633880E+00
(PID.TID 0000.0001)  exf_GetFFieldsRec:      count0, count1:   1   2
(PID.TID 0000.0001) 
(PID.TID 0000.0001) 
(PID.TID 0000.0001)  exf_GetFFieldsRec: first, changed, fac:   F   F   0.48633880E+00
(PID.TID 0000.0001)  exf_GetFFieldsRec:      count0, count1:   1   2
(PID.TID 0000.0001) 
(PID.TID 0000.0001) 
(PID.TID 0000.0001)  exf_GetFFieldsRec: first, changed, fac:   F   F   0.48633880E+00
(PID.TID 0000.0001)  exf_GetFFieldsRec:      count0, count1:   1   2
(PID.TID 0000.0001) 
(PID.TID 0000.0001) 
(PID.TID 0000.0001)  exf_GetFFieldsRec: first, changed, fac:   F   F   0.48633880E+00
(PID.TID 0000.0001)  exf_GetFFieldsRec:      count0, count1:   1   2
(PID.TID 0000.0001) 
(PID.TID 0000.0001) 
(PID.TID 0000.0001)  exf_GetFFieldsRec: first, changed, fac:   F   F   0.48633880E+00
(PID.TID 0000.0001)  exf_GetFFieldsRec:      count0, count1:   1   2
(PID.TID 0000.0001) 
 U lsr iters, error =     10  2.06760156955602E-12
 V lsr iters, error =     38  7.05088174261445E-11
 U lsr iters, error =     10  2.37492772843517E-12
 V lsr iters, error =     36  6.57023764279001E-11
 cg2d: Sum(rhs),rhsMax =  -8.71524651752109E-09  1.13786870508920E+00
(PID.TID 0000.0001)                    cg2d_init_res =    6.18157147907296E-02
(PID.TID 0000.0001)                       cg2d_iters =    30
(PID.TID 0000.0001)                         cg2d_res =    8.45451957135975E-09
(PID.TID 0000.0001) // =======================================================
(PID.TID 0000.0001) // Begin MONITOR dynamic field statistics
(PID.TID 0000.0001) // =======================================================
(PID.TID 0000.0001) %MON time_tsnumber                =                    11
(PID.TID 0000.0001) %MON time_secondsf                =   3.9600000000000E+04
(PID.TID 0000.0001) %MON dynstat_eta_max              =   2.8191486342184E-01
(PID.TID 0000.0001) %MON dynstat_eta_min              =  -9.7794402360322E-02
(PID.TID 0000.0001) %MON dynstat_eta_mean             =   2.1780258951250E-10
(PID.TID 0000.0001) %MON dynstat_eta_sd               =   6.1700057727540E-02
(PID.TID 0000.0001) %MON dynstat_eta_del2             =   7.5886559335187E-03
(PID.TID 0000.0001) %MON dynstat_uvel_max             =   7.9437597379973E-02
(PID.TID 0000.0001) %MON dynstat_uvel_min             =  -4.0859236964703E-02
(PID.TID 0000.0001) %MON dynstat_uvel_mean            =  -2.7000930659106E-04
(PID.TID 0000.0001) %MON dynstat_uvel_sd              =   7.7943843823839E-03
(PID.TID 0000.0001) %MON dynstat_uvel_del2            =   1.9482176311400E-03
(PID.TID 0000.0001) %MON dynstat_vvel_max             =   2.3562762215231E-02
(PID.TID 0000.0001) %MON dynstat_vvel_min             =  -7.0330584188985E-02
(PID.TID 0000.0001) %MON dynstat_vvel_mean            =   5.5006149202298E-04
(PID.TID 0000.0001) %MON dynstat_vvel_sd              =   5.9248640882342E-03
(PID.TID 0000.0001) %MON dynstat_vvel_del2            =   2.2652593006693E-03
(PID.TID 0000.0001) %MON dynstat_wvel_max             =   2.1321472698450E-04
(PID.TID 0000.0001) %MON dynstat_wvel_min             =  -2.2438245131597E-04
(PID.TID 0000.0001) %MON dynstat_wvel_mean            =  -7.3858406096877E-23
(PID.TID 0000.0001) %MON dynstat_wvel_sd              =   4.9090868131855E-05
(PID.TID 0000.0001) %MON dynstat_wvel_del2            =   6.0031633518893E-06
(PID.TID 0000.0001) %MON dynstat_theta_max            =   1.1805332185757E+01
(PID.TID 0000.0001) %MON dynstat_theta_min            =  -1.9606782839514E+00
(PID.TID 0000.0001) %MON dynstat_theta_mean           =   3.0708169622665E+00
(PID.TID 0000.0001) %MON dynstat_theta_sd             =   1.3855117404795E+00
(PID.TID 0000.0001) %MON dynstat_theta_del2           =   1.1513324245642E-01
(PID.TID 0000.0001) %MON dynstat_salt_max             =   3.5449684855733E+01
(PID.TID 0000.0001) %MON dynstat_salt_min             =   2.9875275185943E+01
(PID.TID 0000.0001) %MON dynstat_salt_mean            =   3.4750091105579E+01
(PID.TID 0000.0001) %MON dynstat_salt_sd              =   4.7808234740899E-01
(PID.TID 0000.0001) %MON dynstat_salt_del2            =   4.3109101913472E-02
(PID.TID 0000.0001) %MON advcfl_uvel_max              =   1.9600660928456E-03
(PID.TID 0000.0001) %MON advcfl_vvel_max              =   1.1384966505247E-03
(PID.TID 0000.0001) %MON advcfl_wvel_max              =   5.9362664070146E-03
(PID.TID 0000.0001) %MON advcfl_W_hf_max              =   7.6686859122396E-03
(PID.TID 0000.0001) %MON pe_b_mean                    =   1.2550007408477E-05
(PID.TID 0000.0001) %MON ke_max                       =   2.6574551104603E-03
(PID.TID 0000.0001) %MON ke_mean                      =   3.7801599703866E-05
(PID.TID 0000.0001) %MON ke_vol                       =   5.3036189546438E+15
(PID.TID 0000.0001) %MON vort_r_min                   =  -4.1018591219524E-07
(PID.TID 0000.0001) %MON vort_r_max                   =   3.0035812566686E-07
(PID.TID 0000.0001) %MON vort_a_mean                  =   1.2034316226341E-04
(PID.TID 0000.0001) %MON vort_a_sd                    =   8.7873612574073E-06
(PID.TID 0000.0001) %MON vort_p_mean                  =   1.7686401022493E-04
(PID.TID 0000.0001) %MON vort_p_sd                    =   1.1657838102874E-04
(PID.TID 0000.0001) %MON surfExpan_theta_mean         =  -3.4076415232910E-06
(PID.TID 0000.0001) %MON surfExpan_salt_mean          =  -6.5583489384827E-07
(PID.TID 0000.0001) // =======================================================
(PID.TID 0000.0001) // End MONITOR dynamic field statistics
(PID.TID 0000.0001) // =======================================================
(PID.TID 0000.0001) %CHECKPOINT        11 ckptA
(PID.TID 0000.0001)   Seconds in section "ALL                    [THE_MODEL_MAIN]":
(PID.TID 0000.0001)           User time:  1.47070302
(PID.TID 0000.0001)         System time:  43.1542971
(PID.TID 0000.0001)     Wall clock time:  44.621787
(PID.TID 0000.0001)          No. starts: 1
(PID.TID 0000.0001)           No. stops: 1
(PID.TID 0000.0001)   Seconds in section "INITIALISE_FIXED       [THE_MODEL_MAIN]":
(PID.TID 0000.0001)           User time:  0.0585940001
(PID.TID 0000.0001)         System time:  5.16796899
(PID.TID 0000.0001)     Wall clock time:  5.22579503
(PID.TID 0000.0001)          No. starts: 1
(PID.TID 0000.0001)           No. stops: 1
(PID.TID 0000.0001)   Seconds in section "THE_MAIN_LOOP          [THE_MODEL_MAIN]":
(PID.TID 0000.0001)           User time:  1.38671803
(PID.TID 0000.0001)         System time:  27.7832031
(PID.TID 0000.0001)     Wall clock time:  29.1670719
(PID.TID 0000.0001)          No. starts: 1
(PID.TID 0000.0001)           No. stops: 1
(PID.TID 0000.0001)   Seconds in section "INITIALISE_VARIA    [THE_MAIN_LOOP]":
(PID.TID 0000.0001)           User time:  0.347656012
(PID.TID 0000.0001)         System time:  0.78125
(PID.TID 0000.0001)     Wall clock time:  1.1290369
(PID.TID 0000.0001)          No. starts: 1
(PID.TID 0000.0001)           No. stops: 1
(PID.TID 0000.0001)   Seconds in section "WRITE_STATE         [THE_MAIN_LOOP]":
(PID.TID 0000.0001)           User time:  0.00781199336
(PID.TID 0000.0001)         System time:  2.65625
(PID.TID 0000.0001)     Wall clock time:  2.66341102
(PID.TID 0000.0001)          No. starts: 1
(PID.TID 0000.0001)           No. stops: 1
(PID.TID 0000.0001)   Seconds in section "MONITOR             [THE_MAIN_LOOP]":
(PID.TID 0000.0001)           User time:  0.00390699506
(PID.TID 0000.0001)         System time:  0.0566396713
(PID.TID 0000.0001)     Wall clock time:  0.0610499382
(PID.TID 0000.0001)          No. starts: 1
(PID.TID 0000.0001)           No. stops: 1
(PID.TID 0000.0001)   Seconds in section "MAIN LOOP           [THE_MAIN_LOOP]":
(PID.TID 0000.0001)           User time:  1.02734303
(PID.TID 0000.0001)         System time:  24.2890635
(PID.TID 0000.0001)     Wall clock time:  25.3134099
(PID.TID 0000.0001)          No. starts: 1
(PID.TID 0000.0001)           No. stops: 1
(PID.TID 0000.0001)   Seconds in section "FORWARD_STEP        [THE_MAIN_LOOP]":
(PID.TID 0000.0001)           User time:  1.02734303
(PID.TID 0000.0001)         System time:  24.2890635
(PID.TID 0000.0001)     Wall clock time:  25.3130498
(PID.TID 0000.0001)          No. starts: 11
(PID.TID 0000.0001)           No. stops: 11
(PID.TID 0000.0001)   Seconds in section "EXF_GETFORCING     [FORWARD_STEP]":
(PID.TID 0000.0001)           User time:  0.0136719942
(PID.TID 0000.0001)         System time:  0.617186546
(PID.TID 0000.0001)     Wall clock time:  0.626823068
(PID.TID 0000.0001)          No. starts: 11
(PID.TID 0000.0001)           No. stops: 11
(PID.TID 0000.0001)   Seconds in section "SEAICE_MODEL       [FORWARD_STEP]":
(PID.TID 0000.0001)           User time:  0.0878889859
(PID.TID 0000.0001)         System time:  0.994140625
(PID.TID 0000.0001)     Wall clock time:  1.08243883
(PID.TID 0000.0001)          No. starts: 11
(PID.TID 0000.0001)           No. stops: 11
(PID.TID 0000.0001)   Seconds in section "THERMODYNAMICS      [FORWARD_STEP]":
(PID.TID 0000.0001)           User time:  0.464844137
(PID.TID 0000.0001)         System time:  0.005859375
(PID.TID 0000.0001)     Wall clock time:  0.468050122
(PID.TID 0000.0001)          No. starts: 11
(PID.TID 0000.0001)           No. stops: 11
(PID.TID 0000.0001)   Seconds in section "STATEKPP      [KPP_CALC]":
(PID.TID 0000.0001)           User time:  0.0351560116
(PID.TID 0000.0001)         System time:  0.001953125
(PID.TID 0000.0001)     Wall clock time:  0.038369894
(PID.TID 0000.0001)          No. starts: 11
(PID.TID 0000.0001)           No. stops: 11
(PID.TID 0000.0001)   Seconds in section "KPPMIX [KPP_CALC]":
(PID.TID 0000.0001)           User time:  0.128906995
(PID.TID 0000.0001)         System time:  0.001953125
(PID.TID 0000.0001)     Wall clock time:  0.130071044
(PID.TID 0000.0001)          No. starts: 11
(PID.TID 0000.0001)           No. stops: 11
(PID.TID 0000.0001)   Seconds in section "BLOCKING_EXCHANGES  [FORWARD_STEP]":
(PID.TID 0000.0001)           User time:  0.017577976
(PID.TID 0000.0001)         System time:  0.
(PID.TID 0000.0001)     Wall clock time:  0.0159721375
(PID.TID 0000.0001)          No. starts: 22
(PID.TID 0000.0001)           No. stops: 22
(PID.TID 0000.0001)   Seconds in section "DYNAMICS            [FORWARD_STEP]":
(PID.TID 0000.0001)           User time:  0.22265783
(PID.TID 0000.0001)         System time:  0.
(PID.TID 0000.0001)     Wall clock time:  0.229167104
(PID.TID 0000.0001)          No. starts: 11
(PID.TID 0000.0001)           No. stops: 11
(PID.TID 0000.0001)   Seconds in section "SOLVE_FOR_PRESSURE  [FORWARD_STEP]":
(PID.TID 0000.0001)           User time:  0.0332030654
(PID.TID 0000.0001)         System time:  0.123046875
(PID.TID 0000.0001)     Wall clock time:  0.149133205
(PID.TID 0000.0001)          No. starts: 11
(PID.TID 0000.0001)           No. stops: 11
(PID.TID 0000.0001)   Seconds in section "THE_CORRECTION_STEP [FORWARD_STEP]":
(PID.TID 0000.0001)           User time:  0.0468741059
(PID.TID 0000.0001)         System time:  0.
(PID.TID 0000.0001)     Wall clock time:  0.0506350994
(PID.TID 0000.0001)          No. starts: 11
(PID.TID 0000.0001)           No. stops: 11
(PID.TID 0000.0001)   Seconds in section "MONITOR             [FORWARD_STEP]":
(PID.TID 0000.0001)           User time:  0.0507829785
(PID.TID 0000.0001)         System time:  1.07031345
(PID.TID 0000.0001)     Wall clock time:  1.12157416
(PID.TID 0000.0001)          No. starts: 11
(PID.TID 0000.0001)           No. stops: 11
(PID.TID 0000.0001)   Seconds in section "DO_THE_MODEL_IO     [FORWARD_STEP]":
(PID.TID 0000.0001)           User time:  0.0566390157
(PID.TID 0000.0001)         System time:  11.7597666
(PID.TID 0000.0001)     Wall clock time:  11.8160309
(PID.TID 0000.0001)          No. starts: 11
(PID.TID 0000.0001)           No. stops: 11
(PID.TID 0000.0001)   Seconds in section "WRITE_CHECKPOINT    [FORWARD_STEP]":
(PID.TID 0000.0001)           User time:  0.0292969942
(PID.TID 0000.0001)         System time:  9.71875
(PID.TID 0000.0001)     Wall clock time:  9.74905562
(PID.TID 0000.0001)          No. starts: 11
(PID.TID 0000.0001)           No. stops: 11
(PID.TID 0000.0001)   Seconds in section "WRITE_CHECKPOINT       [THE_MODEL_MAIN]":
(PID.TID 0000.0001)           User time:  0.0234379768
(PID.TID 0000.0001)         System time:  9.671875
(PID.TID 0000.0001)     Wall clock time:  9.69497395
(PID.TID 0000.0001)          No. starts: 1
(PID.TID 0000.0001)           No. stops: 1
(PID.TID 0000.0001) // ======================================================
(PID.TID 0000.0001) // Tile <-> Tile communication statistics
(PID.TID 0000.0001) // ======================================================
(PID.TID 0000.0001) // o Tile number: 000001
(PID.TID 0000.0001) //         No. X exchanges =              0
(PID.TID 0000.0001) //            Max. X spins =              0
(PID.TID 0000.0001) //            Min. X spins =     1000000000
(PID.TID 0000.0001) //          Total. X spins =              0
(PID.TID 0000.0001) //            Avg. X spins =       0.00E+00
(PID.TID 0000.0001) //         No. Y exchanges =              0
(PID.TID 0000.0001) //            Max. Y spins =              0
(PID.TID 0000.0001) //            Min. Y spins =     1000000000
(PID.TID 0000.0001) //          Total. Y spins =              0
(PID.TID 0000.0001) //            Avg. Y spins =       0.00E+00
(PID.TID 0000.0001) // o Thread number: 000001
(PID.TID 0000.0001) //            No. barriers =          10732
(PID.TID 0000.0001) //      Max. barrier spins =              1
(PID.TID 0000.0001) //      Min. barrier spins =              1
(PID.TID 0000.0001) //     Total barrier spins =          10732
(PID.TID 0000.0001) //      Avg. barrier spins =       1.00E+00
