(PID.TID 0000.0001) 
(PID.TID 0000.0001) // ======================================================
(PID.TID 0000.0001) //                      MITgcm UV
(PID.TID 0000.0001) //                      =========
(PID.TID 0000.0001) // ======================================================
(PID.TID 0000.0001) // execution environment starting up...
(PID.TID 0000.0001) // Run starting Wed Apr  1 14:19:48 1998
(PID.TID 0000.0001) // on melville.lcs.mit.edu
(PID.TID 0000.0001) // account cnh
(PID.TID 0000.0001) // MITgcm UV Release: $Name:  $
(PID.TID 0000.0001) 
(PID.TID 0000.0001) // =======================================================
(PID.TID 0000.0001) // Execution Environment parameter file "eedata"
(PID.TID 0000.0001) // =======================================================
(PID.TID 0000.0001) ># Example "eedata" file
(PID.TID 0000.0001) ># Lines beginning "#" are comments
(PID.TID 0000.0001) ># nTx - No. threads per process in X
(PID.TID 0000.0001) ># nTy - No. threads per process in Y
(PID.TID 0000.0001) > &EEPARMS
(PID.TID 0000.0001) > nTx=1
(PID.TID 0000.0001) > nTy=1
(PID.TID 0000.0001) > &
(PID.TID 0000.0001) ># Note: Some systems use & as the
(PID.TID 0000.0001) ># namelist terminator. Other systems
(PID.TID 0000.0001) ># use a / character (as shown here).
(PID.TID 0000.0001) 
(PID.TID 0000.0001) // =======================================================
(PID.TID 0000.0001) // Computational Grid Specification ( see files "SIZE.h" )
(PID.TID 0000.0001) //                                  ( and "eedata"       )
(PID.TID 0000.0001) // =======================================================
(PID.TID 0000.0001)      nPx =    1 ; /* No. processes in X */
(PID.TID 0000.0001)      nPy =    1 ; /* No. processes in Y */
(PID.TID 0000.0001)      nSx =    1 ; /* No. tiles in X per process */
(PID.TID 0000.0001)      nSy =    1 ; /* No. tiles in Y per process */
(PID.TID 0000.0001)      sNx =   20 ; /* Tile size in X */
(PID.TID 0000.0001)      sNy =   16 ; /* Tile size in Y */
(PID.TID 0000.0001)      OLx =    3 ; /* Tile overlap distance in X */
(PID.TID 0000.0001)      OLy =    3 ; /* Tile overlap distance in Y */
(PID.TID 0000.0001)      nTx =    1 ; /* No. threads in X per process */
(PID.TID 0000.0001)      nTy =    1 ; /* No. threads in Y per process */
(PID.TID 0000.0001)       Nr =   23 ; /* No. levels in the vertical   */
(PID.TID 0000.0001)       nX =   20 ; /* Total domain size in X ( = nPx*nSx*sNx ) */
(PID.TID 0000.0001)       nY =   16 ; /* Total domain size in Y ( = nPy*nSy*sNy ) */
(PID.TID 0000.0001)   nTiles =    1 ; /* Total no. tiles per process ( = nSx*nSy ) */
(PID.TID 0000.0001)   nProcs =    1 ; /* Total no. processes ( = nPx*nPy ) */
(PID.TID 0000.0001) nThreads =    1 ; /* Total no. threads per process ( = nTx*nTy ) */
(PID.TID 0000.0001) usingMPI =    F ; /* Flag used to control whether MPI is in use */
(PID.TID 0000.0001)                   /*  note: To execute a program with MPI calls */
(PID.TID 0000.0001)                   /*  it must be launched appropriately e.g     */
(PID.TID 0000.0001)                   /*  "mpirun -np 64 ......"                    */
(PID.TID 0000.0001) 
(PID.TID 0000.0001) // ======================================================
(PID.TID 0000.0001) // Mapping of tiles to threads
(PID.TID 0000.0001) // ======================================================
(PID.TID 0000.0001) // -o- Thread   1, tiles (   1:   1,   1:   1)
(PID.TID 0000.0001) 
(PID.TID 0000.0001) // ======================================================
(PID.TID 0000.0001) // Tile <-> Tile connectvity table
(PID.TID 0000.0001) // ======================================================
(PID.TID 0000.0001) // Tile number: 000001 (process no. = 000001)
(PID.TID 0000.0001) //        WEST: Tile = 000001, Process = 000001, Comm = put
(PID.TID 0000.0001) //                bi = 000001, bj = 000001
(PID.TID 0000.0001) //        EAST: Tile = 000001, Process = 000001, Comm = put
(PID.TID 0000.0001) //                bi = 000001, bj = 000001
(PID.TID 0000.0001) //       SOUTH: Tile = 000001, Process = 000001, Comm = put
(PID.TID 0000.0001) //                bi = 000001, bj = 000001
(PID.TID 0000.0001) //       NORTH: Tile = 000001, Process = 000001, Comm = put
(PID.TID 0000.0001) //                bi = 000001, bj = 000001
(PID.TID 0000.0001) 
(PID.TID 0000.0001) // =======================================================
(PID.TID 0000.0001) // Model parameter file "data"
(PID.TID 0000.0001) // =======================================================
(PID.TID 0000.0001) ># ====================
(PID.TID 0000.0001) ># | Model parameters |
(PID.TID 0000.0001) ># ====================
(PID.TID 0000.0001) >#
(PID.TID 0000.0001) ># Continuous equation parameters
(PID.TID 0000.0001) >#
(PID.TID 0000.0001) >#   tRef            - Reference vertical potential temperature          (deg C)
(PID.TID 0000.0001) >#   sRef            - Reference vertical salinity                         (PSU)
(PID.TID 0000.0001) >#   viscAh          - Horizontal eddy viscosity coefficient             (m^2/s)
(PID.TID 0000.0001) >#   viscAz          - Vertical eddy viscosity coefficient               (m^2/s)
(PID.TID 0000.0001) >#   diffKhT         - Horizontal temperature diffusivity                (m^2/s)
(PID.TID 0000.0001) >#   diffKzT         - Vertical temperature diffusivity                  (m^2/s)
(PID.TID 0000.0001) >#   diffKhS         - Horizontal salt diffusivity                       (m^2/s)
(PID.TID 0000.0001) >#   diffKzS         - Vertical salt diffusivity                         (m^2/s)
(PID.TID 0000.0001) >#   f0              - Reference coriolis parameter,
(PID.TID 0000.0001) >#                     south edge of f on beta plane                       (1/s)
(PID.TID 0000.0001) >#   beta            - df/dy                                         (s^-1.m^-1)
(PID.TID 0000.0001) >#   tAlpha          - Linear EOS thermal expansion coefficient           (1/oC)
(PID.TID 0000.0001) >#   sBeta           - Linear EOS haline contraction coefficient         (1/ppt)
(PID.TID 0000.0001) >#   gravity         - Acceleration due to gravity                       (m/s^2)
(PID.TID 0000.0001) >#   gBaro           - Accel. due to gravity used in barotropic equation (m/s^2)
(PID.TID 0000.0001) >#   rigidLid        - Set to true to use rigid lid
(PID.TID 0000.0001) >#   implicitFreeSurface - Set to true to use implicit free surface
(PID.TID 0000.0001) >#   eosType         - Flag for linear or polynomial equation of state
(PID.TID 0000.0001) >#   momAdvection    - On/Off flag for momentum self transport
(PID.TID 0000.0001) >#   momViscosity    - On/Off flag for momentum mixing
(PID.TID 0000.0001) >#
(PID.TID 0000.0001) > &PARM01
(PID.TID 0000.0001) > tRef= 24.0 , 23.0 , 22.0 , 21.0 , 20.0 ,
(PID.TID 0000.0001) >       19.0 , 18.0 , 17.0 , 16.0 , 15.0 ,
(PID.TID 0000.0001) >       14.0 , 13.0 , 12.0 , 11.0 , 10.0 ,
(PID.TID 0000.0001) >        9.0 ,  8.0 ,  7.0 ,  6.0,   5.0 ,
(PID.TID 0000.0001) >        4.0 ,  3.0 ,  2.0 ,
(PID.TID 0000.0001) > sRef= 34.65, 34.75, 34.82, 34.87, 34.90,
(PID.TID 0000.0001) >       34.90, 34.86, 34.78, 34.69, 34.60,
(PID.TID 0000.0001) >       34.58, 34.62, 34.68, 34.72, 34.73,
(PID.TID 0000.0001) >       34.74, 34.73, 34.73, 34.72, 34.72,
(PID.TID 0000.0001) >       34.71, 34.70, 34.69,
(PID.TID 0000.0001) > no_slip_sides=.FALSE.,
(PID.TID 0000.0001) > no_slip_bottom=.TRUE.,
(PID.TID 0000.0001) > viscAz=1.93e-5,
(PID.TID 0000.0001) > viscAh=5.E4,
(PID.TID 0000.0001) > diffKhT=0.0,
(PID.TID 0000.0001) > diffKzT=1.46e-5,
(PID.TID 0000.0001) > diffKhS=0.0,
(PID.TID 0000.0001) > diffKzS=1.46e-5,
(PID.TID 0000.0001) > beta=1.E-11,
(PID.TID 0000.0001) > tAlpha=2.E-4,
(PID.TID 0000.0001) > sBeta =7.4E-4,
(PID.TID 0000.0001) > rigidLid=.FALSE.,
(PID.TID 0000.0001) > implicitFreeSurface=.TRUE.,
(PID.TID 0000.0001) > eosType='POLY3',
(PID.TID 0000.0001) > readBinaryPrec=32,
(PID.TID 0000.0001) > writeBinaryPrec=32,
(PID.TID 0000.0001) > saltStepping=.TRUE.,
(PID.TID 0000.0001) > tempStepping=.TRUE.,
(PID.TID 0000.0001) > momStepping=.TRUE.,
(PID.TID 0000.0001) > implicitDiffusion=.TRUE.,
(PID.TID 0000.0001) > implicitViscosity=.TRUE.,
(PID.TID 0000.0001) > globalFiles=.TRUE.,
(PID.TID 0000.0001) > allowFreezing=.FALSE.,
(PID.TID 0000.0001) > HeatCapacity_Cp = 3986.D0
(PID.TID 0000.0001) > gravity         = 9.8156,
(PID.TID 0000.0001) > gBaro           = 9.8156,
(PID.TID 0000.0001) > rhoNil          = 1027.D0
(PID.TID 0000.0001) > &
(PID.TID 0000.0001) >
(PID.TID 0000.0001) ># Elliptic solver parameters
(PID.TID 0000.0001) >#
(PID.TID 0000.0001) >#   cg2dMaxIters       - Maximum number of 2d solver iterations
(PID.TID 0000.0001) >#   cg2dTargetResidual - Solver target residual
(PID.TID 0000.0001) >#
(PID.TID 0000.0001) > &PARM02
(PID.TID 0000.0001) > cg2dMaxIters=500,
(PID.TID 0000.0001) > cg2dTargetResidual=1.D-8
(PID.TID 0000.0001) > &
(PID.TID 0000.0001) >
(PID.TID 0000.0001) ># Time stepping parameters
(PID.TID 0000.0001) >#
(PID.TID 0000.0001) >#   startTime         - Integration starting time                (s)
(PID.TID 0000.0001) >#   endTime           - Integration ending time                  (s)
(PID.TID 0000.0001) >#   tauCD             - CD scheme coupling timescale             (s)
(PID.TID 0000.0001) >#   deltaTMom         - Timestep for momemtum equations          (s)
(PID.TID 0000.0001) >#   deltaTtracer      - Tracer timestep                          (s)
(PID.TID 0000.0001) >#   deltaTClock       - Timestep used as model "clock"           (s)
(PID.TID 0000.0001) >#   abEps             - Adams-Bashforth stabilising factor
(PID.TID 0000.0001) >#   pChkPtFreq        - Frequency of permanent check pointing    (s)
(PID.TID 0000.0001) >#   chkPtFreq         - Frequency of rolling check pointing      (s)
(PID.TID 0000.0001) >#   dumpFreq          - Frequency at which model state is stored (s)
(PID.TID 0000.0001) >#   tauThetaClimRelax - Relaxation to climatology time scale     (s)
(PID.TID 0000.0001) >#   tauSaltClimRelax  - Relaxation to climatology time scale     (s)
(PID.TID 0000.0001) >#
(PID.TID 0000.0001) > &PARM03
(PID.TID 0000.0001) > tauCD=172800.,
(PID.TID 0000.0001) > startTime=0.0,
(PID.TID 0000.0001) > endTime=39600.,
(PID.TID 0000.0001) > deltaTmom=3600.0,
(PID.TID 0000.0001) > deltaTtracer=3600.0,
(PID.TID 0000.0001) > deltaTClock =3600.0,
(PID.TID 0000.0001) > cAdjFreq=0.,
(PID.TID 0000.0001) > abEps=0.1,
(PID.TID 0000.0001) > pChkptFreq=36000.,
(PID.TID 0000.0001) > chkptFreq= 0.,
(PID.TID 0000.0001) > dumpFreq = 0.,
(PID.TID 0000.0001) > tavefreq = 36000.,
(PID.TID 0000.0001) > tauSaltClimRelax = 4142330.,
(PID.TID 0000.0001) > tauThetaClimRelax = 0.,
(PID.TID 0000.0001) > &
(PID.TID 0000.0001) >
(PID.TID 0000.0001) ># Gridding parameters
(PID.TID 0000.0001) >#
(PID.TID 0000.0001) >#   usingSphericalPolarGrid - On/Off flag for spherical polar coordinates
(PID.TID 0000.0001) >#   usingCartesianGrid      - On/Off flag for selecting cartesian coordinates
(PID.TID 0000.0001) >#   delX                    - Zonal grid spacing         (degrees)
(PID.TID 0000.0001) >#   delY                    - Meridional grid spacing    (degrees)
(PID.TID 0000.0001) >#   delZ                    - Vertical grid spacing      (m)
(PID.TID 0000.0001) >#   phiMin                  - Southern boundary latitude (degrees)
(PID.TID 0000.0001) >#
(PID.TID 0000.0001) > &PARM04
(PID.TID 0000.0001) > usingCartesianGrid=.FALSE.,
(PID.TID 0000.0001) > usingSphericalPolarGrid=.TRUE.,
(PID.TID 0000.0001) > delX=180*2.E0,
(PID.TID 0000.0001) > delY=80*2.E0,
(PID.TID 0000.0001) > delZ= 10., 10., 15., 20., 20., 25., 35., 50., 75.,
(PID.TID 0000.0001) >       100., 150., 200., 275., 350., 415., 450.,
(PID.TID 0000.0001) >       500., 500., 500., 500., 500., 500., 500.
(PID.TID 0000.0001) > phimin=46.,
(PID.TID 0000.0001) > thetamin=280.,
(PID.TID 0000.0001) > rSphere         = 6371.D3
(PID.TID 0000.0001) > &
(PID.TID 0000.0001) >
(PID.TID 0000.0001) ># Input datasets
(PID.TID 0000.0001) >#
(PID.TID 0000.0001) >#   bathyFile       - File containing bathymetry
(PID.TID 0000.0001) >#   hydrogThetaFile - File containing initial potential temperature data
(PID.TID 0000.0001) >#   hydrogSaltFile  - File containing initial salinity data
(PID.TID 0000.0001) >#   zonalWindFile   - File containing zonal wind data
(PID.TID 0000.0001) >#   meridWindFile   - File containing meridional wind data
(PID.TID 0000.0001) >#   thetaClimFile   - File containing theta climatology used for relaxation
(PID.TID 0000.0001) >#   saltClimFile    - File containing salt climatology used for relaxation
(PID.TID 0000.0001) >#
(PID.TID 0000.0001) > &PARM05
(PID.TID 0000.0001) > bathyFile       = 'bathy.labsea',
(PID.TID 0000.0001) > hydrogThetaFile = 'LevCli_temp.labsea',
(PID.TID 0000.0001) > hydrogSaltFile  = 'LevCli_salt.labsea',
(PID.TID 0000.0001) > zonalWindFile   = ' ',
(PID.TID 0000.0001) > meridWindFile   = ' ',
(PID.TID 0000.0001) > EmPmRFile       = ' ',
(PID.TID 0000.0001) > surfQFile       = ' ',
(PID.TID 0000.0001) > surfQswFile     = ' ',
(PID.TID 0000.0001) > thetaClimFile   = ' ',
(PID.TID 0000.0001) > saltClimFile    = 'SSS.labsea'
(PID.TID 0000.0001) > &
(PID.TID 0000.0001) >
(PID.TID 0000.0001) ># Open-boundaries
(PID.TID 0000.0001) > &PARM06
(PID.TID 0000.0001) > &
(PID.TID 0000.0001) 
(PID.TID 0000.0001) S/R INI_PARMS ; read PARM01 : OK
(PID.TID 0000.0001) S/R INI_PARMS ; read PARM02 : OK
(PID.TID 0000.0001) S/R INI_PARMS ; read PARM03 : OK
(PID.TID 0000.0001) S/R INI_PARMS ; read PARM04 : OK
(PID.TID 0000.0001) S/R INI_PARMS ; read PARM05 : OK
(PID.TID 0000.0001) %MON XC_max                       =   3.1900000000000E+02
(PID.TID 0000.0001) %MON XC_min                       =   2.8100000000000E+02
(PID.TID 0000.0001) %MON XC_mean                      =   3.0000000000000E+02
(PID.TID 0000.0001) %MON XC_sd                        =   1.1532562594671E+01
(PID.TID 0000.0001) %MON XG_max                       =   3.1800000000000E+02
(PID.TID 0000.0001) %MON XG_min                       =   2.8000000000000E+02
(PID.TID 0000.0001) %MON XG_mean                      =   2.9900000000000E+02
(PID.TID 0000.0001) %MON XG_sd                        =   1.1532562594671E+01
(PID.TID 0000.0001) %MON DXC_max                      =   1.5166951523772E+05
(PID.TID 0000.0001) %MON DXC_min                      =   5.0026831972764E+04
(PID.TID 0000.0001) %MON DXC_mean                     =   1.0305926321463E+05
(PID.TID 0000.0001) %MON DXC_sd                       =   3.1375805318756E+04
(PID.TID 0000.0001) %MON DXF_max                      =   1.5166951523772E+05
(PID.TID 0000.0001) %MON DXF_min                      =   5.0026831972764E+04
(PID.TID 0000.0001) %MON DXF_mean                     =   1.0305926321463E+05
(PID.TID 0000.0001) %MON DXF_sd                       =   3.1375805318756E+04
(PID.TID 0000.0001) %MON DXG_max                      =   1.5448497309243E+05
(PID.TID 0000.0001) %MON DXG_min                      =   5.3800974869835E+04
(PID.TID 0000.0001) %MON DXG_mean                     =   1.0642630187324E+05
(PID.TID 0000.0001) %MON DXG_sd                       =   3.1081829200899E+04
(PID.TID 0000.0001) %MON DXV_max                      =   1.5448497309243E+05
(PID.TID 0000.0001) %MON DXV_min                      =   5.3800974869835E+04
(PID.TID 0000.0001) %MON DXV_mean                     =   1.0642630187324E+05
(PID.TID 0000.0001) %MON DXV_sd                       =   3.1081829200899E+04
(PID.TID 0000.0001) %MON YC_max                       =   7.7000000000000E+01
(PID.TID 0000.0001) %MON YC_min                       =   4.7000000000000E+01
(PID.TID 0000.0001) %MON YC_mean                      =   6.2000000000000E+01
(PID.TID 0000.0001) %MON YC_sd                        =   9.2195444572929E+00
(PID.TID 0000.0001) %MON YG_max                       =   7.6000000000000E+01
(PID.TID 0000.0001) %MON YG_min                       =   4.6000000000000E+01
(PID.TID 0000.0001) %MON YG_mean                      =   6.1000000000000E+01
(PID.TID 0000.0001) %MON YG_sd                        =   9.2195444572929E+00
(PID.TID 0000.0001) %MON DYC_max                      =   2.2238985328912E+05
(PID.TID 0000.0001) %MON DYC_min                      =   2.2238985328912E+05
(PID.TID 0000.0001) %MON DYC_mean                     =   2.2238985328912E+05
(PID.TID 0000.0001) %MON DYC_sd                       =   6.1118043959141E-10
(PID.TID 0000.0001) %MON DYF_max                      =   2.2238985328912E+05
(PID.TID 0000.0001) %MON DYF_min                      =   2.2238985328912E+05
(PID.TID 0000.0001) %MON DYF_mean                     =   2.2238985328912E+05
(PID.TID 0000.0001) %MON DYF_sd                       =   6.1118043959141E-10
(PID.TID 0000.0001) %MON DYG_max                      =   2.2238985328912E+05
(PID.TID 0000.0001) %MON DYG_min                      =   2.2238985328912E+05
(PID.TID 0000.0001) %MON DYG_mean                     =   2.2238985328912E+05
(PID.TID 0000.0001) %MON DYG_sd                       =   6.1118043959141E-10
(PID.TID 0000.0001) %MON DYU_max                      =   2.2238985328912E+05
(PID.TID 0000.0001) %MON DYU_min                      =   2.2238985328912E+05
(PID.TID 0000.0001) %MON DYU_mean                     =   2.2238985328912E+05
(PID.TID 0000.0001) %MON DYU_sd                       =   6.1118043959141E-10
(PID.TID 0000.0001) %MON RA_max                       =   3.3728048822756E+10
(PID.TID 0000.0001) %MON RA_min                       =   1.1124894996734E+10
(PID.TID 0000.0001) %MON RA_mean                      =   2.2918170839356E+10
(PID.TID 0000.0001) %MON RA_sd                        =   6.9773064942263E+09
(PID.TID 0000.0001) %MON RAW_max                      =   3.3728048822756E+10
(PID.TID 0000.0001) %MON RAW_min                      =   1.1124894996734E+10
(PID.TID 0000.0001) %MON RAW_mean                     =   2.2918170839356E+10
(PID.TID 0000.0001) %MON RAW_sd                       =   6.9773064942263E+09
(PID.TID 0000.0001) %MON RAS_max                      =   3.4354146294179E+10
(PID.TID 0000.0001) %MON RAS_min                      =   1.1964183470077E+10
(PID.TID 0000.0001) %MON RAS_mean                     =   2.3666928057229E+10
(PID.TID 0000.0001) %MON RAS_sd                       =   6.9119325076329E+09
(PID.TID 0000.0001) %MON RAZ_max                      =   3.4354146294179E+10
(PID.TID 0000.0001) %MON RAZ_min                      =   1.1964183470077E+10
(PID.TID 0000.0001) %MON RAZ_mean                     =   2.3666928057229E+10
(PID.TID 0000.0001) %MON RAZ_sd                       =   6.9119325076329E+09
(PID.TID 0000.0001)  MDSREADFIELD: opening global file: bathy.labsea
(PID.TID 0000.0001) // =======================================================
(PID.TID 0000.0001) // Field Model R_low (ini_masks_etc) at iteration          1
(PID.TID 0000.0001) // CMIN =         -4.200000000000000E+03
(PID.TID 0000.0001) // CMAX =         -5.500000000000000E+01
(PID.TID 0000.0001) // CINT =          1.535185185185185E+02
(PID.TID 0000.0001) // SYMBOLS (CMIN->CMAX): -abcdefghijklmnopqrstuvwxyz+
(PID.TID 0000.0001) //                  0.0: .
(PID.TID 0000.0001) // RANGE I (Lo:Hi:Step):(  -2:  23:   1)
(PID.TID 0000.0001) // RANGE J (Lo:Hi:Step):(  19:  -2:  -1)
(PID.TID 0000.0001) // RANGE K (Lo:Hi:Step):(   1:   1:   1)
(PID.TID 0000.0001) // =======================================================
(PID.TID 0000.0001) K =   1
(PID.TID 0000.0001) //                I=7       I=17
(PID.TID 0000.0001) // |--J--|**0123456|890123456|890123
(PID.TID 0000.0001) //     19 cc-..........+.zzxmgcc-...
(PID.TID 0000.0001) //     18 jc-.......+zzz..zzsmjc-...
(PID.TID 0000.0001) //     17 wc-........++z+++z+wwc-...
(PID.TID 0000.0001) //     16 ....zyyz................zy
(PID.TID 0000.0001) //     15 ...yxwwuspxyxz.........yxw
(PID.TID 0000.0001) //     14 ....+wwspppsxzz.........+w
(PID.TID 0000.0001) //     13 .......zwsppsyz...........
(PID.TID 0000.0001) //     12 .........+ypswzz+.........
(PID.TID 0000.0001) //     11 ...........+wwy+..........
(PID.TID 0000.0001) //     10 ..........zzzywy+.........
(PID.TID 0000.0001) //      9 ..z.......+zxsmmm+....z...
(PID.TID 0000.0001) //      8 ..s.....zzzxumjjjjuz..s...
(PID.TID 0000.0001) //      7 pmj......z.+zmjggggjpmj...
(PID.TID 0000.0001) //      6 ggg.........zxmjggggggg...
(PID.TID 0000.0001) //      5 ggg..........zzsjgggggg...
(PID.TID 0000.0001) //      4 ccg............zzmgcccg...
(PID.TID 0000.0001) //      3 cc-..........+.zzxmgcc-...
(PID.TID 0000.0001) //      2 jc-.......+zzz..zzsmjc-...
(PID.TID 0000.0001) //      1 wc-........++z+++z+wwc-...
(PID.TID 0000.0001) //      0 ....zyyz................zy
(PID.TID 0000.0001) //     -1 ...yxwwuspxyxz.........yxw
(PID.TID 0000.0001) //     -2 ....+wwspppsxzz.........+w
(PID.TID 0000.0001) // =======================================================
(PID.TID 0000.0001) // END OF FIELD                                          =
(PID.TID 0000.0001) // =======================================================
(PID.TID 0000.0001) 
(PID.TID 0000.0001) // =======================================================
(PID.TID 0000.0001) // Field Model Ro_surf (ini_masks_etc) at iteration          1
(PID.TID 0000.0001) // CMIN =          1.000000000000000E+32
(PID.TID 0000.0001) // CMAX =         -1.000000000000000E+32
(PID.TID 0000.0001) // CINT =          0.000000000000000E+00
(PID.TID 0000.0001) // SYMBOLS (CMIN->CMAX): -abcdefghijklmnopqrstuvwxyz+
(PID.TID 0000.0001) //                  0.0: .
(PID.TID 0000.0001) // RANGE I (Lo:Hi:Step):(  -2:  23:   1)
(PID.TID 0000.0001) // RANGE J (Lo:Hi:Step):(  19:  -2:  -1)
(PID.TID 0000.0001) // RANGE K (Lo:Hi:Step):(   1:   1:   1)
(PID.TID 0000.0001) // =======================================================
(PID.TID 0000.0001) K =   1
(PID.TID 0000.0001) //                I=7       I=17
(PID.TID 0000.0001) // |--J--|**0123456|890123456|890123
(PID.TID 0000.0001) //     19 ..........................
(PID.TID 0000.0001) //     18 ..........................
(PID.TID 0000.0001) //     17 ..........................
(PID.TID 0000.0001) //     16 ..........................
(PID.TID 0000.0001) //     15 ..........................
(PID.TID 0000.0001) //     14 ..........................
(PID.TID 0000.0001) //     13 ..........................
(PID.TID 0000.0001) //     12 ..........................
(PID.TID 0000.0001) //     11 ..........................
(PID.TID 0000.0001) //     10 ..........................
(PID.TID 0000.0001) //      9 ..........................
(PID.TID 0000.0001) //      8 ..........................
(PID.TID 0000.0001) //      7 ..........................
(PID.TID 0000.0001) //      6 ..........................
(PID.TID 0000.0001) //      5 ..........................
(PID.TID 0000.0001) //      4 ..........................
(PID.TID 0000.0001) //      3 ..........................
(PID.TID 0000.0001) //      2 ..........................
(PID.TID 0000.0001) //      1 ..........................
(PID.TID 0000.0001) //      0 ..........................
(PID.TID 0000.0001) //     -1 ..........................
(PID.TID 0000.0001) //     -2 ..........................
(PID.TID 0000.0001) // =======================================================
(PID.TID 0000.0001) // END OF FIELD                                          =
(PID.TID 0000.0001) // =======================================================
(PID.TID 0000.0001) 
(PID.TID 0000.0001) // =======================================================
(PID.TID 0000.0001) // Field hFacC at iteration          1
(PID.TID 0000.0001) // CMIN =          1.000000000000000E+00
(PID.TID 0000.0001) // CMAX =          1.000000000000000E+00
(PID.TID 0000.0001) // CINT =          0.000000000000000E+00
(PID.TID 0000.0001) // SYMBOLS (CMIN->CMAX): -abcdefghijklmnopqrstuvwxyz+
(PID.TID 0000.0001) //                  0.0: .
(PID.TID 0000.0001) // RANGE I (Lo:Hi:Step):(  -2:  23:   1)
(PID.TID 0000.0001) // RANGE J (Lo:Hi:Step):(  19:  -2:  -1)
(PID.TID 0000.0001) // RANGE K (Lo:Hi:Step):(   1:   1:   1)
(PID.TID 0000.0001) // =======================================================
(PID.TID 0000.0001) K =   1
(PID.TID 0000.0001) //                I=7       I=17
(PID.TID 0000.0001) // |--J--|**0123456|890123456|890123
(PID.TID 0000.0001) //     19 ---..........-.--------...
(PID.TID 0000.0001) //     18 ---.......----..-------...
(PID.TID 0000.0001) //     17 ---........------------...
(PID.TID 0000.0001) //     16 ....----................--
(PID.TID 0000.0001) //     15 ...-----------.........---
(PID.TID 0000.0001) //     14 ....-----------.........--
(PID.TID 0000.0001) //     13 .......--------...........
(PID.TID 0000.0001) //     12 .........--------.........
(PID.TID 0000.0001) //     11 ...........-----..........
(PID.TID 0000.0001) //     10 ..........-------.........
(PID.TID 0000.0001) //      9 ..-.......--------....-...
(PID.TID 0000.0001) //      8 ..-.....------------..-...
(PID.TID 0000.0001) //      7 ---......-.------------...
(PID.TID 0000.0001) //      6 ---.........-----------...
(PID.TID 0000.0001) //      5 ---..........----------...
(PID.TID 0000.0001) //      4 ---............--------...
(PID.TID 0000.0001) //      3 ---..........-.--------...
(PID.TID 0000.0001) //      2 ---.......----..-------...
(PID.TID 0000.0001) //      1 ---........------------...
(PID.TID 0000.0001) //      0 ....----................--
(PID.TID 0000.0001) //     -1 ...-----------.........---
(PID.TID 0000.0001) //     -2 ....-----------.........--
(PID.TID 0000.0001) // =======================================================
(PID.TID 0000.0001) // END OF FIELD                                          =
(PID.TID 0000.0001) // =======================================================
(PID.TID 0000.0001) 
(PID.TID 0000.0001) // =======================================================
(PID.TID 0000.0001) // Field hFacW at iteration          1
(PID.TID 0000.0001) // CMIN =          1.000000000000000E+00
(PID.TID 0000.0001) // CMAX =          1.000000000000000E+00
(PID.TID 0000.0001) // CINT =          0.000000000000000E+00
(PID.TID 0000.0001) // SYMBOLS (CMIN->CMAX): -abcdefghijklmnopqrstuvwxyz+
(PID.TID 0000.0001) //                  0.0: .
(PID.TID 0000.0001) // RANGE I (Lo:Hi:Step):(  -2:  23:   1)
(PID.TID 0000.0001) // RANGE J (Lo:Hi:Step):(  19:  -2:  -1)
(PID.TID 0000.0001) // RANGE K (Lo:Hi:Step):(   1:   1:   1)
(PID.TID 0000.0001) // =======================================================
(PID.TID 0000.0001) K =   1
(PID.TID 0000.0001) //                I=7       I=17
(PID.TID 0000.0001) // |--J--|**0123456|890123456|890123
(PID.TID 0000.0001) //     19 ---.............-------...
(PID.TID 0000.0001) //     18 ---........---...------...
(PID.TID 0000.0001) //     17 ---.........-----------...
(PID.TID 0000.0001) //     16 .....---.................-
(PID.TID 0000.0001) //     15 ....----------..........--
(PID.TID 0000.0001) //     14 .....----------..........-
(PID.TID 0000.0001) //     13 ........-------...........
(PID.TID 0000.0001) //     12 ..........-------.........
(PID.TID 0000.0001) //     11 ............----..........
(PID.TID 0000.0001) //     10 ...........------.........
(PID.TID 0000.0001) //      9 ...........-------........
(PID.TID 0000.0001) //      8 .........-----------......
(PID.TID 0000.0001) //      7 ---.........-----------...
(PID.TID 0000.0001) //      6 ---..........----------...
(PID.TID 0000.0001) //      5 ---...........---------...
(PID.TID 0000.0001) //      4 ---.............-------...
(PID.TID 0000.0001) //      3 ---.............-------...
(PID.TID 0000.0001) //      2 ---........---...------...
(PID.TID 0000.0001) //      1 ---.........-----------...
(PID.TID 0000.0001) //      0 .....---.................-
(PID.TID 0000.0001) //     -1 ....----------..........--
(PID.TID 0000.0001) //     -2 .....----------..........-
(PID.TID 0000.0001) // =======================================================
(PID.TID 0000.0001) // END OF FIELD                                          =
(PID.TID 0000.0001) // =======================================================
(PID.TID 0000.0001) 
(PID.TID 0000.0001) // =======================================================
(PID.TID 0000.0001) // Field hFacS at iteration          1
(PID.TID 0000.0001) // CMIN =          1.000000000000000E+00
(PID.TID 0000.0001) // CMAX =          1.000000000000000E+00
(PID.TID 0000.0001) // CINT =          0.000000000000000E+00
(PID.TID 0000.0001) // SYMBOLS (CMIN->CMAX): -abcdefghijklmnopqrstuvwxyz+
(PID.TID 0000.0001) //                  0.0: .
(PID.TID 0000.0001) // RANGE I (Lo:Hi:Step):(  -2:  23:   1)
(PID.TID 0000.0001) // RANGE J (Lo:Hi:Step):(  19:  -2:  -1)
(PID.TID 0000.0001) // RANGE K (Lo:Hi:Step):(   1:   1:   1)
(PID.TID 0000.0001) // =======================================================
(PID.TID 0000.0001) K =   1
(PID.TID 0000.0001) //                I=7       I=17
(PID.TID 0000.0001) // |--J--|**0123456|890123456|890123
(PID.TID 0000.0001) //     19 ---..........-..-------...
(PID.TID 0000.0001) //     18 ---........---..-------...
(PID.TID 0000.0001) //     17 ..........................
(PID.TID 0000.0001) //     16 ....----................--
(PID.TID 0000.0001) //     15 ....----------..........--
(PID.TID 0000.0001) //     14 .......--------...........
(PID.TID 0000.0001) //     13 .........------...........
(PID.TID 0000.0001) //     12 ...........-----..........
(PID.TID 0000.0001) //     11 ...........-----..........
(PID.TID 0000.0001) //     10 ..........-------.........
(PID.TID 0000.0001) //      9 ..-.......--------....-...
(PID.TID 0000.0001) //      8 ..-......-.---------..-...
(PID.TID 0000.0001) //      7 ---.........-----------...
(PID.TID 0000.0001) //      6 ---..........----------...
(PID.TID 0000.0001) //      5 ---............--------...
(PID.TID 0000.0001) //      4 ---............--------...
(PID.TID 0000.0001) //      3 ---..........-..-------...
(PID.TID 0000.0001) //      2 ---........---..-------...
(PID.TID 0000.0001) //      1 ..........................
(PID.TID 0000.0001) //      0 ....----................--
(PID.TID 0000.0001) //     -1 ....----------..........--
(PID.TID 0000.0001) //     -2 .......--------...........
(PID.TID 0000.0001) // =======================================================
(PID.TID 0000.0001) // END OF FIELD                                          =
(PID.TID 0000.0001) // =======================================================
(PID.TID 0000.0001) 
(PID.TID 0000.0001) %MON fCori_max                    =   1.4171638136144E-04
(PID.TID 0000.0001) %MON fCori_min                    =   1.0637108408252E-04
(PID.TID 0000.0001) %MON fCori_mean                   =   1.2676338344768E-04
(PID.TID 0000.0001) %MON fCori_sd                     =   1.1001401444773E-05
(PID.TID 0000.0001) %MON fCoriG_max                   =   1.4112379284621E-04
(PID.TID 0000.0001) %MON fCoriG_min                   =   1.0462373297123E-04
(PID.TID 0000.0001) %MON fCoriG_mean                  =   1.2556776212280E-04
(PID.TID 0000.0001) %MON fCoriG_sd                    =   1.1352720951562E-05
(PID.TID 0000.0001)  PACKAGES_BOOT: opening data.pkg
(PID.TID 0000.0001)  OPEN_COPY_DATA_FILE: opening file data.pkg
(PID.TID 0000.0001) // =======================================================
(PID.TID 0000.0001) // Parameter file "data.pkg"
(PID.TID 0000.0001) // =======================================================
(PID.TID 0000.0001) ># Packages
(PID.TID 0000.0001) > &PACKAGES
(PID.TID 0000.0001) >  useGMRedi = .TRUE.,
(PID.TID 0000.0001) >  useKPP    = .TRUE.,
(PID.TID 0000.0001) >  useSEAICE = .TRUE.,
(PID.TID 0000.0001) >  useECCO   = .FALSE.,
(PID.TID 0000.0001) > &
(PID.TID 0000.0001) 
(PID.TID 0000.0001)  PACKAGES_BOOT: finished reading data.pkg
(PID.TID 0000.0001)  GM_READPARMS: opening data.gmredi
(PID.TID 0000.0001)  OPEN_COPY_DATA_FILE: opening file data.gmredi
(PID.TID 0000.0001) // =======================================================
(PID.TID 0000.0001) // Parameter file "data.gmredi"
(PID.TID 0000.0001) // =======================================================
(PID.TID 0000.0001) ># GMREDI parameters
(PID.TID 0000.0001) > &GM_PARM01
(PID.TID 0000.0001) >  GM_background_K = 571.0
(PID.TID 0000.0001) >  GM_taper_scheme = 'ldd97'
(PID.TID 0000.0001) > &
(PID.TID 0000.0001) 
(PID.TID 0000.0001)  GM_READPARMS: finished reading data.gmredi
(PID.TID 0000.0001)  KPP_INIT: opening data.kpp
(PID.TID 0000.0001)  OPEN_COPY_DATA_FILE: opening file data.kpp
(PID.TID 0000.0001) // =======================================================
(PID.TID 0000.0001) // Parameter file "data.kpp"
(PID.TID 0000.0001) // =======================================================
(PID.TID 0000.0001) ># KPP parameters
(PID.TID 0000.0001) > &KPP_PARM01
(PID.TID 0000.0001) > KPPmixingMaps   = .FALSE.,
(PID.TID 0000.0001) > KPPwriteState   = .TRUE.,
(PID.TID 0000.0001) > kpp_taveFreq    = 864000.,
(PID.TID 0000.0001) > &
(PID.TID 0000.0001) 
(PID.TID 0000.0001)  KPP_INIT: finished reading data.kpp
(PID.TID 0000.0001)  SEAICE_INIT: opening data.seaice
(PID.TID 0000.0001)  OPEN_COPY_DATA_FILE: opening file data.seaice
(PID.TID 0000.0001) // =======================================================
(PID.TID 0000.0001) // Parameter file "data.seaice"
(PID.TID 0000.0001) // =======================================================
(PID.TID 0000.0001) ># SEAICE parameters
(PID.TID 0000.0001) > &SEAICE_PARM01
(PID.TID 0000.0001) >      SEAICEwriteState = .TRUE.
(PID.TID 0000.0001) >      gairxFile = 'u10m.labsea79'
(PID.TID 0000.0001) >      gairyFile = 'v10m.labsea79'
(PID.TID 0000.0001) >      tairFile  = 'tair.labsea1979'
(PID.TID 0000.0001) >      qaFile    = 'qa.labsea1979'
(PID.TID 0000.0001) >      floFile   = 'flo.labsea1979'
(PID.TID 0000.0001) >      fshFile   = 'fsh.labsea1979'
(PID.TID 0000.0001) >      rainFile  = 'prate.labsea1979'
(PID.TID 0000.0001) >      evapFile  = 'evap.labsea1979'
(PID.TID 0000.0001) >      runoffFile= ' '
(PID.TID 0000.0001) >      WindForcingStart  = -1317600.
(PID.TID 0000.0001) >      WindForcingEnd    = 32940000.
(PID.TID 0000.0001) >      WindForcingPeriod = 2635200.
(PID.TID 0000.0001) >      FluxForcingStart  = -1317600.
(PID.TID 0000.0001) >      FluxForcingEnd    = 32940000.
(PID.TID 0000.0001) >      FluxForcingPeriod = 2635200.
(PID.TID 0000.0001) >      SSSForcingStart   = -1317600.
(PID.TID 0000.0001) >      SSSForcingEnd     = 32940000.
(PID.TID 0000.0001) >      SSSForcingPeriod  = 2635200.
(PID.TID 0000.0001) >      StartingYear      = 1979.
(PID.TID 0000.0001) >      EndingYear        = 1980.
(PID.TID 0000.0001) > &
(PID.TID 0000.0001) 
(PID.TID 0000.0001)  SEAICE_INIT: finished reading data.seaice
(PID.TID 0000.0001) KPP_CHECK: #define ALLOW_KPP
(PID.TID 0000.0001) GMREDI_CHECK: #define GMREDI
(PID.TID 0000.0001) GM_AdvForm =  /* if FALSE => use SkewFlux Form */
(PID.TID 0000.0001)                   F
(PID.TID 0000.0001)     ;
(PID.TID 0000.0001) GM_ExtraDiag =  /* Tensor Extra Diag (line 1&2) non 0 */
(PID.TID 0000.0001)                   F
(PID.TID 0000.0001)     ;
(PID.TID 0000.0001) GM_isopycK =   /* Background Isopyc. Diffusivity ( m^2/s ) */
(PID.TID 0000.0001)                 5.710000000000000E+02
(PID.TID 0000.0001)     ;
(PID.TID 0000.0001)  GM_skewflx*K =   /* Background GM_SkewFlx Diffusivity ( m^2/s ) */
(PID.TID 0000.0001)                 5.710000000000000E+02
(PID.TID 0000.0001)     ;
(PID.TID 0000.0001)  GM_advec*K =   /* Backg. GM-Advec(=Bolus) Diffusivity ( m^2/s ) */
(PID.TID 0000.0001)                 0.000000000000000E+00
(PID.TID 0000.0001)     ;
(PID.TID 0000.0001)  GM_Visbeck_alpha =   /* Visbeck alpha coeff. ( ) */
(PID.TID 0000.0001)                 0.000000000000000E+00
(PID.TID 0000.0001)     ;
(PID.TID 0000.0001)  Tapering/Cliping : ldd97
(PID.TID 0000.0001) SEAICE_CHECK: #define ALLOW_SEAICE
(PID.TID 0000.0001) // CG2D normalisation factor =          0.1609493984093918964983078E-03
(PID.TID 0000.0001) 
(PID.TID 0000.0001) CONFIG_CHECK: OK
(PID.TID 0000.0001) // =======================================================
(PID.TID 0000.0001) // Model configuration
(PID.TID 0000.0001) // =======================================================
(PID.TID 0000.0001) //
(PID.TID 0000.0001) // "Physical" paramters ( PARM01 in namelist )
(PID.TID 0000.0001) //
(PID.TID 0000.0001) tRef =   /* Reference temperature profile ( oC or oK ) */
(PID.TID 0000.0001)                 2.400000000000000E+01,      /* K =  1 */
(PID.TID 0000.0001)                 2.300000000000000E+01,      /* K =  2 */
(PID.TID 0000.0001)                 2.200000000000000E+01,      /* K =  3 */
(PID.TID 0000.0001)                 2.100000000000000E+01,      /* K =  4 */
(PID.TID 0000.0001)                 2.000000000000000E+01,      /* K =  5 */
(PID.TID 0000.0001)                 1.900000000000000E+01,      /* K =  6 */
(PID.TID 0000.0001)                 1.800000000000000E+01,      /* K =  7 */
(PID.TID 0000.0001)                 1.700000000000000E+01,      /* K =  8 */
(PID.TID 0000.0001)                 1.600000000000000E+01,      /* K =  9 */
(PID.TID 0000.0001)                 1.500000000000000E+01,      /* K = 10 */
(PID.TID 0000.0001)                 1.400000000000000E+01,      /* K = 11 */
(PID.TID 0000.0001)                 1.300000000000000E+01,      /* K = 12 */
(PID.TID 0000.0001)                 1.200000000000000E+01,      /* K = 13 */
(PID.TID 0000.0001)                 1.100000000000000E+01,      /* K = 14 */
(PID.TID 0000.0001)                 1.000000000000000E+01,      /* K = 15 */
(PID.TID 0000.0001)                 9.000000000000000E+00,      /* K = 16 */
(PID.TID 0000.0001)                 8.000000000000000E+00,      /* K = 17 */
(PID.TID 0000.0001)                 7.000000000000000E+00,      /* K = 18 */
(PID.TID 0000.0001)                 6.000000000000000E+00,      /* K = 19 */
(PID.TID 0000.0001)                 5.000000000000000E+00,      /* K = 20 */
(PID.TID 0000.0001)                 4.000000000000000E+00,      /* K = 21 */
(PID.TID 0000.0001)                 3.000000000000000E+00,      /* K = 22 */
(PID.TID 0000.0001)                 2.000000000000000E+00       /* K = 23 */
(PID.TID 0000.0001)     ;
(PID.TID 0000.0001) sRef =   /* Reference salinity profile ( ppt ) */
(PID.TID 0000.0001)                 3.465000000000000E+01,      /* K =  1 */
(PID.TID 0000.0001)                 3.475000000000000E+01,      /* K =  2 */
(PID.TID 0000.0001)                 3.482000000000000E+01,      /* K =  3 */
(PID.TID 0000.0001)                 3.487000000000000E+01,      /* K =  4 */
(PID.TID 0000.0001)     2 @  3.490000000000000E+01,             /* K =  5:  6 */
(PID.TID 0000.0001)                 3.486000000000000E+01,      /* K =  7 */
(PID.TID 0000.0001)                 3.478000000000000E+01,      /* K =  8 */
(PID.TID 0000.0001)                 3.469000000000000E+01,      /* K =  9 */
(PID.TID 0000.0001)                 3.460000000000000E+01,      /* K = 10 */
(PID.TID 0000.0001)                 3.458000000000000E+01,      /* K = 11 */
(PID.TID 0000.0001)                 3.462000000000000E+01,      /* K = 12 */
(PID.TID 0000.0001)                 3.468000000000000E+01,      /* K = 13 */
(PID.TID 0000.0001)                 3.472000000000000E+01,      /* K = 14 */
(PID.TID 0000.0001)                 3.473000000000000E+01,      /* K = 15 */
(PID.TID 0000.0001)                 3.474000000000000E+01,      /* K = 16 */
(PID.TID 0000.0001)     2 @  3.473000000000000E+01,             /* K = 17: 18 */
(PID.TID 0000.0001)     2 @  3.472000000000000E+01,             /* K = 19: 20 */
(PID.TID 0000.0001)                 3.471000000000000E+01,      /* K = 21 */
(PID.TID 0000.0001)                 3.470000000000000E+01,      /* K = 22 */
(PID.TID 0000.0001)                 3.469000000000000E+01       /* K = 23 */
(PID.TID 0000.0001)     ;
(PID.TID 0000.0001) viscAh =   /* Lateral eddy viscosity ( m^2/s ) */
(PID.TID 0000.0001)                 5.000000000000000E+04
(PID.TID 0000.0001)     ;
(PID.TID 0000.0001) viscAh =   /* Lateral biharmonic viscosity ( m^4/s ) */
(PID.TID 0000.0001)                 0.000000000000000E+00
(PID.TID 0000.0001)     ;
(PID.TID 0000.0001) no_slip_sides =  /* Viscous BCs: No-slip sides */
(PID.TID 0000.0001)                   F
(PID.TID 0000.0001)     ;
(PID.TID 0000.0001) viscAz =   /* Vertical eddy viscosity ( m^2/s ) */
(PID.TID 0000.0001)                 1.930000000000000E-05
(PID.TID 0000.0001)     ;
(PID.TID 0000.0001) viscAr =   /* Vertical eddy viscosity ( units of r^2/s ) */
(PID.TID 0000.0001)                 1.930000000000000E-05
(PID.TID 0000.0001)     ;
(PID.TID 0000.0001) diffKhT =   /* Laplacian diffusion of heat laterally ( m^2/s ) */
(PID.TID 0000.0001)                 0.000000000000000E+00
(PID.TID 0000.0001)     ;
(PID.TID 0000.0001) diffK4T =   /* Bihaarmonic diffusion of heat laterally ( m^4/s ) */
(PID.TID 0000.0001)                 0.000000000000000E+00
(PID.TID 0000.0001)     ;
(PID.TID 0000.0001) diffKzT =   /* Laplacian diffusion of heat vertically ( m^2/s ) */
(PID.TID 0000.0001)                 1.460000000000000E-05
(PID.TID 0000.0001)     ;
(PID.TID 0000.0001) diffKrT =   /* Laplacian diffusion of heat vertically ( m^2/s ) */
(PID.TID 0000.0001)                 1.460000000000000E-05
(PID.TID 0000.0001)     ;
(PID.TID 0000.0001) diffKhS =   /* Laplacian diffusion of salt laterally ( m^2/s ) */
(PID.TID 0000.0001)                 0.000000000000000E+00
(PID.TID 0000.0001)     ;
(PID.TID 0000.0001) diffK4S =   /* Bihaarmonic diffusion of salt laterally ( m^4/s ) */
(PID.TID 0000.0001)                 0.000000000000000E+00
(PID.TID 0000.0001)     ;
(PID.TID 0000.0001) diffKzS =   /* Laplacian diffusion of salt vertically ( m^2/s ) */
(PID.TID 0000.0001)                 1.460000000000000E-05
(PID.TID 0000.0001)     ;
(PID.TID 0000.0001) diffKrS =   /* Laplacian diffusion of salt vertically ( m^2/s ) */
(PID.TID 0000.0001)                 1.460000000000000E-05
(PID.TID 0000.0001)     ;
(PID.TID 0000.0001) tAlpha =   /* Linear EOS thermal expansion coefficient ( 1/degree ) */
(PID.TID 0000.0001)                 2.000000000000000E-04
(PID.TID 0000.0001)     ;
(PID.TID 0000.0001) sBeta =   /* Linear EOS haline contraction coefficient ( 1/ppt ) */
(PID.TID 0000.0001)                 7.400000000000000E-04
(PID.TID 0000.0001)     ;
(PID.TID 0000.0001)   1  13.499  32.600  24.480  -0.201   0.771  -0.005  -0.002   0.000   0.000   0.000   0.000   0.000
(PID.TID 0000.0001)   2  13.498  32.600  24.525  -0.202   0.771  -0.005  -0.002   0.000   0.000   0.000   0.000   0.000
(PID.TID 0000.0001)   3  13.496  32.600  24.581  -0.202   0.771  -0.005  -0.002   0.000   0.000   0.000   0.000   0.000
(PID.TID 0000.0001)   4  13.494  32.600  24.660  -0.202   0.771  -0.005  -0.002   0.000   0.000   0.000   0.000   0.000
(PID.TID 0000.0001)   5  13.491  32.600  24.750  -0.203   0.771  -0.005  -0.002   0.000   0.000   0.000   0.000   0.000
(PID.TID 0000.0001)   6  13.488  32.600  24.851  -0.203   0.770  -0.005  -0.002   0.000   0.000   0.000   0.000   0.000
(PID.TID 0000.0001)   7  13.484  32.600  24.985  -0.204   0.770  -0.005  -0.002   0.000   0.000   0.000   0.000   0.000
(PID.TID 0000.0001)   8  13.478  32.600  25.176  -0.204   0.770  -0.005  -0.002   0.000   0.000   0.000   0.000   0.000
(PID.TID 0000.0001)   9  13.469  32.600  25.456  -0.205   0.769  -0.005  -0.002   0.000   0.000   0.000   0.000   0.000
(PID.TID 0000.0001)  10   8.467  35.150  28.748  -0.163   0.781  -0.005  -0.002   0.001   0.000   0.000   0.000   0.000
(PID.TID 0000.0001)  11   8.454  35.150  29.315  -0.166   0.780  -0.005  -0.002   0.001   0.000   0.000   0.000   0.000
(PID.TID 0000.0001)  12   5.946  34.900  30.300  -0.143   0.785  -0.006  -0.002   0.001   0.000   0.000   0.000   0.000
(PID.TID 0000.0001)  13   4.433  34.900  31.591  -0.132   0.786  -0.006  -0.003   0.000   0.000   0.000   0.000   0.000
(PID.TID 0000.0001)  14   3.909  34.750  32.966  -0.134   0.785  -0.006  -0.003   0.000   0.000   0.000   0.000   0.000
(PID.TID 0000.0001)  15   1.899  34.800  35.002  -0.121   0.787  -0.006  -0.003   0.000   0.000   0.000   0.000   0.000
(PID.TID 0000.0001)  16   1.372  34.750  36.991  -0.127   0.785  -0.006  -0.003  -0.001   0.000   0.000   0.000   0.000
(PID.TID 0000.0001)  17   1.332  34.800  39.171  -0.140   0.782  -0.006  -0.003  -0.001   0.000   0.000   0.000   0.000
(PID.TID 0000.0001)  18   0.797  34.800  41.472  -0.147   0.779  -0.006  -0.003  -0.001   0.000   0.000   0.000   0.000
(PID.TID 0000.0001)  19   0.749  34.800  43.682  -0.160   0.775  -0.005  -0.002  -0.002   0.000   0.000   0.000   0.000
(PID.TID 0000.0001)  20   0.214  34.750  45.912  -0.168   0.772  -0.005  -0.002  -0.002   0.000   0.000   0.000   0.000
(PID.TID 0000.0001)  21   0.160  34.750  48.080  -0.181   0.768  -0.005  -0.002  -0.003   0.000   0.000   0.000   0.000
(PID.TID 0000.0001)  22   0.584  34.750  50.131  -0.197   0.763  -0.005  -0.002  -0.001   0.000   0.000   0.000   0.000
(PID.TID 0000.0001)  23   0.522  34.750  52.248  -0.209   0.760  -0.005  -0.002  -0.002   0.000   0.000   0.000   0.000
(PID.TID 0000.0001) rhonil =   /* Reference density ( kg/m^3 ) */
(PID.TID 0000.0001)                 1.027000000000000E+03
(PID.TID 0000.0001)     ;
(PID.TID 0000.0001) rhoConst =   /* Reference density ( kg/m^3 ) */
(PID.TID 0000.0001)                 1.027000000000000E+03
(PID.TID 0000.0001)     ;
(PID.TID 0000.0001) gravity =   /* Gravitational acceleration ( m/s^2 ) */
(PID.TID 0000.0001)                 9.815600000000000E+00
(PID.TID 0000.0001)     ;
(PID.TID 0000.0001) gBaro =   /* Barotropic gravity ( m/s^2 ) */
(PID.TID 0000.0001)                 9.815600000000000E+00
(PID.TID 0000.0001)     ;
(PID.TID 0000.0001) f0 =   /* Reference coriolis parameter ( 1/s ) */
(PID.TID 0000.0001)                 1.000000000000000E-04
(PID.TID 0000.0001)     ;
(PID.TID 0000.0001) beta =   /* Beta ( 1/(m.s) ) */
(PID.TID 0000.0001)                 9.999999999999999E-12
(PID.TID 0000.0001)     ;
(PID.TID 0000.0001) freeSurfFac =   /* Implicit free surface factor */
(PID.TID 0000.0001)                 1.000000000000000E+00
(PID.TID 0000.0001)     ;
(PID.TID 0000.0001) implicitFreeSurface =   /* Implicit free surface on/off flag */
(PID.TID 0000.0001)                   T
(PID.TID 0000.0001)     ;
(PID.TID 0000.0001) rigidLid =   /* Rigid lid on/off flag */
(PID.TID 0000.0001)                   F
(PID.TID 0000.0001)     ;
(PID.TID 0000.0001) implicSurfPress =   /* Surface Pressure implicit factor (0-1)*/
(PID.TID 0000.0001)                 1.000000000000000E+00
(PID.TID 0000.0001)     ;
(PID.TID 0000.0001) implicDiv2Dflow =   /* Barot. Flow Div. implicit factor (0-1)*/
(PID.TID 0000.0001)                 1.000000000000000E+00
(PID.TID 0000.0001)     ;
(PID.TID 0000.0001) exactConserv =   /* Exact Volume Conservation on/off flag*/
(PID.TID 0000.0001)                   F
(PID.TID 0000.0001)     ;
(PID.TID 0000.0001) uniformLin_PhiSurf =   /* use uniform Bo_surf on/off flag*/
(PID.TID 0000.0001)                   T
(PID.TID 0000.0001)     ;
(PID.TID 0000.0001) nonlinFreeSurf =   /* Non-linear Free Surf. options (-1,0,1,2,3)*/
(PID.TID 0000.0001)                       0
(PID.TID 0000.0001)     ;
(PID.TID 0000.0001)      -1,0= Off ; 1,2,3= On, 2=+rescale gU,gV, 3=+update cg2d solv.
(PID.TID 0000.0001) hFacInf =   /* lower threshold for hFac (nonlinFreeSurf only)*/
(PID.TID 0000.0001)                 1.000000000000000E+00
(PID.TID 0000.0001)     ;
(PID.TID 0000.0001) hFacSup =   /* upper threshold for hFac (nonlinFreeSurf only)*/
(PID.TID 0000.0001)                 1.000000000000000E+00
(PID.TID 0000.0001)     ;
(PID.TID 0000.0001) useRealFreshWaterFlux =   /* Real Fresh Water Flux on/off flag*/
(PID.TID 0000.0001)                   F
(PID.TID 0000.0001)     ;
(PID.TID 0000.0001) convertFW2Salt = /* convert F.W. Flux to Salt Flux (-1=use local S)(ppt)*/
(PID.TID 0000.0001)                 3.500000000000000E+01
(PID.TID 0000.0001)     ;
(PID.TID 0000.0001) staggerTimeStep =   /* Stagger time stepping on/off flag */
(PID.TID 0000.0001)                   F
(PID.TID 0000.0001)     ;
(PID.TID 0000.0001) momStepping =  /* Momentum equation on/off flag */
(PID.TID 0000.0001)                   T
(PID.TID 0000.0001)     ;
(PID.TID 0000.0001) momAdvection =  /* Momentum advection on/off flag */
(PID.TID 0000.0001)                   T
(PID.TID 0000.0001)     ;
(PID.TID 0000.0001) momViscosity =  /* Momentum viscosity on/off flag */
(PID.TID 0000.0001)                   T
(PID.TID 0000.0001)     ;
(PID.TID 0000.0001) useCoriolis =  /* Coriolis on/off flag */
(PID.TID 0000.0001)                   T
(PID.TID 0000.0001)     ;
(PID.TID 0000.0001) momForcing =  /* Momentum forcing on/off flag */
(PID.TID 0000.0001)                   T
(PID.TID 0000.0001)     ;
(PID.TID 0000.0001) momPressureForcing =  /* Momentum pressure term on/off flag */
(PID.TID 0000.0001)                   T
(PID.TID 0000.0001)     ;
(PID.TID 0000.0001) tempStepping =  /* Temperature equation on/off flag */
(PID.TID 0000.0001)                   T
(PID.TID 0000.0001)     ;
(PID.TID 0000.0001) nonHydrostatic =  /* Non-Hydrostatic on/off flag */
(PID.TID 0000.0001)                   F
(PID.TID 0000.0001)     ;
(PID.TID 0000.0001) //
(PID.TID 0000.0001) // Elliptic solver(s) paramters ( PARM02 in namelist )
(PID.TID 0000.0001) //
(PID.TID 0000.0001) cg2dMaxIters =   /* Upper limit on 2d con. grad iterations  */
(PID.TID 0000.0001)                     500
(PID.TID 0000.0001)     ;
(PID.TID 0000.0001) cg2dChkResFreq =   /* 2d con. grad convergence test frequency */
(PID.TID 0000.0001)                       1
(PID.TID 0000.0001)     ;
(PID.TID 0000.0001) cg2dTargetResidual =   /* 2d con. grad target residual  */
(PID.TID 0000.0001)                 1.000000000000000E-08
(PID.TID 0000.0001)     ;
(PID.TID 0000.0001) //
(PID.TID 0000.0001) // Time stepping paramters ( PARM03 in namelist )
(PID.TID 0000.0001) //
(PID.TID 0000.0001) nIter0 =   /* Base timestep number  */
(PID.TID 0000.0001)                       0
(PID.TID 0000.0001)     ;
(PID.TID 0000.0001) nTimeSteps =   /* Number of timesteps */
(PID.TID 0000.0001)                      11
(PID.TID 0000.0001)     ;
(PID.TID 0000.0001) deltatTmom =   /* Momentum equation timestep ( s ) */
(PID.TID 0000.0001)                 3.600000000000000E+03
(PID.TID 0000.0001)     ;
(PID.TID 0000.0001) deltatTtracer =   /* Tracer equation timestep ( s ) */
(PID.TID 0000.0001)                 3.600000000000000E+03
(PID.TID 0000.0001)     ;
(PID.TID 0000.0001) deltatTClock  =   /* Model clock timestep ( s ) */
(PID.TID 0000.0001)                 3.600000000000000E+03
(PID.TID 0000.0001)     ;
(PID.TID 0000.0001) cAdjFreq =   /* Convective adjustment interval ( s ) */
(PID.TID 0000.0001)                 0.000000000000000E+00
(PID.TID 0000.0001)     ;
(PID.TID 0000.0001) abeps =   /* Adams-Bashforth stabilizing weight */
(PID.TID 0000.0001)                 1.000000000000000E-01
(PID.TID 0000.0001)     ;
(PID.TID 0000.0001) tauCD =   /* CD coupling time-scale ( s ) */
(PID.TID 0000.0001)                 1.728000000000000E+05
(PID.TID 0000.0001)     ;
(PID.TID 0000.0001) rCD =   /* Normalised CD coupling parameter */
(PID.TID 0000.0001)                 9.791666666666666E-01
(PID.TID 0000.0001)     ;
(PID.TID 0000.0001) startTime =   /* Run start time ( s ). */
(PID.TID 0000.0001)                 0.000000000000000E+00
(PID.TID 0000.0001)     ;
(PID.TID 0000.0001) endTime =   /* Integration ending time ( s ). */
(PID.TID 0000.0001)                 3.960000000000000E+04
(PID.TID 0000.0001)     ;
(PID.TID 0000.0001) pChkPtFreq =   /* Permanent restart/checkpoint file interval ( s ). */
(PID.TID 0000.0001)                 3.600000000000000E+04
(PID.TID 0000.0001)     ;
(PID.TID 0000.0001) chkPtFreq =   /* Rolling restart/checkpoint file interval ( s ). */
(PID.TID 0000.0001)                 0.000000000000000E+00
(PID.TID 0000.0001)     ;
(PID.TID 0000.0001) dumpFreq =   /* Model state write out interval ( s ). */
(PID.TID 0000.0001)                 0.000000000000000E+00
(PID.TID 0000.0001)     ;
(PID.TID 0000.0001) //
(PID.TID 0000.0001) // Gridding paramters ( PARM04 in namelist )
(PID.TID 0000.0001) //
(PID.TID 0000.0001) usingCartesianGrid =   /* Cartesian coordinates flag ( True / False ) */
(PID.TID 0000.0001)                   F
(PID.TID 0000.0001)     ;
(PID.TID 0000.0001) usingSphericalPolarGrid =   /* Spherical coordinates flag ( True / False ) */
(PID.TID 0000.0001)                   T
(PID.TID 0000.0001)     ;
(PID.TID 0000.0001) groundAtK1 =   /* Lower Boundary (ground) at the surface(k=1) ( T / F ) */
(PID.TID 0000.0001)                   F
(PID.TID 0000.0001)     ;
(PID.TID 0000.0001) Ro_SeaLevel =   /* r(1) ( units of r ) */
(PID.TID 0000.0001)                 0.000000000000000E+00
(PID.TID 0000.0001)     ;
(PID.TID 0000.0001) rkFac =   /* minus Vertical index orientation  */
(PID.TID 0000.0001)                 1.000000000000000E+00
(PID.TID 0000.0001)     ;
(PID.TID 0000.0001) horiVertRatio =   /* Ratio on units : Horiz - Vertical */
(PID.TID 0000.0001)                 1.000000000000000E+00
(PID.TID 0000.0001)     ;
(PID.TID 0000.0001) delZ =   /* W spacing ( m ) */
(PID.TID 0000.0001)     2 @  1.000000000000000E+01,             /* K =  1:  2 */
(PID.TID 0000.0001)                 1.500000000000000E+01,      /* K =  3 */
(PID.TID 0000.0001)     2 @  2.000000000000000E+01,             /* K =  4:  5 */
(PID.TID 0000.0001)                 2.500000000000000E+01,      /* K =  6 */
(PID.TID 0000.0001)                 3.500000000000000E+01,      /* K =  7 */
(PID.TID 0000.0001)                 5.000000000000000E+01,      /* K =  8 */
(PID.TID 0000.0001)                 7.500000000000000E+01,      /* K =  9 */
(PID.TID 0000.0001)                 1.000000000000000E+02,      /* K = 10 */
(PID.TID 0000.0001)                 1.500000000000000E+02,      /* K = 11 */
(PID.TID 0000.0001)                 2.000000000000000E+02,      /* K = 12 */
(PID.TID 0000.0001)                 2.750000000000000E+02,      /* K = 13 */
(PID.TID 0000.0001)                 3.500000000000000E+02,      /* K = 14 */
(PID.TID 0000.0001)                 4.150000000000000E+02,      /* K = 15 */
(PID.TID 0000.0001)                 4.500000000000000E+02,      /* K = 16 */
(PID.TID 0000.0001)     7 @  5.000000000000000E+02              /* K = 17: 23 */
(PID.TID 0000.0001)     ;
(PID.TID 0000.0001) delP =   /* W spacing ( Pa ) */
(PID.TID 0000.0001)    23 @  1.234567000000000E+05              /* K =  1: 23 */
(PID.TID 0000.0001)     ;
(PID.TID 0000.0001) delR =   /* W spacing ( units of r ) */
(PID.TID 0000.0001)     2 @  1.000000000000000E+01,             /* K =  1:  2 */
(PID.TID 0000.0001)                 1.500000000000000E+01,      /* K =  3 */
(PID.TID 0000.0001)     2 @  2.000000000000000E+01,             /* K =  4:  5 */
(PID.TID 0000.0001)                 2.500000000000000E+01,      /* K =  6 */
(PID.TID 0000.0001)                 3.500000000000000E+01,      /* K =  7 */
(PID.TID 0000.0001)                 5.000000000000000E+01,      /* K =  8 */
(PID.TID 0000.0001)                 7.500000000000000E+01,      /* K =  9 */
(PID.TID 0000.0001)                 1.000000000000000E+02,      /* K = 10 */
(PID.TID 0000.0001)                 1.500000000000000E+02,      /* K = 11 */
(PID.TID 0000.0001)                 2.000000000000000E+02,      /* K = 12 */
(PID.TID 0000.0001)                 2.750000000000000E+02,      /* K = 13 */
(PID.TID 0000.0001)                 3.500000000000000E+02,      /* K = 14 */
(PID.TID 0000.0001)                 4.150000000000000E+02,      /* K = 15 */
(PID.TID 0000.0001)                 4.500000000000000E+02,      /* K = 16 */
(PID.TID 0000.0001)     7 @  5.000000000000000E+02              /* K = 17: 23 */
(PID.TID 0000.0001)     ;
(PID.TID 0000.0001) delX =   /* U spacing ( m - cartesian, degrees - spherical ) */
(PID.TID 0000.0001)    20 @  2.000000000000000E+00              /* I =  1: 20 */
(PID.TID 0000.0001)     ;
(PID.TID 0000.0001) delY =   /* V spacing ( m - cartesian, degrees - spherical ) */
(PID.TID 0000.0001)    16 @  2.000000000000000E+00              /* J =  1: 16 */
(PID.TID 0000.0001)     ;
(PID.TID 0000.0001) phiMin =    /* South edge (ignored - cartesian, degrees - spherical ) */
(PID.TID 0000.0001)                 4.600000000000000E+01
(PID.TID 0000.0001)     ;
(PID.TID 0000.0001) thetaMin =    /* West edge ( ignored - cartesian, degrees - spherical ) */
(PID.TID 0000.0001)                 2.800000000000000E+02
(PID.TID 0000.0001)     ;
(PID.TID 0000.0001) rSphere =    /* Radius ( ignored - cartesian, m - spherical ) */
(PID.TID 0000.0001)                 6.371000000000000E+06
(PID.TID 0000.0001)     ;
(PID.TID 0000.0001) xcoord =   /* P-point X coord ( m - cartesian, degrees - spherical ) */
(PID.TID 0000.0001)                 2.810000000000000E+02,      /* I =  1 */
(PID.TID 0000.0001)                 2.830000000000000E+02,      /* I =  2 */
(PID.TID 0000.0001)                 2.850000000000000E+02,      /* I =  3 */
(PID.TID 0000.0001)                 2.870000000000000E+02,      /* I =  4 */
(PID.TID 0000.0001)                 2.890000000000000E+02,      /* I =  5 */
(PID.TID 0000.0001)                 2.910000000000000E+02,      /* I =  6 */
(PID.TID 0000.0001)                 2.930000000000000E+02,      /* I =  7 */
(PID.TID 0000.0001)                 2.950000000000000E+02,      /* I =  8 */
(PID.TID 0000.0001)                 2.970000000000000E+02,      /* I =  9 */
(PID.TID 0000.0001)                 2.990000000000000E+02,      /* I = 10 */
(PID.TID 0000.0001)                 3.010000000000000E+02,      /* I = 11 */
(PID.TID 0000.0001)                 3.030000000000000E+02,      /* I = 12 */
(PID.TID 0000.0001)                 3.050000000000000E+02,      /* I = 13 */
(PID.TID 0000.0001)                 3.070000000000000E+02,      /* I = 14 */
(PID.TID 0000.0001)                 3.090000000000000E+02,      /* I = 15 */
(PID.TID 0000.0001)                 3.110000000000000E+02,      /* I = 16 */
(PID.TID 0000.0001)                 3.130000000000000E+02,      /* I = 17 */
(PID.TID 0000.0001)                 3.150000000000000E+02,      /* I = 18 */
(PID.TID 0000.0001)                 3.170000000000000E+02,      /* I = 19 */
(PID.TID 0000.0001)                 3.190000000000000E+02       /* I = 20 */
(PID.TID 0000.0001)     ;
(PID.TID 0000.0001) ycoord =   /* P-point Y coord ( m - cartesian, degrees - spherical ) */
(PID.TID 0000.0001)                 4.700000000000000E+01,      /* J =  1 */
(PID.TID 0000.0001)                 4.900000000000000E+01,      /* J =  2 */
(PID.TID 0000.0001)                 5.100000000000000E+01,      /* J =  3 */
(PID.TID 0000.0001)                 5.300000000000000E+01,      /* J =  4 */
(PID.TID 0000.0001)                 5.500000000000000E+01,      /* J =  5 */
(PID.TID 0000.0001)                 5.700000000000000E+01,      /* J =  6 */
(PID.TID 0000.0001)                 5.900000000000000E+01,      /* J =  7 */
(PID.TID 0000.0001)                 6.100000000000000E+01,      /* J =  8 */
(PID.TID 0000.0001)                 6.300000000000000E+01,      /* J =  9 */
(PID.TID 0000.0001)                 6.500000000000000E+01,      /* J = 10 */
(PID.TID 0000.0001)                 6.700000000000000E+01,      /* J = 11 */
(PID.TID 0000.0001)                 6.900000000000000E+01,      /* J = 12 */
(PID.TID 0000.0001)                 7.100000000000000E+01,      /* J = 13 */
(PID.TID 0000.0001)                 7.300000000000000E+01,      /* J = 14 */
(PID.TID 0000.0001)                 7.500000000000000E+01,      /* J = 15 */
(PID.TID 0000.0001)                 7.700000000000000E+01       /* J = 16 */
(PID.TID 0000.0001)     ;
(PID.TID 0000.0001) rcoord =   /* P-point R coordinate (  units of r ) */
(PID.TID 0000.0001)                -5.000000000000000E+00,      /* K =  1 */
(PID.TID 0000.0001)                -1.500000000000000E+01,      /* K =  2 */
(PID.TID 0000.0001)                -2.750000000000000E+01,      /* K =  3 */
(PID.TID 0000.0001)                -4.500000000000000E+01,      /* K =  4 */
(PID.TID 0000.0001)                -6.500000000000000E+01,      /* K =  5 */
(PID.TID 0000.0001)                -8.750000000000000E+01,      /* K =  6 */
(PID.TID 0000.0001)                -1.175000000000000E+02,      /* K =  7 */
(PID.TID 0000.0001)                -1.600000000000000E+02,      /* K =  8 */
(PID.TID 0000.0001)                -2.225000000000000E+02,      /* K =  9 */
(PID.TID 0000.0001)                -3.100000000000000E+02,      /* K = 10 */
(PID.TID 0000.0001)                -4.350000000000000E+02,      /* K = 11 */
(PID.TID 0000.0001)                -6.100000000000000E+02,      /* K = 12 */
(PID.TID 0000.0001)                -8.475000000000000E+02,      /* K = 13 */
(PID.TID 0000.0001)                -1.160000000000000E+03,      /* K = 14 */
(PID.TID 0000.0001)                -1.542500000000000E+03,      /* K = 15 */
(PID.TID 0000.0001)                -1.975000000000000E+03,      /* K = 16 */
(PID.TID 0000.0001)                -2.450000000000000E+03,      /* K = 17 */
(PID.TID 0000.0001)                -2.950000000000000E+03,      /* K = 18 */
(PID.TID 0000.0001)                -3.450000000000000E+03,      /* K = 19 */
(PID.TID 0000.0001)                -3.950000000000000E+03,      /* K = 20 */
(PID.TID 0000.0001)                -4.450000000000000E+03,      /* K = 21 */
(PID.TID 0000.0001)                -4.950000000000000E+03,      /* K = 22 */
(PID.TID 0000.0001)                -5.450000000000000E+03       /* K = 23 */
(PID.TID 0000.0001)     ;
(PID.TID 0000.0001) dxF =  /* dxF(:,1,:,1) ( m - cartesian, degrees - spherical ) */
(PID.TID 0000.0001)    20 @  1.516695152377177E+05              /* I =  1: 20 */
(PID.TID 0000.0001)     ;
(PID.TID 0000.0001) dxF =  /* dxF(1,:,1,:) ( m - cartesian, degrees - spherical ) */
(PID.TID 0000.0001)                 1.516695152377177E+05,      /* J =  1 */
(PID.TID 0000.0001)                 1.459008712061998E+05,      /* J =  2 */
(PID.TID 0000.0001)                 1.399544694374234E+05,      /* J =  3 */
(PID.TID 0000.0001)                 1.338375547059709E+05,      /* J =  4 */
(PID.TID 0000.0001)                 1.275575795302040E+05,      /* J =  5 */
(PID.TID 0000.0001)                 1.211221950925184E+05,      /* J =  6 */
(PID.TID 0000.0001)                 1.145392419175564E+05,      /* J =  7 */
(PID.TID 0000.0001)                 1.078167403197357E+05,      /* J =  8 */
(PID.TID 0000.0001)                 1.009628806317309E+05,      /* J =  9 */
(PID.TID 0000.0001)                 9.398601322581599E+04,      /* J = 10 */
(PID.TID 0000.0001)                 8.689463834022089E+04,      /* J = 11 */
(PID.TID 0000.0001)                 7.969739572290120E+04,      /* J = 12 */
(PID.TID 0000.0001)                 7.240305410533582E+04,      /* J = 13 */
(PID.TID 0000.0001)                 6.502050051917860E+04,      /* J = 14 */
(PID.TID 0000.0001)                 5.755872946877906E+04,      /* J = 15 */
(PID.TID 0000.0001)                 5.002683197276441E+04       /* J = 16 */
(PID.TID 0000.0001)     ;
(PID.TID 0000.0001) dyF =  /* dyF(:,1,:,1) ( m - cartesian, degrees - spherical ) */
(PID.TID 0000.0001)    20 @  2.223898532891175E+05              /* I =  1: 20 */
(PID.TID 0000.0001)     ;
(PID.TID 0000.0001) dyF =  /* dyF(1,:,1,:) ( m - cartesian, degrees - spherical ) */
(PID.TID 0000.0001)    16 @  2.223898532891175E+05              /* J =  1: 16 */
(PID.TID 0000.0001)     ;
(PID.TID 0000.0001) dxG =  /* dxG(:,1,:,1) ( m - cartesian, degrees - spherical ) */
(PID.TID 0000.0001)    20 @  1.544849730924338E+05              /* I =  1: 20 */
(PID.TID 0000.0001)     ;
(PID.TID 0000.0001) dxG =  /* dxG(1,:,1,:) ( m - cartesian, degrees - spherical ) */
(PID.TID 0000.0001)                 1.544849730924338E+05,      /* J =  1 */
(PID.TID 0000.0001)                 1.488078573794047E+05,      /* J =  2 */
(PID.TID 0000.0001)                 1.429494422142520E+05,      /* J =  3 */
(PID.TID 0000.0001)                 1.369168651734348E+05,      /* J =  4 */
(PID.TID 0000.0001)                 1.307174760228300E+05,      /* J =  5 */
(PID.TID 0000.0001)                 1.243588277631750E+05,      /* J =  6 */
(PID.TID 0000.0001)                 1.178486674278995E+05,      /* J =  7 */
(PID.TID 0000.0001)                 1.111949266445588E+05,      /* J =  8 */
(PID.TID 0000.0001)                 1.044057119713670E+05,      /* J =  9 */
(PID.TID 0000.0001)                 9.748929502060510E+04,      /* J = 10 */
(PID.TID 0000.0001)                 9.045410238093534E+04,      /* J = 11 */
(PID.TID 0000.0001)                 8.330870535090074E+04,      /* J = 12 */
(PID.TID 0000.0001)                 7.606180949611843E+04,      /* J = 13 */
(PID.TID 0000.0001)                 6.872224404288860E+04,      /* J = 14 */
(PID.TID 0000.0001)                 6.129895112114272E+04,      /* J = 15 */
(PID.TID 0000.0001)                 5.380097486983529E+04       /* J = 16 */
(PID.TID 0000.0001)     ;
(PID.TID 0000.0001) dyG =  /* dyG(:,1,:,1) ( m - cartesian, degrees - spherical ) */
(PID.TID 0000.0001)    20 @  2.223898532891175E+05              /* I =  1: 20 */
(PID.TID 0000.0001)     ;
(PID.TID 0000.0001) dyG =  /* dyG(1,:,1,:) ( m - cartesian, degrees - spherical ) */
(PID.TID 0000.0001)    16 @  2.223898532891175E+05              /* J =  1: 16 */
(PID.TID 0000.0001)     ;
(PID.TID 0000.0001) dxC =  /* dxC(:,1,:,1) ( m - cartesian, degrees - spherical ) */
(PID.TID 0000.0001)    20 @  1.516695152377177E+05              /* I =  1: 20 */
(PID.TID 0000.0001)     ;
(PID.TID 0000.0001) dxC =  /* dxC(1,:,1,:) ( m - cartesian, degrees - spherical ) */
(PID.TID 0000.0001)                 1.516695152377177E+05,      /* J =  1 */
(PID.TID 0000.0001)                 1.459008712061998E+05,      /* J =  2 */
(PID.TID 0000.0001)                 1.399544694374234E+05,      /* J =  3 */
(PID.TID 0000.0001)                 1.338375547059709E+05,      /* J =  4 */
(PID.TID 0000.0001)                 1.275575795302040E+05,      /* J =  5 */
(PID.TID 0000.0001)                 1.211221950925184E+05,      /* J =  6 */
(PID.TID 0000.0001)                 1.145392419175564E+05,      /* J =  7 */
(PID.TID 0000.0001)                 1.078167403197357E+05,      /* J =  8 */
(PID.TID 0000.0001)                 1.009628806317309E+05,      /* J =  9 */
(PID.TID 0000.0001)                 9.398601322581599E+04,      /* J = 10 */
(PID.TID 0000.0001)                 8.689463834022089E+04,      /* J = 11 */
(PID.TID 0000.0001)                 7.969739572290120E+04,      /* J = 12 */
(PID.TID 0000.0001)                 7.240305410533582E+04,      /* J = 13 */
(PID.TID 0000.0001)                 6.502050051917860E+04,      /* J = 14 */
(PID.TID 0000.0001)                 5.755872946877906E+04,      /* J = 15 */
(PID.TID 0000.0001)                 5.002683197276441E+04       /* J = 16 */
(PID.TID 0000.0001)     ;
(PID.TID 0000.0001) dyC =  /* dyC(:,1,:,1) ( m - cartesian, degrees - spherical ) */
(PID.TID 0000.0001)    20 @  2.223898532891175E+05              /* I =  1: 20 */
(PID.TID 0000.0001)     ;
(PID.TID 0000.0001) dyC =  /* dyC(1,:,1,:) ( m - cartesian, degrees - spherical ) */
(PID.TID 0000.0001)    16 @  2.223898532891175E+05              /* J =  1: 16 */
(PID.TID 0000.0001)     ;
(PID.TID 0000.0001) dxV =  /* dxV(:,1,:,1) ( m - cartesian, degrees - spherical ) */
(PID.TID 0000.0001)    20 @  1.544849730924338E+05              /* I =  1: 20 */
(PID.TID 0000.0001)     ;
(PID.TID 0000.0001) dxV =  /* dxV(1,:,1,:) ( m - cartesian, degrees - spherical ) */
(PID.TID 0000.0001)                 1.544849730924338E+05,      /* J =  1 */
(PID.TID 0000.0001)                 1.488078573794047E+05,      /* J =  2 */
(PID.TID 0000.0001)                 1.429494422142520E+05,      /* J =  3 */
(PID.TID 0000.0001)                 1.369168651734348E+05,      /* J =  4 */
(PID.TID 0000.0001)                 1.307174760228300E+05,      /* J =  5 */
(PID.TID 0000.0001)                 1.243588277631750E+05,      /* J =  6 */
(PID.TID 0000.0001)                 1.178486674278995E+05,      /* J =  7 */
(PID.TID 0000.0001)                 1.111949266445588E+05,      /* J =  8 */
(PID.TID 0000.0001)                 1.044057119713670E+05,      /* J =  9 */
(PID.TID 0000.0001)                 9.748929502060510E+04,      /* J = 10 */
(PID.TID 0000.0001)                 9.045410238093534E+04,      /* J = 11 */
(PID.TID 0000.0001)                 8.330870535090074E+04,      /* J = 12 */
(PID.TID 0000.0001)                 7.606180949611843E+04,      /* J = 13 */
(PID.TID 0000.0001)                 6.872224404288860E+04,      /* J = 14 */
(PID.TID 0000.0001)                 6.129895112114272E+04,      /* J = 15 */
(PID.TID 0000.0001)                 5.380097486983529E+04       /* J = 16 */
(PID.TID 0000.0001)     ;
(PID.TID 0000.0001) dyU =  /* dyU(:,1,:,1) ( m - cartesian, degrees - spherical ) */
(PID.TID 0000.0001)    20 @  2.223898532891175E+05              /* I =  1: 20 */
(PID.TID 0000.0001)     ;
(PID.TID 0000.0001) dyU =  /* dyU(1,:,1,:) ( m - cartesian, degrees - spherical ) */
(PID.TID 0000.0001)    16 @  2.223898532891175E+05              /* J =  1: 16 */
(PID.TID 0000.0001)     ;
(PID.TID 0000.0001) rA =  /* rA(:,1,:,1) ( m - cartesian, degrees - spherical ) */
(PID.TID 0000.0001)    20 @  3.372804882275624E+10              /* I =  1: 20 */
(PID.TID 0000.0001)     ;
(PID.TID 0000.0001) rA =  /* rA(1,:,1,:) ( m - cartesian, degrees - spherical ) */
(PID.TID 0000.0001)                 3.372804882275624E+10,      /* J =  1 */
(PID.TID 0000.0001)                 3.244522605358470E+10,      /* J =  2 */
(PID.TID 0000.0001)                 3.112287377427101E+10,      /* J =  3 */
(PID.TID 0000.0001)                 2.976260306737436E+10,      /* J =  4 */
(PID.TID 0000.0001)                 2.836607121321785E+10,      /* J =  5 */
(PID.TID 0000.0001)                 2.693497967074625E+10,      /* J =  6 */
(PID.TID 0000.0001)                 2.547107200456124E+10,      /* J =  7 */
(PID.TID 0000.0001)                 2.397613176065687E+10,      /* J =  8 */
(PID.TID 0000.0001)                 2.245198029344195E+10,      /* J =  9 */
(PID.TID 0000.0001)                 2.090047454670190E+10,      /* J = 10 */
(PID.TID 0000.0001)                 1.932350479119800E+10,      /* J = 11 */
(PID.TID 0000.0001)                 1.772299232166364E+10,      /* J = 12 */
(PID.TID 0000.0001)                 1.610088711600325E+10,      /* J = 13 */
(PID.TID 0000.0001)                 1.445916545954342E+10,      /* J = 14 */
(PID.TID 0000.0001)                 1.279982753723484E+10,      /* J = 15 */
(PID.TID 0000.0001)                 1.112489499673436E+10       /* J = 16 */
(PID.TID 0000.0001)     ;
(PID.TID 0000.0001) rAw =  /* rAw(:,1,:,1) ( m - cartesian, degrees - spherical ) */
(PID.TID 0000.0001)    20 @  3.372804882275624E+10              /* I =  1: 20 */
(PID.TID 0000.0001)     ;
(PID.TID 0000.0001) rAw =  /* rAw(1,:,1,:) ( m - cartesian, degrees - spherical ) */
(PID.TID 0000.0001)                 3.372804882275624E+10,      /* J =  1 */
(PID.TID 0000.0001)                 3.244522605358470E+10,      /* J =  2 */
(PID.TID 0000.0001)                 3.112287377427101E+10,      /* J =  3 */
(PID.TID 0000.0001)                 2.976260306737436E+10,      /* J =  4 */
(PID.TID 0000.0001)                 2.836607121321785E+10,      /* J =  5 */
(PID.TID 0000.0001)                 2.693497967074625E+10,      /* J =  6 */
(PID.TID 0000.0001)                 2.547107200456124E+10,      /* J =  7 */
(PID.TID 0000.0001)                 2.397613176065687E+10,      /* J =  8 */
(PID.TID 0000.0001)                 2.245198029344195E+10,      /* J =  9 */
(PID.TID 0000.0001)                 2.090047454670190E+10,      /* J = 10 */
(PID.TID 0000.0001)                 1.932350479119800E+10,      /* J = 11 */
(PID.TID 0000.0001)                 1.772299232166364E+10,      /* J = 12 */
(PID.TID 0000.0001)                 1.610088711600325E+10,      /* J = 13 */
(PID.TID 0000.0001)                 1.445916545954342E+10,      /* J = 14 */
(PID.TID 0000.0001)                 1.279982753723484E+10,      /* J = 15 */
(PID.TID 0000.0001)                 1.112489499673436E+10       /* J = 16 */
(PID.TID 0000.0001)     ;
(PID.TID 0000.0001) rAs =  /* rAs(:,1,:,1) ( m - cartesian, degrees - spherical ) */
(PID.TID 0000.0001)    20 @  3.435414629417917E+10              /* I =  1: 20 */
(PID.TID 0000.0001)     ;
(PID.TID 0000.0001) rAs =  /* rAs(1,:,1,:) ( m - cartesian, degrees - spherical ) */
(PID.TID 0000.0001)                 3.435414629417917E+10,      /* J =  1 */
(PID.TID 0000.0001)                 3.309167746093085E+10,      /* J =  2 */
(PID.TID 0000.0001)                 3.178889151607876E+10,      /* J =  3 */
(PID.TID 0000.0001)                 3.044737570361747E+10,      /* J =  4 */
(PID.TID 0000.0001)                 2.906876445392021E+10,      /* J =  5 */
(PID.TID 0000.0001)                 2.765473739243565E+10,      /* J =  6 */
(PID.TID 0000.0001)                 2.620701729332414E+10,      /* J =  7 */
(PID.TID 0000.0001)                 2.472736798052211E+10,      /* J =  8 */
(PID.TID 0000.0001)                 2.321759217879517E+10,      /* J =  9 */
(PID.TID 0000.0001)                 2.167952931739412E+10,      /* J = 10 */
(PID.TID 0000.0001)                 2.011505328899531E+10,      /* J = 11 */
(PID.TID 0000.0001)                 1.852607016665018E+10,      /* J = 12 */
(PID.TID 0000.0001)                 1.691451588152956E+10,      /* J = 13 */
(PID.TID 0000.0001)                 1.528235386428861E+10,      /* J = 14 */
(PID.TID 0000.0001)                 1.363157265293018E+10,      /* J = 15 */
(PID.TID 0000.0001)                 1.196418347007695E+10       /* J = 16 */
(PID.TID 0000.0001)     ;
(PID.TID 0000.0001) 
(PID.TID 0000.0001)  MDSREADFIELD: opening global file: LevCli_temp.labsea
(PID.TID 0000.0001) // =======================================================
(PID.TID 0000.0001) // Field Initial Temperature at iteration          1
(PID.TID 0000.0001) // CMIN =          9.205863475799561E-01
(PID.TID 0000.0001) // CMAX =          1.333307647705078E+01
(PID.TID 0000.0001) // CINT =          4.597218566470676E-01
(PID.TID 0000.0001) // SYMBOLS (CMIN->CMAX): -abcdefghijklmnopqrstuvwxyz+
(PID.TID 0000.0001) //                  0.0: .
(PID.TID 0000.0001) // RANGE I (Lo:Hi:Step):(   1:  20:   1)
(PID.TID 0000.0001) // RANGE J (Lo:Hi:Step):(  16:   1:  -1)
(PID.TID 0000.0001) // RANGE K (Lo:Hi:Step):(   1:   1:   1)
(PID.TID 0000.0001) // =======================================================
(PID.TID 0000.0001) K =   1
(PID.TID 0000.0001)                I=10      I=20
(PID.TID 0000.0001) |--J--|123456789|123456789|
(PID.TID 0000.0001)     16 .----...............
(PID.TID 0000.0001)     15 aabaaaaaaaa.........
(PID.TID 0000.0001)     14 .ccccccbbbbc........
(PID.TID 0000.0001)     13 ....dddddddd........
(PID.TID 0000.0001)     12 ......dcdddddd......
(PID.TID 0000.0001)     11 ........cccdd.......
(PID.TID 0000.0001)     10 .......bbcdddd......
(PID.TID 0000.0001)      9 .......cdeeffff....j
(PID.TID 0000.0001)      8 .....ccdefgghhggh..k
(PID.TID 0000.0001)      7 ......d.fghiiiiiijkl
(PID.TID 0000.0001)      6 .........ghhijjjkklm
(PID.TID 0000.0001)      5 ..........hhhijklmnn
(PID.TID 0000.0001)      4 ............ghikmopq
(PID.TID 0000.0001)      3 ..........k.hhiknqsu
(PID.TID 0000.0001)      2 .......oonm..ijknqux
(PID.TID 0000.0001)      1 ........qponlkklosw+
(PID.TID 0000.0001) // =======================================================
(PID.TID 0000.0001) // END OF FIELD                                          =
(PID.TID 0000.0001) // =======================================================
(PID.TID 0000.0001) 
(PID.TID 0000.0001)  MDSREADFIELD: opening global file: LevCli_salt.labsea
(PID.TID 0000.0001) // =======================================================
(PID.TID 0000.0001) // Field Initial Salinity at iteration          1
(PID.TID 0000.0001) // CMIN =          3.012869834899902E+01
(PID.TID 0000.0001) // CMAX =          3.487366104125977E+01
(PID.TID 0000.0001) // CINT =          1.757393589726201E-01
(PID.TID 0000.0001) // SYMBOLS (CMIN->CMAX): -abcdefghijklmnopqrstuvwxyz+
(PID.TID 0000.0001) //                  0.0: .
(PID.TID 0000.0001) // RANGE I (Lo:Hi:Step):(   1:  20:   1)
(PID.TID 0000.0001) // RANGE J (Lo:Hi:Step):(  16:   1:  -1)
(PID.TID 0000.0001) // RANGE K (Lo:Hi:Step):(   1:   1:   1)
(PID.TID 0000.0001) // =======================================================
(PID.TID 0000.0001) K =   1
(PID.TID 0000.0001)                I=10      I=20
(PID.TID 0000.0001) |--J--|123456789|123456789|
(PID.TID 0000.0001)     16 .nnos...............
(PID.TID 0000.0001)     15 lnoppppppol.........
(PID.TID 0000.0001)     14 .nponmllllmn........
(PID.TID 0000.0001)     13 ....ljhijkmo........
(PID.TID 0000.0001)     12 ......ghjlmors......
(PID.TID 0000.0001)     11 ........jmnpr.......
(PID.TID 0000.0001)     10 .......jlnpqrq......
(PID.TID 0000.0001)      9 .......noqsttts....w
(PID.TID 0000.0001)      8 .....jlnpsuvwwutu..x
(PID.TID 0000.0001)      7 ......j.rruwxyxxwxxy
(PID.TID 0000.0001)      6 .........ppruxyyzzzz
(PID.TID 0000.0001)      5 ..........ijoswyzzzz
(PID.TID 0000.0001)      4 ............iotwyzzz
(PID.TID 0000.0001)      3 ..........g.imquwyzz
(PID.TID 0000.0001)      2 .......-bef..knqtvxz
(PID.TID 0000.0001)      1 ........-cegijlosvy+
(PID.TID 0000.0001) // =======================================================
(PID.TID 0000.0001) // END OF FIELD                                          =
(PID.TID 0000.0001) // =======================================================
(PID.TID 0000.0001) 
(PID.TID 0000.0001)  MDSREADFIELD: opening global file: SSS.labsea
(PID.TID 0000.0001) // =======================================================
(PID.TID 0000.0001) // Model current state
(PID.TID 0000.0001) // =======================================================
(PID.TID 0000.0001) 
(PID.TID 0000.0001) // =======================================================
(PID.TID 0000.0001) // Begin MONITOR dynamic field statistics
(PID.TID 0000.0001) // =======================================================
(PID.TID 0000.0001) %MON time_tsnumber                =                     0
(PID.TID 0000.0001) %MON time_secondsf                =   0.0000000000000E+00
(PID.TID 0000.0001) %MON time_secondsi                =                     0
(PID.TID 0000.0001) %MON dynstat_eta_max              =   0.0000000000000E+00
(PID.TID 0000.0001) %MON dynstat_eta_min              =   0.0000000000000E+00
(PID.TID 0000.0001) %MON dynstat_eta_mean             =   0.0000000000000E+00
(PID.TID 0000.0001) %MON dynstat_eta_sd               =   0.0000000000000E+00
(PID.TID 0000.0001) %MON dynstat_eta_del2             =   0.0000000000000E+00
(PID.TID 0000.0001) %MON dynstat_uvel_max             =   0.0000000000000E+00
(PID.TID 0000.0001) %MON dynstat_uvel_min             =   0.0000000000000E+00
(PID.TID 0000.0001) %MON dynstat_uvel_mean            =   0.0000000000000E+00
(PID.TID 0000.0001) %MON dynstat_uvel_sd              =   0.0000000000000E+00
(PID.TID 0000.0001) %MON dynstat_uvel_del2            =   0.0000000000000E+00
(PID.TID 0000.0001) %MON dynstat_vvel_max             =   0.0000000000000E+00
(PID.TID 0000.0001) %MON dynstat_vvel_min             =   0.0000000000000E+00
(PID.TID 0000.0001) %MON dynstat_vvel_mean            =   0.0000000000000E+00
(PID.TID 0000.0001) %MON dynstat_vvel_sd              =   0.0000000000000E+00
(PID.TID 0000.0001) %MON dynstat_vvel_del2            =   0.0000000000000E+00
(PID.TID 0000.0001) %MON dynstat_wvel_max             =   0.0000000000000E+00
(PID.TID 0000.0001) %MON dynstat_wvel_min             =   0.0000000000000E+00
(PID.TID 0000.0001) %MON dynstat_wvel_mean            =   0.0000000000000E+00
(PID.TID 0000.0001) %MON dynstat_wvel_sd              =   0.0000000000000E+00
(PID.TID 0000.0001) %MON dynstat_wvel_del2            =   0.0000000000000E+00
(PID.TID 0000.0001) %MON dynstat_theta_max            =   1.3333076477051E+01
(PID.TID 0000.0001) %MON dynstat_theta_min            =  -1.4103618860245E+00
(PID.TID 0000.0001) %MON dynstat_theta_mean           =   3.1168426975828E+00
(PID.TID 0000.0001) %MON dynstat_theta_sd             =   1.4047681849177E+00
(PID.TID 0000.0001) %MON dynstat_theta_del2           =   9.7237468258508E-02
(PID.TID 0000.0001) %MON dynstat_salt_max             =   3.5450622558594E+01
(PID.TID 0000.0001) %MON dynstat_salt_min             =   3.0128698348999E+01
(PID.TID 0000.0001) %MON dynstat_salt_mean            =   3.4759355674691E+01
(PID.TID 0000.0001) %MON dynstat_salt_sd              =   4.4306214753982E-01
(PID.TID 0000.0001) %MON dynstat_salt_del2            =   3.8354629598638E-02
(PID.TID 0000.0001) %MON advcfl_uvel_max              =   0.0000000000000E+00
(PID.TID 0000.0001) %MON advcfl_vvel_max              =   0.0000000000000E+00
(PID.TID 0000.0001) %MON advcfl_wvel_max              =   0.0000000000000E+00
(PID.TID 0000.0001) %MON advcfl_W_hf_max              =   0.0000000000000E+00
(PID.TID 0000.0001) %MON ke_max                       =   0.0000000000000E+00
(PID.TID 0000.0001) %MON ke_mean                      =   0.0000000000000E+00
(PID.TID 0000.0001) %MON ke_volint                    =   0.0000000000000E+00
(PID.TID 0000.0001) %MON ke_volmean                   =   0.0000000000000E+00
(PID.TID 0000.0001) // =======================================================
(PID.TID 0000.0001) // End MONITOR dynamic field statistics
(PID.TID 0000.0001) // =======================================================
(PID.TID 0000.0001)  MDSREADFIELD: opening global file: u10m.labsea79
(PID.TID 0000.0001)  MDSREADFIELD: opening global file: u10m.labsea79
(PID.TID 0000.0001)  MDSREADFIELD: opening global file: v10m.labsea79
(PID.TID 0000.0001)  MDSREADFIELD: opening global file: v10m.labsea79
(PID.TID 0000.0001)  MDSREADFIELD: opening global file: tair.labsea1979
(PID.TID 0000.0001)  MDSREADFIELD: opening global file: tair.labsea1979
(PID.TID 0000.0001)  MDSREADFIELD: opening global file: qa.labsea1979
(PID.TID 0000.0001)  MDSREADFIELD: opening global file: qa.labsea1979
(PID.TID 0000.0001)  MDSREADFIELD: opening global file: flo.labsea1979
(PID.TID 0000.0001)  MDSREADFIELD: opening global file: flo.labsea1979
(PID.TID 0000.0001)  MDSREADFIELD: opening global file: fsh.labsea1979
(PID.TID 0000.0001)  MDSREADFIELD: opening global file: fsh.labsea1979
(PID.TID 0000.0001)  MDSREADFIELD: opening global file: prate.labsea1979
(PID.TID 0000.0001)  MDSREADFIELD: opening global file: prate.labsea1979
(PID.TID 0000.0001)  MDSREADFIELD: opening global file: evap.labsea1979
(PID.TID 0000.0001)  MDSREADFIELD: opening global file: evap.labsea1979
(PID.TID 0000.0001)  MDSREADFIELD: opening global file: SSS.labsea
(PID.TID 0000.0001)  MDSREADFIELD: opening global file: SSS.labsea
 cg2d: Sum(rhs),rhsMax =   1.29063426612674E-15  9.80773918079212E-01
(PID.TID 0000.0001)                    cg2d_init_res =    1.61712304652237E+00
(PID.TID 0000.0001)                       cg2d_iters =    35
(PID.TID 0000.0001)                         cg2d_res =    7.11370438881803E-09
(PID.TID 0000.0001) // =======================================================
(PID.TID 0000.0001) // Begin MONITOR dynamic field statistics
(PID.TID 0000.0001) // =======================================================
(PID.TID 0000.0001) %MON time_tsnumber                =                     1
(PID.TID 0000.0001) %MON time_secondsf                =   3.6000000000000E+03
(PID.TID 0000.0001) %MON time_secondsi                =                  3600
(PID.TID 0000.0001) %MON dynstat_eta_max              =   2.0222274604702E-01
(PID.TID 0000.0001) %MON dynstat_eta_min              =  -7.9251075834022E-02
(PID.TID 0000.0001) %MON dynstat_eta_mean             =  -2.5608401826465E-11
(PID.TID 0000.0001) %MON dynstat_eta_sd               =   4.6485785634704E-02
(PID.TID 0000.0001) %MON dynstat_eta_del2             =   6.3363068464557E-03
(PID.TID 0000.0001) %MON dynstat_uvel_max             =   1.2226125044368E-02
(PID.TID 0000.0001) %MON dynstat_uvel_min             =  -1.9863004569761E-02
(PID.TID 0000.0001) %MON dynstat_uvel_mean            =  -9.9066383362786E-04
(PID.TID 0000.0001) %MON dynstat_uvel_sd              =   2.8594785483038E-03
(PID.TID 0000.0001) %MON dynstat_uvel_del2            =   1.2228476879682E-03
(PID.TID 0000.0001) %MON dynstat_vvel_max             =   2.0311421793641E-02
(PID.TID 0000.0001) %MON dynstat_vvel_min             =  -1.1314222018303E-02
(PID.TID 0000.0001) %MON dynstat_vvel_mean            =  -1.6415986029638E-03
(PID.TID 0000.0001) %MON dynstat_vvel_sd              =   4.3750812031874E-03
(PID.TID 0000.0001) %MON dynstat_vvel_del2            =   9.6648202524688E-04
(PID.TID 0000.0001) %MON dynstat_wvel_max             =   0.0000000000000E+00
(PID.TID 0000.0001) %MON dynstat_wvel_min             =   0.0000000000000E+00
(PID.TID 0000.0001) %MON dynstat_wvel_mean            =   0.0000000000000E+00
(PID.TID 0000.0001) %MON dynstat_wvel_sd              =   0.0000000000000E+00
(PID.TID 0000.0001) %MON dynstat_wvel_del2            =   0.0000000000000E+00
(PID.TID 0000.0001) %MON dynstat_theta_max            =   1.2840394513724E+01
(PID.TID 0000.0001) %MON dynstat_theta_min            =  -1.9588520237801E+00
(PID.TID 0000.0001) %MON dynstat_theta_mean           =   3.0756355855089E+00
(PID.TID 0000.0001) %MON dynstat_theta_sd             =   1.3869475484060E+00
(PID.TID 0000.0001) %MON dynstat_theta_del2           =   1.0660172122649E-01
(PID.TID 0000.0001) %MON dynstat_salt_max             =   3.5450601647052E+01
(PID.TID 0000.0001) %MON dynstat_salt_min             =   2.8512870612483E+01
(PID.TID 0000.0001) %MON dynstat_salt_mean            =   3.4740949023076E+01
(PID.TID 0000.0001) %MON dynstat_salt_sd              =   5.2792496246784E-01
(PID.TID 0000.0001) %MON dynstat_salt_del2            =   4.3801732804122E-02
(PID.TID 0000.0001) %MON advcfl_uvel_max              =   5.7550508827944E-04
(PID.TID 0000.0001) %MON advcfl_vvel_max              =   3.2879700838710E-04
(PID.TID 0000.0001) %MON advcfl_wvel_max              =   0.0000000000000E+00
(PID.TID 0000.0001) %MON advcfl_W_hf_max              =   0.0000000000000E+00
(PID.TID 0000.0001) %MON ke_max                       =   1.5492993880990E-04
(PID.TID 0000.0001) %MON ke_mean                      =   1.4393756066432E-05
(PID.TID 0000.0001) %MON ke_volint                    =   6.4259485839757E+10
(PID.TID 0000.0001) %MON ke_volmean                   =   1.2116158115675E-05
(PID.TID 0000.0001) // =======================================================
(PID.TID 0000.0001) // End MONITOR dynamic field statistics
(PID.TID 0000.0001) // =======================================================
 cg2d: Sum(rhs),rhsMax =   9.41100020829255E-10  1.20389717531803E+00
(PID.TID 0000.0001)                    cg2d_init_res =    3.48592048930415E-01
(PID.TID 0000.0001)                       cg2d_iters =    32
(PID.TID 0000.0001)                         cg2d_res =    7.58022888111151E-09
(PID.TID 0000.0001) // =======================================================
(PID.TID 0000.0001) // Begin MONITOR dynamic field statistics
(PID.TID 0000.0001) // =======================================================
(PID.TID 0000.0001) %MON time_tsnumber                =                     2
(PID.TID 0000.0001) %MON time_secondsf                =   7.2000000000000E+03
(PID.TID 0000.0001) %MON time_secondsi                =                  7200
(PID.TID 0000.0001) %MON dynstat_eta_max              =   2.8912502336238E-01
(PID.TID 0000.0001) %MON dynstat_eta_min              =  -1.2987614567075E-01
(PID.TID 0000.0001) %MON dynstat_eta_mean             =   1.4545223116267E-11
(PID.TID 0000.0001) %MON dynstat_eta_sd               =   7.5124377548548E-02
(PID.TID 0000.0001) %MON dynstat_eta_del2             =   7.7515202183213E-03
(PID.TID 0000.0001) %MON dynstat_uvel_max             =   4.8952633378903E-02
(PID.TID 0000.0001) %MON dynstat_uvel_min             =  -4.2214070569004E-02
(PID.TID 0000.0001) %MON dynstat_uvel_mean            =  -8.2090377128736E-04
(PID.TID 0000.0001) %MON dynstat_uvel_sd              =   4.8981484239138E-03
(PID.TID 0000.0001) %MON dynstat_uvel_del2            =   2.1171652679910E-03
(PID.TID 0000.0001) %MON dynstat_vvel_max             =   4.3279381569763E-02
(PID.TID 0000.0001) %MON dynstat_vvel_min             =  -2.7940264239108E-02
(PID.TID 0000.0001) %MON dynstat_vvel_mean            =  -1.5364744776211E-03
(PID.TID 0000.0001) %MON dynstat_vvel_sd              =   7.2325036765357E-03
(PID.TID 0000.0001) %MON dynstat_vvel_del2            =   1.5453961464095E-03
(PID.TID 0000.0001) %MON dynstat_wvel_max             =   1.1622405173523E-04
(PID.TID 0000.0001) %MON dynstat_wvel_min             =  -4.2839992322472E-05
(PID.TID 0000.0001) %MON dynstat_wvel_mean            =   1.7178015303068E-22
(PID.TID 0000.0001) %MON dynstat_wvel_sd              =   2.4859016526942E-05
(PID.TID 0000.0001) %MON dynstat_wvel_del2            =   4.8067400258907E-06
(PID.TID 0000.0001) %MON dynstat_theta_max            =   1.2864393116770E+01
(PID.TID 0000.0001) %MON dynstat_theta_min            =  -1.9633803646424E+00
(PID.TID 0000.0001) %MON dynstat_theta_mean           =   3.0722758455075E+00
(PID.TID 0000.0001) %MON dynstat_theta_sd             =   1.3958994960670E+00
(PID.TID 0000.0001) %MON dynstat_theta_del2           =   1.0287663975387E-01
(PID.TID 0000.0001) %MON dynstat_salt_max             =   3.5450852278682E+01
(PID.TID 0000.0001) %MON dynstat_salt_min             =   2.8927525776752E+01
(PID.TID 0000.0001) %MON dynstat_salt_mean            =   3.4749657381391E+01
(PID.TID 0000.0001) %MON dynstat_salt_sd              =   4.8804455614477E-01
(PID.TID 0000.0001) %MON dynstat_salt_del2            =   4.3315439729718E-02
(PID.TID 0000.0001) %MON advcfl_uvel_max              =   1.4357495743166E-03
(PID.TID 0000.0001) %MON advcfl_vvel_max              =   7.0059749285679E-04
(PID.TID 0000.0001) %MON advcfl_wvel_max              =   4.0444549258274E-02
(PID.TID 0000.0001) %MON advcfl_W_hf_max              =   4.1522629214945E-02
(PID.TID 0000.0001) %MON ke_max                       =   1.1030898892388E-03
(PID.TID 0000.0001) %MON ke_mean                      =   6.3495829389660E-05
(PID.TID 0000.0001) %MON ke_volint                    =   1.6452027133923E+11
(PID.TID 0000.0001) %MON ke_volmean                   =   3.1020379244097E-05
(PID.TID 0000.0001) // =======================================================
(PID.TID 0000.0001) // End MONITOR dynamic field statistics
(PID.TID 0000.0001) // =======================================================
 cg2d: Sum(rhs),rhsMax =  -5.26749747986610E-10  1.22168442130379E+00
(PID.TID 0000.0001)                    cg2d_init_res =    2.34421955626773E-01
(PID.TID 0000.0001)                       cg2d_iters =    33
(PID.TID 0000.0001)                         cg2d_res =    7.29931900187616E-09
(PID.TID 0000.0001) // =======================================================
(PID.TID 0000.0001) // Begin MONITOR dynamic field statistics
(PID.TID 0000.0001) // =======================================================
(PID.TID 0000.0001) %MON time_tsnumber                =                     3
(PID.TID 0000.0001) %MON time_secondsf                =   1.0800000000000E+04
(PID.TID 0000.0001) %MON time_secondsi                =                 10800
(PID.TID 0000.0001) %MON dynstat_eta_max              =   3.1363447378732E-01
(PID.TID 0000.0001) %MON dynstat_eta_min              =  -1.4780762562037E-01
(PID.TID 0000.0001) %MON dynstat_eta_mean             =   2.8638335103543E-11
(PID.TID 0000.0001) %MON dynstat_eta_sd               =   8.6680587708894E-02
(PID.TID 0000.0001) %MON dynstat_eta_del2             =   7.7567193915324E-03
(PID.TID 0000.0001) %MON dynstat_uvel_max             =   6.2147051102683E-02
(PID.TID 0000.0001) %MON dynstat_uvel_min             =  -5.3381662938887E-02
(PID.TID 0000.0001) %MON dynstat_uvel_mean            =  -3.6334671258031E-04
(PID.TID 0000.0001) %MON dynstat_uvel_sd              =   6.2911612069580E-03
(PID.TID 0000.0001) %MON dynstat_uvel_del2            =   2.6442635092147E-03
(PID.TID 0000.0001) %MON dynstat_vvel_max             =   5.9510762635188E-02
(PID.TID 0000.0001) %MON dynstat_vvel_min             =  -4.7694533032032E-02
(PID.TID 0000.0001) %MON dynstat_vvel_mean            =  -8.7407159631586E-04
(PID.TID 0000.0001) %MON dynstat_vvel_sd              =   9.4278733925442E-03
(PID.TID 0000.0001) %MON dynstat_vvel_del2            =   1.8849868763682E-03
(PID.TID 0000.0001) %MON dynstat_wvel_max             =   1.7727026379679E-04
(PID.TID 0000.0001) %MON dynstat_wvel_min             =  -6.9437260047235E-05
(PID.TID 0000.0001) %MON dynstat_wvel_mean            =  -2.2611575589840E-22
(PID.TID 0000.0001) %MON dynstat_wvel_sd              =   3.2971838135460E-05
(PID.TID 0000.0001) %MON dynstat_wvel_del2            =   5.5589781381075E-06
(PID.TID 0000.0001) %MON dynstat_theta_max            =   1.1877652438598E+01
(PID.TID 0000.0001) %MON dynstat_theta_min            =  -1.9598310582435E+00
(PID.TID 0000.0001) %MON dynstat_theta_mean           =   3.0722379046108E+00
(PID.TID 0000.0001) %MON dynstat_theta_sd             =   1.3860490756246E+00
(PID.TID 0000.0001) %MON dynstat_theta_del2           =   1.0904932889842E-01
(PID.TID 0000.0001) %MON dynstat_salt_max             =   3.5450050372024E+01
(PID.TID 0000.0001) %MON dynstat_salt_min             =   2.9490504751368E+01
(PID.TID 0000.0001) %MON dynstat_salt_mean            =   3.4750553924306E+01
(PID.TID 0000.0001) %MON dynstat_salt_sd              =   4.7657182928562E-01
(PID.TID 0000.0001) %MON dynstat_salt_del2            =   4.3502984535203E-02
(PID.TID 0000.0001) %MON advcfl_uvel_max              =   1.8177187879981E-03
(PID.TID 0000.0001) %MON advcfl_vvel_max              =   9.6334766320546E-04
(PID.TID 0000.0001) %MON advcfl_wvel_max              =   1.7380456262184E-02
(PID.TID 0000.0001) %MON advcfl_W_hf_max              =   1.8593569975781E-02
(PID.TID 0000.0001) %MON ke_max                       =   1.8701701019851E-03
(PID.TID 0000.0001) %MON ke_mean                      =   1.2199467358067E-04
(PID.TID 0000.0001) %MON ke_volint                    =   2.6824129042109E+11
(PID.TID 0000.0001) %MON ke_volmean                   =   5.0577029140870E-05
(PID.TID 0000.0001) // =======================================================
(PID.TID 0000.0001) // End MONITOR dynamic field statistics
(PID.TID 0000.0001) // =======================================================
 cg2d: Sum(rhs),rhsMax =  -1.04366092504304E-09  1.21403396307096E+00
(PID.TID 0000.0001)                    cg2d_init_res =    1.81538904677158E-01
(PID.TID 0000.0001)                       cg2d_iters =    32
(PID.TID 0000.0001)                         cg2d_res =    6.18120051112237E-09
(PID.TID 0000.0001) // =======================================================
(PID.TID 0000.0001) // Begin MONITOR dynamic field statistics
(PID.TID 0000.0001) // =======================================================
(PID.TID 0000.0001) %MON time_tsnumber                =                     4
(PID.TID 0000.0001) %MON time_secondsf                =   1.4400000000000E+04
(PID.TID 0000.0001) %MON time_secondsi                =                 14400
(PID.TID 0000.0001) %MON dynstat_eta_max              =   3.2031762328394E-01
(PID.TID 0000.0001) %MON dynstat_eta_min              =  -1.4107166479369E-01
(PID.TID 0000.0001) %MON dynstat_eta_mean             =   7.3354114223767E-11
(PID.TID 0000.0001) %MON dynstat_eta_sd               =   8.7384253259859E-02
(PID.TID 0000.0001) %MON dynstat_eta_del2             =   6.9290519415946E-03
(PID.TID 0000.0001) %MON dynstat_uvel_max             =   7.1364389399996E-02
(PID.TID 0000.0001) %MON dynstat_uvel_min             =  -5.2329258025892E-02
(PID.TID 0000.0001) %MON dynstat_uvel_mean            =   1.5506518561076E-04
(PID.TID 0000.0001) %MON dynstat_uvel_sd              =   7.4672130694999E-03
(PID.TID 0000.0001) %MON dynstat_uvel_del2            =   2.9862124243015E-03
(PID.TID 0000.0001) %MON dynstat_vvel_max             =   7.3313567788166E-02
(PID.TID 0000.0001) %MON dynstat_vvel_min             =  -6.3445522204313E-02
(PID.TID 0000.0001) %MON dynstat_vvel_mean            =  -4.7944185742176E-04
(PID.TID 0000.0001) %MON dynstat_vvel_sd              =   1.0772616339115E-02
(PID.TID 0000.0001) %MON dynstat_vvel_del2            =   2.0624363672984E-03
(PID.TID 0000.0001) %MON dynstat_wvel_max             =   2.3826378586609E-04
(PID.TID 0000.0001) %MON dynstat_wvel_min             =  -1.1068204207155E-04
(PID.TID 0000.0001) %MON dynstat_wvel_mean            =   2.8147109412255E-22
(PID.TID 0000.0001) %MON dynstat_wvel_sd              =   4.1224572052097E-05
(PID.TID 0000.0001) %MON dynstat_wvel_del2            =   6.4709708699934E-06
(PID.TID 0000.0001) %MON dynstat_theta_max            =   1.1841278879825E+01
(PID.TID 0000.0001) %MON dynstat_theta_min            =  -1.9600019427319E+00
(PID.TID 0000.0001) %MON dynstat_theta_mean           =   3.0721529422054E+00
(PID.TID 0000.0001) %MON dynstat_theta_sd             =   1.3839921217732E+00
(PID.TID 0000.0001) %MON dynstat_theta_del2           =   1.1432869297239E-01
(PID.TID 0000.0001) %MON dynstat_salt_max             =   3.5450141141068E+01
(PID.TID 0000.0001) %MON dynstat_salt_min             =   2.9666716748667E+01
(PID.TID 0000.0001) %MON dynstat_salt_mean            =   3.4750526088608E+01
(PID.TID 0000.0001) %MON dynstat_salt_sd              =   4.7607541585234E-01
(PID.TID 0000.0001) %MON dynstat_salt_del2            =   4.2788247730199E-02
(PID.TID 0000.0001) %MON advcfl_uvel_max              =   2.0536449711358E-03
(PID.TID 0000.0001) %MON advcfl_vvel_max              =   1.1867845593399E-03
(PID.TID 0000.0001) %MON advcfl_wvel_max              =   9.2415817160861E-03
(PID.TID 0000.0001) %MON advcfl_W_hf_max              =   8.8996032304048E-03
(PID.TID 0000.0001) %MON ke_max                       =   3.0588560341316E-03
(PID.TID 0000.0001) %MON ke_mean                      =   1.8144913029359E-04
(PID.TID 0000.0001) %MON ke_volint                    =   3.5687732778973E+11
(PID.TID 0000.0001) %MON ke_volmean                   =   6.7289398209359E-05
(PID.TID 0000.0001) // =======================================================
(PID.TID 0000.0001) // End MONITOR dynamic field statistics
(PID.TID 0000.0001) // =======================================================
 cg2d: Sum(rhs),rhsMax =  -2.68614570517189E-09  1.20819677591352E+00
(PID.TID 0000.0001)                    cg2d_init_res =    1.11460736057148E-01
(PID.TID 0000.0001)                       cg2d_iters =    31
(PID.TID 0000.0001)                         cg2d_res =    9.45643200874154E-09
(PID.TID 0000.0001) // =======================================================
(PID.TID 0000.0001) // Begin MONITOR dynamic field statistics
(PID.TID 0000.0001) // =======================================================
(PID.TID 0000.0001) %MON time_tsnumber                =                     5
(PID.TID 0000.0001) %MON time_secondsf                =   1.8000000000000E+04
(PID.TID 0000.0001) %MON time_secondsi                =                 18000
(PID.TID 0000.0001) %MON dynstat_eta_max              =   3.2333752445994E-01
(PID.TID 0000.0001) %MON dynstat_eta_min              =  -1.3339287872575E-01
(PID.TID 0000.0001) %MON dynstat_eta_mean             =   1.0209548570459E-10
(PID.TID 0000.0001) %MON dynstat_eta_sd               =   8.3575579177115E-02
(PID.TID 0000.0001) %MON dynstat_eta_del2             =   6.6985618438764E-03
(PID.TID 0000.0001) %MON dynstat_uvel_max             =   8.0050521452180E-02
(PID.TID 0000.0001) %MON dynstat_uvel_min             =  -4.4411261999282E-02
(PID.TID 0000.0001) %MON dynstat_uvel_mean            =   4.6052880574292E-04
(PID.TID 0000.0001) %MON dynstat_uvel_sd              =   8.5240059143483E-03
(PID.TID 0000.0001) %MON dynstat_uvel_del2            =   3.1250857789449E-03
(PID.TID 0000.0001) %MON dynstat_vvel_max             =   8.1886287290448E-02
(PID.TID 0000.0001) %MON dynstat_vvel_min             =  -7.3035227253896E-02
(PID.TID 0000.0001) %MON dynstat_vvel_mean            =  -2.8958835351781E-04
(PID.TID 0000.0001) %MON dynstat_vvel_sd              =   1.1230789810150E-02
(PID.TID 0000.0001) %MON dynstat_vvel_del2            =   2.1977206222121E-03
(PID.TID 0000.0001) %MON dynstat_wvel_max             =   3.0167079485304E-04
(PID.TID 0000.0001) %MON dynstat_wvel_min             =  -1.6431870419281E-04
(PID.TID 0000.0001) %MON dynstat_wvel_mean            =  -1.0083312154609E-22
(PID.TID 0000.0001) %MON dynstat_wvel_sd              =   5.0342743635845E-05
(PID.TID 0000.0001) %MON dynstat_wvel_del2            =   7.1254761610956E-06
(PID.TID 0000.0001) %MON dynstat_theta_max            =   1.1835544255583E+01
(PID.TID 0000.0001) %MON dynstat_theta_min            =  -1.9582606616446E+00
(PID.TID 0000.0001) %MON dynstat_theta_mean           =   3.0713751825153E+00
(PID.TID 0000.0001) %MON dynstat_theta_sd             =   1.3855752848307E+00
(PID.TID 0000.0001) %MON dynstat_theta_del2           =   1.1500753867987E-01
(PID.TID 0000.0001) %MON dynstat_salt_max             =   3.5450176925484E+01
(PID.TID 0000.0001) %MON dynstat_salt_min             =   2.9751003028256E+01
(PID.TID 0000.0001) %MON dynstat_salt_mean            =   3.4750017356799E+01
(PID.TID 0000.0001) %MON dynstat_salt_sd              =   4.7897299661668E-01
(PID.TID 0000.0001) %MON dynstat_salt_del2            =   4.3541848244596E-02
(PID.TID 0000.0001) %MON advcfl_uvel_max              =   2.0501723569960E-03
(PID.TID 0000.0001) %MON advcfl_vvel_max              =   1.3255579329978E-03
(PID.TID 0000.0001) %MON advcfl_wvel_max              =   6.2217953325685E-03
(PID.TID 0000.0001) %MON advcfl_W_hf_max              =   8.0161220284011E-03
(PID.TID 0000.0001) %MON ke_max                       =   4.2531867946011E-03
(PID.TID 0000.0001) %MON ke_mean                      =   2.2668127030001E-04
(PID.TID 0000.0001) %MON ke_volint                    =   4.1316969226562E+11
(PID.TID 0000.0001) %MON ke_volmean                   =   7.7903351616891E-05
(PID.TID 0000.0001) // =======================================================
(PID.TID 0000.0001) // End MONITOR dynamic field statistics
(PID.TID 0000.0001) // =======================================================
 cg2d: Sum(rhs),rhsMax =  -3.75772648414374E-09  1.20205428631637E+00
(PID.TID 0000.0001)                    cg2d_init_res =    1.12188145371966E-01
(PID.TID 0000.0001)                       cg2d_iters =    31
(PID.TID 0000.0001)                         cg2d_res =    9.56687621736350E-09
(PID.TID 0000.0001) // =======================================================
(PID.TID 0000.0001) // Begin MONITOR dynamic field statistics
(PID.TID 0000.0001) // =======================================================
(PID.TID 0000.0001) %MON time_tsnumber                =                     6
(PID.TID 0000.0001) %MON time_secondsf                =   2.1600000000000E+04
(PID.TID 0000.0001) %MON time_secondsi                =                 21600
(PID.TID 0000.0001) %MON dynstat_eta_max              =   3.2497109632176E-01
(PID.TID 0000.0001) %MON dynstat_eta_min              =  -1.2789258448772E-01
(PID.TID 0000.0001) %MON dynstat_eta_mean             =   1.2755821783680E-10
(PID.TID 0000.0001) %MON dynstat_eta_sd               =   7.8782547391741E-02
(PID.TID 0000.0001) %MON dynstat_eta_del2             =   6.8261950228786E-03
(PID.TID 0000.0001) %MON dynstat_uvel_max             =   9.6565273617517E-02
(PID.TID 0000.0001) %MON dynstat_uvel_min             =  -4.2953204080468E-02
(PID.TID 0000.0001) %MON dynstat_uvel_mean            =   5.1193371862256E-04
(PID.TID 0000.0001) %MON dynstat_uvel_sd              =   9.4335655398039E-03
(PID.TID 0000.0001) %MON dynstat_uvel_del2            =   3.0773759482862E-03
(PID.TID 0000.0001) %MON dynstat_vvel_max             =   8.3411567013350E-02
(PID.TID 0000.0001) %MON dynstat_vvel_min             =  -8.1372698452399E-02
(PID.TID 0000.0001) %MON dynstat_vvel_mean            =  -1.9143577030625E-04
(PID.TID 0000.0001) %MON dynstat_vvel_sd              =   1.0876603813995E-02
(PID.TID 0000.0001) %MON dynstat_vvel_del2            =   2.3659165296010E-03
(PID.TID 0000.0001) %MON dynstat_wvel_max             =   3.5583795443307E-04
(PID.TID 0000.0001) %MON dynstat_wvel_min             =  -2.2853799860886E-04
(PID.TID 0000.0001) %MON dynstat_wvel_mean            =   1.2118257414702E-21
(PID.TID 0000.0001) %MON dynstat_wvel_sd              =   5.8358190665239E-05
(PID.TID 0000.0001) %MON dynstat_wvel_del2            =   6.9019049190048E-06
(PID.TID 0000.0001) %MON dynstat_theta_max            =   1.1831484043255E+01
(PID.TID 0000.0001) %MON dynstat_theta_min            =  -1.9601321266982E+00
(PID.TID 0000.0001) %MON dynstat_theta_mean           =   3.0710308543746E+00
(PID.TID 0000.0001) %MON dynstat_theta_sd             =   1.3862681885474E+00
(PID.TID 0000.0001) %MON dynstat_theta_del2           =   1.1457698080896E-01
(PID.TID 0000.0001) %MON dynstat_salt_max             =   3.5450191388801E+01
(PID.TID 0000.0001) %MON dynstat_salt_min             =   2.9813974102480E+01
(PID.TID 0000.0001) %MON dynstat_salt_mean            =   3.4750001015665E+01
(PID.TID 0000.0001) %MON dynstat_salt_sd              =   4.7898319790967E-01
(PID.TID 0000.0001) %MON dynstat_salt_del2            =   4.3653119535609E-02
(PID.TID 0000.0001) %MON advcfl_uvel_max              =   2.3826792955318E-03
(PID.TID 0000.0001) %MON advcfl_vvel_max              =   1.3502488391756E-03
(PID.TID 0000.0001) %MON advcfl_wvel_max              =   6.8172164781092E-03
(PID.TID 0000.0001) %MON advcfl_W_hf_max              =   9.2599867899549E-03
(PID.TID 0000.0001) %MON ke_max                       =   5.1568437649864E-03
(PID.TID 0000.0001) %MON ke_mean                      =   2.5114085000550E-04
(PID.TID 0000.0001) %MON ke_volint                    =   4.3121153933849E+11
(PID.TID 0000.0001) %MON ke_volmean                   =   8.1305150883987E-05
(PID.TID 0000.0001) // =======================================================
(PID.TID 0000.0001) // End MONITOR dynamic field statistics
(PID.TID 0000.0001) // =======================================================
 cg2d: Sum(rhs),rhsMax =  -4.72500827006228E-09  1.19439629941328E+00
(PID.TID 0000.0001)                    cg2d_init_res =    7.25469444898004E-02
(PID.TID 0000.0001)                       cg2d_iters =    31
(PID.TID 0000.0001)                         cg2d_res =    7.78990212190439E-09
(PID.TID 0000.0001) // =======================================================
(PID.TID 0000.0001) // Begin MONITOR dynamic field statistics
(PID.TID 0000.0001) // =======================================================
(PID.TID 0000.0001) %MON time_tsnumber                =                     7
(PID.TID 0000.0001) %MON time_secondsf                =   2.5200000000000E+04
(PID.TID 0000.0001) %MON time_secondsi                =                 25200
(PID.TID 0000.0001) %MON dynstat_eta_max              =   3.2370582206775E-01
(PID.TID 0000.0001) %MON dynstat_eta_min              =  -1.2078736079124E-01
(PID.TID 0000.0001) %MON dynstat_eta_mean             =   1.8370788925625E-10
(PID.TID 0000.0001) %MON dynstat_eta_sd               =   7.4194002414310E-02
(PID.TID 0000.0001) %MON dynstat_eta_del2             =   6.9330492860577E-03
(PID.TID 0000.0001) %MON dynstat_uvel_max             =   1.0709072165479E-01
(PID.TID 0000.0001) %MON dynstat_uvel_min             =  -4.2045374692475E-02
(PID.TID 0000.0001) %MON dynstat_uvel_mean            =   4.0871804029856E-04
(PID.TID 0000.0001) %MON dynstat_uvel_sd              =   1.0090923835749E-02
(PID.TID 0000.0001) %MON dynstat_uvel_del2            =   2.9392973153629E-03
(PID.TID 0000.0001) %MON dynstat_vvel_max             =   7.8137608987845E-02
(PID.TID 0000.0001) %MON dynstat_vvel_min             =  -9.0819100486139E-02
(PID.TID 0000.0001) %MON dynstat_vvel_mean            =  -8.6971526480822E-05
(PID.TID 0000.0001) %MON dynstat_vvel_sd              =   9.8923911115864E-03
(PID.TID 0000.0001) %MON dynstat_vvel_del2            =   2.5226349865414E-03
(PID.TID 0000.0001) %MON dynstat_wvel_max             =   3.8834187701038E-04
(PID.TID 0000.0001) %MON dynstat_wvel_min             =  -2.8159915258678E-04
(PID.TID 0000.0001) %MON dynstat_wvel_mean            =   5.0558659989873E-22
(PID.TID 0000.0001) %MON dynstat_wvel_sd              =   6.4043207790710E-05
(PID.TID 0000.0001) %MON dynstat_wvel_del2            =   6.0859502187613E-06
(PID.TID 0000.0001) %MON dynstat_theta_max            =   1.1828574754177E+01
(PID.TID 0000.0001) %MON dynstat_theta_min            =  -1.9609422491851E+00
(PID.TID 0000.0001) %MON dynstat_theta_mean           =   3.0709840178294E+00
(PID.TID 0000.0001) %MON dynstat_theta_sd             =   1.3859306833564E+00
(PID.TID 0000.0001) %MON dynstat_theta_del2           =   1.1451901545119E-01
(PID.TID 0000.0001) %MON dynstat_salt_max             =   3.5450177830676E+01
(PID.TID 0000.0001) %MON dynstat_salt_min             =   2.9855349197372E+01
(PID.TID 0000.0001) %MON dynstat_salt_mean            =   3.4750079812903E+01
(PID.TID 0000.0001) %MON dynstat_salt_sd              =   4.7830829748140E-01
(PID.TID 0000.0001) %MON dynstat_salt_del2            =   4.3148633615661E-02
(PID.TID 0000.0001) %MON advcfl_uvel_max              =   2.6423872233935E-03
(PID.TID 0000.0001) %MON advcfl_vvel_max              =   1.4701604273512E-03
(PID.TID 0000.0001) %MON advcfl_wvel_max              =   7.3204375844783E-03
(PID.TID 0000.0001) %MON advcfl_W_hf_max              =   9.9737649831654E-03
(PID.TID 0000.0001) %MON ke_max                       =   5.5449546152673E-03
(PID.TID 0000.0001) %MON ke_mean                      =   2.5315983659356E-04
(PID.TID 0000.0001) %MON ke_volint                    =   4.1562393340076E+11
(PID.TID 0000.0001) %MON ke_volmean                   =   7.8366100007400E-05
(PID.TID 0000.0001) // =======================================================
(PID.TID 0000.0001) // End MONITOR dynamic field statistics
(PID.TID 0000.0001) // =======================================================
 cg2d: Sum(rhs),rhsMax =  -6.86523444343168E-09  1.18390010015589E+00
(PID.TID 0000.0001)                    cg2d_init_res =    6.72714483972854E-02
(PID.TID 0000.0001)                       cg2d_iters =    31
(PID.TID 0000.0001)                         cg2d_res =    8.90922448403174E-09
(PID.TID 0000.0001) // =======================================================
(PID.TID 0000.0001) // Begin MONITOR dynamic field statistics
(PID.TID 0000.0001) // =======================================================
(PID.TID 0000.0001) %MON time_tsnumber                =                     8
(PID.TID 0000.0001) %MON time_secondsf                =   2.8800000000000E+04
(PID.TID 0000.0001) %MON time_secondsi                =                 28800
(PID.TID 0000.0001) %MON dynstat_eta_max              =   3.1809371233047E-01
(PID.TID 0000.0001) %MON dynstat_eta_min              =  -1.1349687338285E-01
(PID.TID 0000.0001) %MON dynstat_eta_mean             =   2.1665475233862E-10
(PID.TID 0000.0001) %MON dynstat_eta_sd               =   7.0064050715257E-02
(PID.TID 0000.0001) %MON dynstat_eta_del2             =   7.0988442762213E-03
(PID.TID 0000.0001) %MON dynstat_uvel_max             =   1.1017419625036E-01
(PID.TID 0000.0001) %MON dynstat_uvel_min             =  -4.5183188413552E-02
(PID.TID 0000.0001) %MON dynstat_uvel_mean            =   2.3664139501382E-04
(PID.TID 0000.0001) %MON dynstat_uvel_sd              =   1.0353003779146E-02
(PID.TID 0000.0001) %MON dynstat_uvel_del2            =   2.7229047264237E-03
(PID.TID 0000.0001) %MON dynstat_vvel_max             =   6.7202764314850E-02
(PID.TID 0000.0001) %MON dynstat_vvel_min             =  -9.1946944016036E-02
(PID.TID 0000.0001) %MON dynstat_vvel_mean            =   5.4967526142821E-05
(PID.TID 0000.0001) %MON dynstat_vvel_sd              =   8.5801996127544E-03
(PID.TID 0000.0001) %MON dynstat_vvel_del2            =   2.6150880599215E-03
(PID.TID 0000.0001) %MON dynstat_wvel_max             =   3.9366750687776E-04
(PID.TID 0000.0001) %MON dynstat_wvel_min             =  -3.1620948160650E-04
(PID.TID 0000.0001) %MON dynstat_wvel_mean            =   2.0440233183403E-21
(PID.TID 0000.0001) %MON dynstat_wvel_sd              =   6.6792244649311E-05
(PID.TID 0000.0001) %MON dynstat_wvel_del2            =   5.5778424586386E-06
(PID.TID 0000.0001) %MON dynstat_theta_max            =   1.1825916750423E+01
(PID.TID 0000.0001) %MON dynstat_theta_min            =  -1.9597220417946E+00
(PID.TID 0000.0001) %MON dynstat_theta_mean           =   3.0709411359224E+00
(PID.TID 0000.0001) %MON dynstat_theta_sd             =   1.3857551115415E+00
(PID.TID 0000.0001) %MON dynstat_theta_del2           =   1.1472669273810E-01
(PID.TID 0000.0001) %MON dynstat_salt_max             =   3.5450134093835E+01
(PID.TID 0000.0001) %MON dynstat_salt_min             =   2.9856760083317E+01
(PID.TID 0000.0001) %MON dynstat_salt_mean            =   3.4750080905521E+01
(PID.TID 0000.0001) %MON dynstat_salt_sd              =   4.7823040123674E-01
(PID.TID 0000.0001) %MON dynstat_salt_del2            =   4.3141910839105E-02
(PID.TID 0000.0001) %MON advcfl_uvel_max              =   2.7184697611624E-03
(PID.TID 0000.0001) %MON advcfl_vvel_max              =   1.4884177203328E-03
(PID.TID 0000.0001) %MON advcfl_wvel_max              =   8.1820019314909E-03
(PID.TID 0000.0001) %MON advcfl_W_hf_max              =   9.9621760599948E-03
(PID.TID 0000.0001) %MON ke_max                       =   5.3557301104242E-03
(PID.TID 0000.0001) %MON ke_mean                      =   2.3566530864247E-04
(PID.TID 0000.0001) %MON ke_volint                    =   3.7655562337694E+11
(PID.TID 0000.0001) %MON ke_volmean                   =   7.0999750660298E-05
(PID.TID 0000.0001) // =======================================================
(PID.TID 0000.0001) // End MONITOR dynamic field statistics
(PID.TID 0000.0001) // =======================================================
 cg2d: Sum(rhs),rhsMax =  -8.19235678600760E-09  1.17004348219136E+00
(PID.TID 0000.0001)                    cg2d_init_res =    5.81922755477171E-02
(PID.TID 0000.0001)                       cg2d_iters =    31
(PID.TID 0000.0001)                         cg2d_res =    6.25772145899240E-09
(PID.TID 0000.0001) // =======================================================
(PID.TID 0000.0001) // Begin MONITOR dynamic field statistics
(PID.TID 0000.0001) // =======================================================
(PID.TID 0000.0001) %MON time_tsnumber                =                     9
(PID.TID 0000.0001) %MON time_secondsf                =   3.2400000000000E+04
(PID.TID 0000.0001) %MON time_secondsi                =                 32400
(PID.TID 0000.0001) %MON dynstat_eta_max              =   3.0827615731496E-01
(PID.TID 0000.0001) %MON dynstat_eta_min              =  -1.0684708489128E-01
(PID.TID 0000.0001) %MON dynstat_eta_mean             =   2.3234180317349E-10
(PID.TID 0000.0001) %MON dynstat_eta_sd               =   6.6482791809022E-02
(PID.TID 0000.0001) %MON dynstat_eta_del2             =   7.3323738290628E-03
(PID.TID 0000.0001) %MON dynstat_uvel_max             =   1.0554867652991E-01
(PID.TID 0000.0001) %MON dynstat_uvel_min             =  -5.0013539616889E-02
(PID.TID 0000.0001) %MON dynstat_uvel_mean            =   4.5893426343262E-05
(PID.TID 0000.0001) %MON dynstat_uvel_sd              =   1.0081745939273E-02
(PID.TID 0000.0001) %MON dynstat_uvel_del2            =   2.4363320931994E-03
(PID.TID 0000.0001) %MON dynstat_vvel_max             =   5.2538058898858E-02
(PID.TID 0000.0001) %MON dynstat_vvel_min             =  -9.2535519798706E-02
(PID.TID 0000.0001) %MON dynstat_vvel_mean            =   2.2832546553277E-04
(PID.TID 0000.0001) %MON dynstat_vvel_sd              =   7.3361697247311E-03
(PID.TID 0000.0001) %MON dynstat_vvel_del2            =   2.6019979459539E-03
(PID.TID 0000.0001) %MON dynstat_wvel_max             =   3.7230897352181E-04
(PID.TID 0000.0001) %MON dynstat_wvel_min             =  -3.2720988387217E-04
(PID.TID 0000.0001) %MON dynstat_wvel_mean            =   5.4477060978744E-22
(PID.TID 0000.0001) %MON dynstat_wvel_sd              =   6.6448949959244E-05
(PID.TID 0000.0001) %MON dynstat_wvel_del2            =   5.7270519499873E-06
(PID.TID 0000.0001) %MON dynstat_theta_max            =   1.1822984566247E+01
(PID.TID 0000.0001) %MON dynstat_theta_min            =  -1.9602129318260E+00
(PID.TID 0000.0001) %MON dynstat_theta_mean           =   3.0708970347573E+00
(PID.TID 0000.0001) %MON dynstat_theta_sd             =   1.3857248510450E+00
(PID.TID 0000.0001) %MON dynstat_theta_del2           =   1.1498396947380E-01
(PID.TID 0000.0001) %MON dynstat_salt_max             =   3.5450061492912E+01
(PID.TID 0000.0001) %MON dynstat_salt_min             =   2.9857644620803E+01
(PID.TID 0000.0001) %MON dynstat_salt_mean            =   3.4750079787972E+01
(PID.TID 0000.0001) %MON dynstat_salt_sd              =   4.7821897370683E-01
(PID.TID 0000.0001) %MON dynstat_salt_del2            =   4.3156329941761E-02
(PID.TID 0000.0001) %MON advcfl_uvel_max              =   2.6043383590949E-03
(PID.TID 0000.0001) %MON advcfl_vvel_max              =   1.4979454608581E-03
(PID.TID 0000.0001) %MON advcfl_wvel_max              =   8.1074359750483E-03
(PID.TID 0000.0001) %MON advcfl_W_hf_max              =   1.0588135840939E-02
(PID.TID 0000.0001) %MON ke_max                       =   4.6836871172022E-03
(PID.TID 0000.0001) %MON ke_mean                      =   2.0410405783159E-04
(PID.TID 0000.0001) %MON ke_volint                    =   3.2405709621792E+11
(PID.TID 0000.0001) %MON ke_volmean                   =   6.1101127171699E-05
(PID.TID 0000.0001) // =======================================================
(PID.TID 0000.0001) // End MONITOR dynamic field statistics
(PID.TID 0000.0001) // =======================================================
 cg2d: Sum(rhs),rhsMax =  -8.91056426213788E-09  1.15362540424213E+00
(PID.TID 0000.0001)                    cg2d_init_res =    5.78184413206784E-02
(PID.TID 0000.0001)                       cg2d_iters =    31
(PID.TID 0000.0001)                         cg2d_res =    4.95249790012918E-09
(PID.TID 0000.0001) // =======================================================
(PID.TID 0000.0001) // Begin MONITOR dynamic field statistics
(PID.TID 0000.0001) // =======================================================
(PID.TID 0000.0001) %MON time_tsnumber                =                    10
(PID.TID 0000.0001) %MON time_secondsf                =   3.6000000000000E+04
(PID.TID 0000.0001) %MON time_secondsi                =                 36000
(PID.TID 0000.0001) %MON dynstat_eta_max              =   2.9579349442642E-01
(PID.TID 0000.0001) %MON dynstat_eta_min              =  -1.0135321666405E-01
(PID.TID 0000.0001) %MON dynstat_eta_mean             =   2.3192927248216E-10
(PID.TID 0000.0001) %MON dynstat_eta_sd               =   6.3599382504881E-02
(PID.TID 0000.0001) %MON dynstat_eta_del2             =   7.4882566615311E-03
(PID.TID 0000.0001) %MON dynstat_uvel_max             =   9.4100812224612E-02
(PID.TID 0000.0001) %MON dynstat_uvel_min             =  -5.1139520543378E-02
(PID.TID 0000.0001) %MON dynstat_uvel_mean            =  -1.2494490578944E-04
(PID.TID 0000.0001) %MON dynstat_uvel_sd              =   9.2176251439615E-03
(PID.TID 0000.0001) %MON dynstat_uvel_del2            =   2.1943497696293E-03
(PID.TID 0000.0001) %MON dynstat_vvel_max             =   3.6590112903121E-02
(PID.TID 0000.0001) %MON dynstat_vvel_min             =  -8.6360076976811E-02
(PID.TID 0000.0001) %MON dynstat_vvel_mean            =   3.9946622307507E-04
(PID.TID 0000.0001) %MON dynstat_vvel_sd              =   6.4863672421173E-03
(PID.TID 0000.0001) %MON dynstat_vvel_del2            =   2.5034962313138E-03
(PID.TID 0000.0001) %MON dynstat_wvel_max             =   3.2935409363097E-04
(PID.TID 0000.0001) %MON dynstat_wvel_min             =  -3.1281557911440E-04
(PID.TID 0000.0001) %MON dynstat_wvel_mean            =   7.7369629473198E-22
(PID.TID 0000.0001) %MON dynstat_wvel_sd              =   6.3130185721956E-05
(PID.TID 0000.0001) %MON dynstat_wvel_del2            =   6.1582590527107E-06
(PID.TID 0000.0001) %MON dynstat_theta_max            =   1.1819723881195E+01
(PID.TID 0000.0001) %MON dynstat_theta_min            =  -1.9603923364744E+00
(PID.TID 0000.0001) %MON dynstat_theta_mean           =   3.0708526125126E+00
(PID.TID 0000.0001) %MON dynstat_theta_sd             =   1.3857270520777E+00
(PID.TID 0000.0001) %MON dynstat_theta_del2           =   1.1512321083443E-01
(PID.TID 0000.0001) %MON dynstat_salt_max             =   3.5449964336902E+01
(PID.TID 0000.0001) %MON dynstat_salt_min             =   2.9858344773941E+01
(PID.TID 0000.0001) %MON dynstat_salt_mean            =   3.4750078870127E+01
(PID.TID 0000.0001) %MON dynstat_salt_sd              =   4.7821682871802E-01
(PID.TID 0000.0001) %MON dynstat_salt_del2            =   4.3193201017176E-02
(PID.TID 0000.0001) %MON advcfl_uvel_max              =   2.3218704673109E-03
(PID.TID 0000.0001) %MON advcfl_vvel_max              =   1.3979786960529E-03
(PID.TID 0000.0001) %MON advcfl_wvel_max              =   7.9611444410210E-03
(PID.TID 0000.0001) %MON advcfl_W_hf_max              =   1.0389041819310E-02
(PID.TID 0000.0001) %MON ke_max                       =   3.7267966862563E-03
(PID.TID 0000.0001) %MON ke_mean                      =   1.6444004233820E-04
(PID.TID 0000.0001) %MON ke_volint                    =   2.6513516925935E+11
(PID.TID 0000.0001) %MON ke_volmean                   =   4.9991368446106E-05
(PID.TID 0000.0001) // =======================================================
(PID.TID 0000.0001) // End MONITOR dynamic field statistics
(PID.TID 0000.0001) // =======================================================
(PID.TID 0000.0001) // Time-average data written, t-step        10
(PID.TID 0000.0001) 
 cg2d: Sum(rhs),rhsMax =  -9.03149159972583E-09  1.13615814125626E+00
(PID.TID 0000.0001)                    cg2d_init_res =    6.13542856873474E-02
(PID.TID 0000.0001)                       cg2d_iters =    30
(PID.TID 0000.0001)                         cg2d_res =    9.20665177230792E-09
(PID.TID 0000.0001) // =======================================================
(PID.TID 0000.0001) // Begin MONITOR dynamic field statistics
(PID.TID 0000.0001) // =======================================================
(PID.TID 0000.0001) %MON time_tsnumber                =                    11
(PID.TID 0000.0001) %MON time_secondsf                =   3.9600000000000E+04
(PID.TID 0000.0001) %MON time_secondsi                =                 39600
(PID.TID 0000.0001) %MON dynstat_eta_max              =   2.8266048630059E-01
(PID.TID 0000.0001) %MON dynstat_eta_min              =  -9.7392679573077E-02
(PID.TID 0000.0001) %MON dynstat_eta_mean             =   2.2013776378975E-10
(PID.TID 0000.0001) %MON dynstat_eta_sd               =   6.1600136422948E-02
(PID.TID 0000.0001) %MON dynstat_eta_del2             =   7.6110716271817E-03
(PID.TID 0000.0001) %MON dynstat_uvel_max             =   7.7743212562507E-02
(PID.TID 0000.0001) %MON dynstat_uvel_min             =  -4.5018589873648E-02
(PID.TID 0000.0001) %MON dynstat_uvel_mean            =  -2.6087785422849E-04
(PID.TID 0000.0001) %MON dynstat_uvel_sd              =   7.8315679733373E-03
(PID.TID 0000.0001) %MON dynstat_uvel_del2            =   1.9808741638450E-03
(PID.TID 0000.0001) %MON dynstat_vvel_max             =   2.3621864533284E-02
(PID.TID 0000.0001) %MON dynstat_vvel_min             =  -7.5729780685088E-02
(PID.TID 0000.0001) %MON dynstat_vvel_mean            =   5.3063645506714E-04
(PID.TID 0000.0001) %MON dynstat_vvel_sd              =   6.0569742013001E-03
(PID.TID 0000.0001) %MON dynstat_vvel_del2            =   2.2865562145278E-03
(PID.TID 0000.0001) %MON dynstat_wvel_max             =   2.7328954992125E-04
(PID.TID 0000.0001) %MON dynstat_wvel_min             =  -2.7518190003696E-04
(PID.TID 0000.0001) %MON dynstat_wvel_mean            =   7.7926335587532E-22
(PID.TID 0000.0001) %MON dynstat_wvel_sd              =   5.7169763213560E-05
(PID.TID 0000.0001) %MON dynstat_wvel_del2            =   6.3977336348583E-06
(PID.TID 0000.0001) %MON dynstat_theta_max            =   1.1816198154880E+01
(PID.TID 0000.0001) %MON dynstat_theta_min            =  -1.9598860579687E+00
(PID.TID 0000.0001) %MON dynstat_theta_mean           =   3.0708212361614E+00
(PID.TID 0000.0001) %MON dynstat_theta_sd             =   1.3856944353474E+00
(PID.TID 0000.0001) %MON dynstat_theta_del2           =   1.1534916629629E-01
(PID.TID 0000.0001) %MON dynstat_salt_max             =   3.5449849847559E+01
(PID.TID 0000.0001) %MON dynstat_salt_min             =   2.9858859665109E+01
(PID.TID 0000.0001) %MON dynstat_salt_mean            =   3.4750087929817E+01
(PID.TID 0000.0001) %MON dynstat_salt_sd              =   4.7815682783970E-01
(PID.TID 0000.0001) %MON dynstat_salt_del2            =   4.3194896798319E-02
(PID.TID 0000.0001) %MON advcfl_uvel_max              =   1.9182583552190E-03
(PID.TID 0000.0001) %MON advcfl_vvel_max              =   1.2258977036686E-03
(PID.TID 0000.0001) %MON advcfl_wvel_max              =   7.1870991484610E-03
(PID.TID 0000.0001) %MON advcfl_W_hf_max              =   9.3766322292296E-03
(PID.TID 0000.0001) %MON ke_max                       =   2.7023701737545E-03
(PID.TID 0000.0001) %MON ke_mean                      =   1.2289392286621E-04
(PID.TID 0000.0001) %MON ke_volint                    =   2.0489522726183E+11
(PID.TID 0000.0001) %MON ke_volmean                   =   3.8633097327331E-05
(PID.TID 0000.0001) // =======================================================
(PID.TID 0000.0001) // End MONITOR dynamic field statistics
(PID.TID 0000.0001) // =======================================================
(PID.TID 0000.0001)   Seconds in section "ALL                [THE_MODEL_MAIN]":
(PID.TID 0000.0001)           User time:  1.36000001
(PID.TID 0000.0001)         System time:  0.409999996
(PID.TID 0000.0001)     Wall clock time:  7.25648797
(PID.TID 0000.0001)          No. starts: 1
(PID.TID 0000.0001)           No. stops: 1
(PID.TID 0000.0001)   Seconds in section "INITIALISE_FIXED   [THE_MODEL_MAIN]":
(PID.TID 0000.0001)           User time:  0.0599999987
(PID.TID 0000.0001)         System time:  0.0500000007
(PID.TID 0000.0001)     Wall clock time:  0.373507023
(PID.TID 0000.0001)          No. starts: 1
(PID.TID 0000.0001)           No. stops: 1
(PID.TID 0000.0001)   Seconds in section "THE_MAIN_LOOP      [THE_MODEL_MAIN]":
(PID.TID 0000.0001)           User time:  1.24999994
(PID.TID 0000.0001)         System time:  0.250000011
(PID.TID 0000.0001)     Wall clock time:  5.36652803
(PID.TID 0000.0001)          No. starts: 1
(PID.TID 0000.0001)           No. stops: 1
(PID.TID 0000.0001)   Seconds in section "INITIALISE_VARIA    [THE_MAIN_LOOP]":
(PID.TID 0000.0001)           User time:  0.329999987
(PID.TID 0000.0001)         System time:  0.0199999996
(PID.TID 0000.0001)     Wall clock time:  0.350618958
(PID.TID 0000.0001)          No. starts: 1
(PID.TID 0000.0001)           No. stops: 1
(PID.TID 0000.0001)   Seconds in section "WRITE_STATE         [THE_MAIN_LOOP]":
(PID.TID 0000.0001)           User time:  0.0100000203
(PID.TID 0000.0001)         System time:  0.0200000033
(PID.TID 0000.0001)     Wall clock time:  0.400632977
(PID.TID 0000.0001)          No. starts: 1
(PID.TID 0000.0001)           No. stops: 1
(PID.TID 0000.0001)   Seconds in section "MONITOR             [THE_MAIN_LOOP]":
(PID.TID 0000.0001)           User time:  0.
(PID.TID 0000.0001)         System time:  0.
(PID.TID 0000.0001)     Wall clock time:  0.00288796425
(PID.TID 0000.0001)          No. starts: 1
(PID.TID 0000.0001)           No. stops: 1
(PID.TID 0000.0001)   Seconds in section "MAIN LOOP           [THE_MAIN_LOOP]":
(PID.TID 0000.0001)           User time:  0.909999937
(PID.TID 0000.0001)         System time:  0.210000008
(PID.TID 0000.0001)     Wall clock time:  4.61228597
(PID.TID 0000.0001)          No. starts: 1
(PID.TID 0000.0001)           No. stops: 1
(PID.TID 0000.0001)   Seconds in section "FORWARD_STEP        [THE_MAIN_LOOP]":
(PID.TID 0000.0001)           User time:  0.909999937
(PID.TID 0000.0001)         System time:  0.210000008
(PID.TID 0000.0001)     Wall clock time:  4.6120559
(PID.TID 0000.0001)          No. starts: 11
(PID.TID 0000.0001)           No. stops: 11
(PID.TID 0000.0001)   Seconds in section "SEAICE_MODEL       [FORWARD_STEP]":
(PID.TID 0000.0001)           User time:  0.309999913
(PID.TID 0000.0001)         System time:  0.00999999791
(PID.TID 0000.0001)     Wall clock time:  0.441368818
(PID.TID 0000.0001)          No. starts: 11
(PID.TID 0000.0001)           No. stops: 11
(PID.TID 0000.0001)   Seconds in section "THERMODYNAMICS      [FORWARD_STEP]":
(PID.TID 0000.0001)           User time:  0.340000004
(PID.TID 0000.0001)         System time:  0.00999999791
(PID.TID 0000.0001)     Wall clock time:  0.348816156
(PID.TID 0000.0001)          No. starts: 11
(PID.TID 0000.0001)           No. stops: 11
(PID.TID 0000.0001)   Seconds in section "STATEKPP      [KPP_CALC]":
(PID.TID 0000.0001)           User time:  0.0200001001
(PID.TID 0000.0001)         System time:  0.
(PID.TID 0000.0001)     Wall clock time:  0.0207380056
(PID.TID 0000.0001)          No. starts: 11
(PID.TID 0000.0001)           No. stops: 11
(PID.TID 0000.0001)   Seconds in section "KPPMIX [KPP_CALC]":
(PID.TID 0000.0001)           User time:  0.129999936
(PID.TID 0000.0001)         System time:  0.
(PID.TID 0000.0001)     Wall clock time:  0.145363688
(PID.TID 0000.0001)          No. starts: 11
(PID.TID 0000.0001)           No. stops: 11
(PID.TID 0000.0001)   Seconds in section "DYNAMICS            [FORWARD_STEP]":
(PID.TID 0000.0001)           User time:  0.160000056
(PID.TID 0000.0001)         System time:  0.
(PID.TID 0000.0001)     Wall clock time:  0.172158837
(PID.TID 0000.0001)          No. starts: 11
(PID.TID 0000.0001)           No. stops: 11
(PID.TID 0000.0001)   Seconds in section "SOLVE_FOR_PRESSURE  [FORWARD_STEP]":
(PID.TID 0000.0001)           User time:  0.030000031
(PID.TID 0000.0001)         System time:  0.
(PID.TID 0000.0001)     Wall clock time:  0.0180851221
(PID.TID 0000.0001)          No. starts: 11
(PID.TID 0000.0001)           No. stops: 11
(PID.TID 0000.0001)   Seconds in section "THE_CORRECTION_STEP [FORWARD_STEP]":
(PID.TID 0000.0001)           User time:  0.0199999809
(PID.TID 0000.0001)         System time:  0.
(PID.TID 0000.0001)     Wall clock time:  0.0229059458
(PID.TID 0000.0001)          No. starts: 11
(PID.TID 0000.0001)           No. stops: 11
(PID.TID 0000.0001)   Seconds in section "BLOCKING_EXCHANGES  [FORWARD_STEP]":
(PID.TID 0000.0001)           User time:  0.00999999046
(PID.TID 0000.0001)         System time:  0.
(PID.TID 0000.0001)     Wall clock time:  0.00892210007
(PID.TID 0000.0001)          No. starts: 11
(PID.TID 0000.0001)           No. stops: 11
(PID.TID 0000.0001)   Seconds in section "MONITOR             [FORWARD_STEP]":
(PID.TID 0000.0001)           User time:  0.
(PID.TID 0000.0001)         System time:  0.
(PID.TID 0000.0001)     Wall clock time:  0.0387428999
(PID.TID 0000.0001)          No. starts: 11
(PID.TID 0000.0001)           No. stops: 11
(PID.TID 0000.0001)   Seconds in section "DO_THE_MODEL_IO     [FORWARD_STEP]":
(PID.TID 0000.0001)           User time:  0.00999999046
(PID.TID 0000.0001)         System time:  0.109999999
(PID.TID 0000.0001)     Wall clock time:  2.04069889
(PID.TID 0000.0001)          No. starts: 11
(PID.TID 0000.0001)           No. stops: 11
(PID.TID 0000.0001)   Seconds in section "WRITE_CHECKPOINT    [FORWARD_STEP]":
(PID.TID 0000.0001)           User time:  0.0299999714
(PID.TID 0000.0001)         System time:  0.0800000131
(PID.TID 0000.0001)     Wall clock time:  1.5180887
(PID.TID 0000.0001)          No. starts: 11
(PID.TID 0000.0001)           No. stops: 11
(PID.TID 0000.0001)   Seconds in section "WRITE_CHECKPOINT   [THE_MODEL_MAIN]":
(PID.TID 0000.0001)           User time:  0.0500000715
(PID.TID 0000.0001)         System time:  0.109999985
(PID.TID 0000.0001)     Wall clock time:  1.51635909
(PID.TID 0000.0001)          No. starts: 1
(PID.TID 0000.0001)           No. stops: 1
(PID.TID 0000.0001) // ======================================================
(PID.TID 0000.0001) // Tile <-> Tile communication statistics
(PID.TID 0000.0001) // ======================================================
(PID.TID 0000.0001) // o Tile number: 000001
(PID.TID 0000.0001) //         No. X exchanges =              0
(PID.TID 0000.0001) //            Max. X spins =              0
(PID.TID 0000.0001) //            Min. X spins =     1000000000
(PID.TID 0000.0001) //          Total. X spins =              0
(PID.TID 0000.0001) //            Avg. X spins =       0.00E+00
(PID.TID 0000.0001) //         No. Y exchanges =              0
(PID.TID 0000.0001) //            Max. Y spins =              0
(PID.TID 0000.0001) //            Min. Y spins =     1000000000
(PID.TID 0000.0001) //          Total. Y spins =              0
(PID.TID 0000.0001) //            Avg. Y spins =       0.00E+00
(PID.TID 0000.0001) // o Thread number: 000001
(PID.TID 0000.0001) //            No. barriers =           7580
(PID.TID 0000.0001) //      Max. barrier spins =              1
(PID.TID 0000.0001) //      Min. barrier spins =              1
(PID.TID 0000.0001) //     Total barrier spins =           7580
(PID.TID 0000.0001) //      Avg. barrier spins =       1.00E+00
