(PID.TID 0000.0001) 
(PID.TID 0000.0001) // ======================================================
(PID.TID 0000.0001) //                      MITgcm UV
(PID.TID 0000.0001) //                      =========
(PID.TID 0000.0001) // ======================================================
(PID.TID 0000.0001) // execution environment starting up...
(PID.TID 0000.0001) 
(PID.TID 0000.0001) // MITgcmUV version:  checkpoint63j
(PID.TID 0000.0001) // Build user:        gforget
(PID.TID 0000.0001) // Build host:        baudelaire
(PID.TID 0000.0001) // Build date:        Fri Mar  2 21:45:11 EST 2012
(PID.TID 0000.0001) 
(PID.TID 0000.0001) // =======================================================
(PID.TID 0000.0001) // Execution Environment parameter file "eedata"
(PID.TID 0000.0001) // =======================================================
(PID.TID 0000.0001) ># Example "eedata" file
(PID.TID 0000.0001) ># Lines beginning "#" are comments
(PID.TID 0000.0001) ># nTx - No. threads per process in X
(PID.TID 0000.0001) ># nTy - No. threads per process in Y
(PID.TID 0000.0001) > &EEPARMS
(PID.TID 0000.0001) > nTx=1,
(PID.TID 0000.0001) > nTy=1,
(PID.TID 0000.0001) > /
(PID.TID 0000.0001) ># Note: Some systems use & as the
(PID.TID 0000.0001) ># namelist terminator. Other systems
(PID.TID 0000.0001) ># use a / character (as shown here).
(PID.TID 0000.0001) 
(PID.TID 0000.0001) // =======================================================
(PID.TID 0000.0001) // Computational Grid Specification ( see files "SIZE.h" )
(PID.TID 0000.0001) //                                  ( and "eedata"       )
(PID.TID 0000.0001) // =======================================================
(PID.TID 0000.0001)      nPx =    1 ; /* No. processes in X */
(PID.TID 0000.0001)      nPy =    1 ; /* No. processes in Y */
(PID.TID 0000.0001)      nSx =    2 ; /* No. tiles in X per process */
(PID.TID 0000.0001)      nSy =    2 ; /* No. tiles in Y per process */
(PID.TID 0000.0001)      sNx =   10 ; /* Tile size in X */
(PID.TID 0000.0001)      sNy =    8 ; /* Tile size in Y */
(PID.TID 0000.0001)      OLx =    4 ; /* Tile overlap distance in X */
(PID.TID 0000.0001)      OLy =    4 ; /* Tile overlap distance in Y */
(PID.TID 0000.0001)      nTx =    1 ; /* No. threads in X per process */
(PID.TID 0000.0001)      nTy =    1 ; /* No. threads in Y per process */
(PID.TID 0000.0001)       Nr =   23 ; /* No. levels in the vertical   */
(PID.TID 0000.0001)       Nx =   20 ; /* Total domain size in X ( = nPx*nSx*sNx ) */
(PID.TID 0000.0001)       Ny =   16 ; /* Total domain size in Y ( = nPy*nSy*sNy ) */
(PID.TID 0000.0001)   nTiles =    4 ; /* Total no. tiles per process ( = nSx*nSy ) */
(PID.TID 0000.0001)   nProcs =    1 ; /* Total no. processes ( = nPx*nPy ) */
(PID.TID 0000.0001) nThreads =    1 ; /* Total no. threads per process ( = nTx*nTy ) */
(PID.TID 0000.0001) usingMPI =    F ; /* Flag used to control whether MPI is in use */
(PID.TID 0000.0001)                   /*  note: To execute a program with MPI calls */
(PID.TID 0000.0001)                   /*  it must be launched appropriately e.g     */
(PID.TID 0000.0001)                   /*  "mpirun -np 64 ......"                    */
(PID.TID 0000.0001) useCoupler=    F ;/* Flag used to control communications with   */
(PID.TID 0000.0001)                   /*  other model components, through a coupler */
(PID.TID 0000.0001) debugMode =    F ; /* print debug msg. (sequence of S/R calls)  */
(PID.TID 0000.0001) printMapIncludesZeros=    F ; /* print zeros in Std.Output maps */
(PID.TID 0000.0001) maxLengthPrt1D=   65 /* maxLength of 1D array printed to StdOut */
(PID.TID 0000.0001) 
(PID.TID 0000.0001) // ======================================================
(PID.TID 0000.0001) // Mapping of tiles to threads
(PID.TID 0000.0001) // ======================================================
(PID.TID 0000.0001) // -o- Thread   1, tiles (   1:   2,   1:   2)
(PID.TID 0000.0001) 
(PID.TID 0000.0001) // ======================================================
(PID.TID 0000.0001) // Tile <-> Tile connectvity table
(PID.TID 0000.0001) // ======================================================
(PID.TID 0000.0001) // Tile number: 000001 (process no. = 000001)
(PID.TID 0000.0001) //        WEST: Tile = 000002, Process = 000001, Comm = put
(PID.TID 0000.0001) //                bi = 000002, bj = 000001
(PID.TID 0000.0001) //        EAST: Tile = 000002, Process = 000001, Comm = put
(PID.TID 0000.0001) //                bi = 000002, bj = 000001
(PID.TID 0000.0001) //       SOUTH: Tile = 000003, Process = 000001, Comm = put
(PID.TID 0000.0001) //                bi = 000001, bj = 000002
(PID.TID 0000.0001) //       NORTH: Tile = 000003, Process = 000001, Comm = put
(PID.TID 0000.0001) //                bi = 000001, bj = 000002
(PID.TID 0000.0001) // Tile number: 000002 (process no. = 000001)
(PID.TID 0000.0001) //        WEST: Tile = 000001, Process = 000001, Comm = put
(PID.TID 0000.0001) //                bi = 000001, bj = 000001
(PID.TID 0000.0001) //        EAST: Tile = 000001, Process = 000001, Comm = put
(PID.TID 0000.0001) //                bi = 000001, bj = 000001
(PID.TID 0000.0001) //       SOUTH: Tile = 000004, Process = 000001, Comm = put
(PID.TID 0000.0001) //                bi = 000002, bj = 000002
(PID.TID 0000.0001) //       NORTH: Tile = 000004, Process = 000001, Comm = put
(PID.TID 0000.0001) //                bi = 000002, bj = 000002
(PID.TID 0000.0001) // Tile number: 000003 (process no. = 000001)
(PID.TID 0000.0001) //        WEST: Tile = 000004, Process = 000001, Comm = put
(PID.TID 0000.0001) //                bi = 000002, bj = 000002
(PID.TID 0000.0001) //        EAST: Tile = 000004, Process = 000001, Comm = put
(PID.TID 0000.0001) //                bi = 000002, bj = 000002
(PID.TID 0000.0001) //       SOUTH: Tile = 000001, Process = 000001, Comm = put
(PID.TID 0000.0001) //                bi = 000001, bj = 000001
(PID.TID 0000.0001) //       NORTH: Tile = 000001, Process = 000001, Comm = put
(PID.TID 0000.0001) //                bi = 000001, bj = 000001
(PID.TID 0000.0001) // Tile number: 000004 (process no. = 000001)
(PID.TID 0000.0001) //        WEST: Tile = 000003, Process = 000001, Comm = put
(PID.TID 0000.0001) //                bi = 000001, bj = 000002
(PID.TID 0000.0001) //        EAST: Tile = 000003, Process = 000001, Comm = put
(PID.TID 0000.0001) //                bi = 000001, bj = 000002
(PID.TID 0000.0001) //       SOUTH: Tile = 000002, Process = 000001, Comm = put
(PID.TID 0000.0001) //                bi = 000002, bj = 000001
(PID.TID 0000.0001) //       NORTH: Tile = 000002, Process = 000001, Comm = put
(PID.TID 0000.0001) //                bi = 000002, bj = 000001
(PID.TID 0000.0001) 
(PID.TID 0000.0001)  INI_PARMS: opening model parameter file "data"
(PID.TID 0000.0001)  OPEN_COPY_DATA_FILE: opening file data
(PID.TID 0000.0001) // =======================================================
(PID.TID 0000.0001) // Parameter file "data"
(PID.TID 0000.0001) // =======================================================
(PID.TID 0000.0001) ># ====================
(PID.TID 0000.0001) ># | Model parameters |
(PID.TID 0000.0001) ># ====================
(PID.TID 0000.0001) >#
(PID.TID 0000.0001) ># Continuous equation parameters
(PID.TID 0000.0001) >#
(PID.TID 0000.0001) >#   tRef            - Reference vertical potential temperature          (deg C)
(PID.TID 0000.0001) >#   sRef            - Reference vertical salinity                         (PSU)
(PID.TID 0000.0001) >#   viscAh          - Horizontal eddy viscosity coefficient             (m^2/s)
(PID.TID 0000.0001) >#   viscAz          - Vertical eddy viscosity coefficient               (m^2/s)
(PID.TID 0000.0001) >#   diffKhT         - Horizontal temperature diffusivity                (m^2/s)
(PID.TID 0000.0001) >#   diffKzT         - Vertical temperature diffusivity                  (m^2/s)
(PID.TID 0000.0001) >#   diffKhS         - Horizontal salt diffusivity                       (m^2/s)
(PID.TID 0000.0001) >#   diffKzS         - Vertical salt diffusivity                         (m^2/s)
(PID.TID 0000.0001) >#   gravity         - Acceleration due to gravity                       (m/s^2)
(PID.TID 0000.0001) >#   rigidLid        - Set to true to use rigid lid
(PID.TID 0000.0001) >#   implicitFreeSurface - Set to true to use implicit free surface
(PID.TID 0000.0001) >#   eosType         - Flag for linear or polynomial equation of state
(PID.TID 0000.0001) >#   momAdvection    - On/Off flag for momentum self transport
(PID.TID 0000.0001) >#   momViscosity    - On/Off flag for momentum mixing
(PID.TID 0000.0001) >#
(PID.TID 0000.0001) > &PARM01
(PID.TID 0000.0001) > tRef= 24.0 , 23.0 , 22.0 , 21.0 , 20.0 ,
(PID.TID 0000.0001) >       19.0 , 18.0 , 17.0 , 16.0 , 15.0 ,
(PID.TID 0000.0001) >       14.0 , 13.0 , 12.0 , 11.0 , 10.0 ,
(PID.TID 0000.0001) >        9.0 ,  8.0 ,  7.0 ,  6.0,   5.0 ,
(PID.TID 0000.0001) >        4.0 ,  3.0 ,  2.0 ,
(PID.TID 0000.0001) > sRef= 34.65, 34.75, 34.82, 34.87, 34.90,
(PID.TID 0000.0001) >       34.90, 34.86, 34.78, 34.69, 34.60,
(PID.TID 0000.0001) >       34.58, 34.62, 34.68, 34.72, 34.73,
(PID.TID 0000.0001) >       34.74, 34.73, 34.73, 34.72, 34.72,
(PID.TID 0000.0001) >       34.71, 34.70, 34.69,
(PID.TID 0000.0001) > no_slip_sides=.FALSE.,
(PID.TID 0000.0001) > no_slip_bottom=.TRUE.,
(PID.TID 0000.0001) > viscAz=1.93e-5,
(PID.TID 0000.0001) > viscAh=5.E4,
(PID.TID 0000.0001) > diffKhT=0.0,
(PID.TID 0000.0001) > diffKzT=1.46e-5,
(PID.TID 0000.0001) > diffKhS=0.0,
(PID.TID 0000.0001) > diffKzS=1.46e-5,
(PID.TID 0000.0001) > rigidLid=.FALSE.,
(PID.TID 0000.0001) > implicitFreeSurface=.TRUE.,
(PID.TID 0000.0001) > eosType='JMD95Z',
(PID.TID 0000.0001) > saltStepping=.TRUE.,
(PID.TID 0000.0001) > tempStepping=.TRUE.,
(PID.TID 0000.0001) > momStepping=.TRUE.,
(PID.TID 0000.0001) > implicitDiffusion=.TRUE.,
(PID.TID 0000.0001) > implicitViscosity=.TRUE.,
(PID.TID 0000.0001) > allowFreezing=.FALSE.,
(PID.TID 0000.0001) >#- set wrong celsius2K to reproduce old results:
(PID.TID 0000.0001) > celsius2K=273.16,
(PID.TID 0000.0001) > HeatCapacity_Cp = 3986.D0,
(PID.TID 0000.0001) > gravity         = 9.8156,
(PID.TID 0000.0001) > rhoConst        = 1027.D0,
(PID.TID 0000.0001) > rhoConstFresh   = 999.8,
(PID.TID 0000.0001) > useCDscheme=.TRUE.,
(PID.TID 0000.0001) > inAdExact=.TRUE.,
(PID.TID 0000.0001) >#ph(
(PID.TID 0000.0001) > staggerTimeStep=.TRUE.,
(PID.TID 0000.0001) > multiDimAdvection=.TRUE.,
(PID.TID 0000.0001) > tempAdvScheme=30,
(PID.TID 0000.0001) > saltAdvScheme=30,
(PID.TID 0000.0001) >#ph)
(PID.TID 0000.0001) >#globalFiles=.TRUE.,
(PID.TID 0000.0001) >#- not safe to use globalFiles in multi-processors runs; set instead useSingleCpuIO
(PID.TID 0000.0001) > useSingleCpuIO=.FALSE.,
(PID.TID 0000.0001) > readBinaryPrec=32,
(PID.TID 0000.0001) > writeBinaryPrec=32,
(PID.TID 0000.0001) > /
(PID.TID 0000.0001) >
(PID.TID 0000.0001) ># Elliptic solver parameters
(PID.TID 0000.0001) >#
(PID.TID 0000.0001) >#   cg2dMaxIters       - Maximum number of 2d solver iterations
(PID.TID 0000.0001) >#   cg2dTargetResidual - Solver target residual
(PID.TID 0000.0001) >#
(PID.TID 0000.0001) > &PARM02
(PID.TID 0000.0001) > cg2dMaxIters=1000,
(PID.TID 0000.0001) > cg2dTargetResidual=1.E-13,
(PID.TID 0000.0001) > /
(PID.TID 0000.0001) >
(PID.TID 0000.0001) ># Time stepping parameters
(PID.TID 0000.0001) >#
(PID.TID 0000.0001) >#   startTime         - Integration starting time                (s)
(PID.TID 0000.0001) >#   endTime           - Integration ending time                  (s)
(PID.TID 0000.0001) >#   tauCD             - CD scheme coupling timescale             (s)
(PID.TID 0000.0001) >#   deltaTMom         - Timestep for momemtum equations          (s)
(PID.TID 0000.0001) >#   deltaTtracer      - Tracer timestep                          (s)
(PID.TID 0000.0001) >#   deltaTClock       - Timestep used as model "clock"           (s)
(PID.TID 0000.0001) >#   abEps             - Adams-Bashforth stabilising factor
(PID.TID 0000.0001) >#   pChkPtFreq        - Frequency of permanent check pointing    (s)
(PID.TID 0000.0001) >#   chkPtFreq         - Frequency of rolling check pointing      (s)
(PID.TID 0000.0001) >#   dumpFreq          - Frequency at which model state is stored (s)
(PID.TID 0000.0001) >#   tauThetaClimRelax - Relaxation to climatology time scale     (s)
(PID.TID 0000.0001) >#   tauSaltClimRelax  - Relaxation to climatology time scale     (s)
(PID.TID 0000.0001) >#
(PID.TID 0000.0001) > &PARM03
(PID.TID 0000.0001) > tauCD=172800.,
(PID.TID 0000.0001) > startTime=0.0,
(PID.TID 0000.0001) > nTimeSteps=3,
(PID.TID 0000.0001) > deltaTmom=3600.0,
(PID.TID 0000.0001) > deltaTtracer=3600.0,
(PID.TID 0000.0001) > deltaTClock =3600.0,
(PID.TID 0000.0001) > cAdjFreq=0.,
(PID.TID 0000.0001) > abEps=0.1,
(PID.TID 0000.0001) > forcing_In_AB = .FALSE.,
(PID.TID 0000.0001) > pChkptFreq=36000.,
(PID.TID 0000.0001) > chkptFreq= 0.,
(PID.TID 0000.0001) > dumpFreq = 0.,
(PID.TID 0000.0001) > taveFreq = 36000.,
(PID.TID 0000.0001) > monitorFreq=1.,
(PID.TID 0000.0001) > adjMonitorFreq=1.,
(PID.TID 0000.0001) > adjDumpFreq=1.,
(PID.TID 0000.0001) > /
(PID.TID 0000.0001) >
(PID.TID 0000.0001) ># Gridding parameters
(PID.TID 0000.0001) >#
(PID.TID 0000.0001) >#   usingSphericalPolarGrid - On/Off flag for spherical polar coordinates
(PID.TID 0000.0001) >#   delX                    - Zonal grid spacing         (degrees)
(PID.TID 0000.0001) >#   delY                    - Meridional grid spacing    (degrees)
(PID.TID 0000.0001) >#   delZ                    - Vertical grid spacing      (m)
(PID.TID 0000.0001) >#   ygOrigin                - Southern boundary latitude (degrees)
(PID.TID 0000.0001) >#
(PID.TID 0000.0001) > &PARM04
(PID.TID 0000.0001) > usingSphericalPolarGrid=.TRUE.,
(PID.TID 0000.0001) > delX=20*2.E0,
(PID.TID 0000.0001) > delY=16*2.E0,
(PID.TID 0000.0001) > delZ= 10., 10., 15., 20., 20., 25., 35., 50., 75.,
(PID.TID 0000.0001) >       100., 150., 200., 275., 350., 415., 450.,
(PID.TID 0000.0001) >       500., 500., 500., 500., 500., 500., 500.,
(PID.TID 0000.0001) > ygOrigin=46.,
(PID.TID 0000.0001) > xgOrigin=280.,
(PID.TID 0000.0001) > rSphere = 6371.D3,
(PID.TID 0000.0001) > /
(PID.TID 0000.0001) >
(PID.TID 0000.0001) ># Input datasets
(PID.TID 0000.0001) >#
(PID.TID 0000.0001) >#   bathyFile       - File containing bathymetry
(PID.TID 0000.0001) >#   hydrogThetaFile - File containing initial potential temperature data
(PID.TID 0000.0001) >#   hydrogSaltFile  - File containing initial salinity data
(PID.TID 0000.0001) >#   zonalWindFile   - File containing zonal wind data
(PID.TID 0000.0001) >#   meridWindFile   - File containing meridional wind data
(PID.TID 0000.0001) >#   thetaClimFile   - File containing theta climatology used for relaxation
(PID.TID 0000.0001) >#   saltClimFile    - File containing salt climatology used for relaxation
(PID.TID 0000.0001) >#
(PID.TID 0000.0001) > &PARM05
(PID.TID 0000.0001) > bathyFile       = 'bathy.labsea1979',
(PID.TID 0000.0001) > hydrogThetaFile = 'LevCli_temp.labsea1979',
(PID.TID 0000.0001) > hydrogSaltFile  = 'LevCli_salt.labsea1979',
(PID.TID 0000.0001) > /
(PID.TID 0000.0001) >
(PID.TID 0000.0001) 
(PID.TID 0000.0001)  INI_PARMS ; starts to read PARM01
(PID.TID 0000.0001)  INI_PARMS ; read PARM01 : OK
(PID.TID 0000.0001)  INI_PARMS ; starts to read PARM02
(PID.TID 0000.0001)  INI_PARMS ; read PARM02 : OK
(PID.TID 0000.0001)  INI_PARMS ; starts to read PARM03
(PID.TID 0000.0001)  INI_PARMS ; read PARM03 : OK
(PID.TID 0000.0001)  INI_PARMS ; starts to read PARM04
(PID.TID 0000.0001)  INI_PARMS ; read PARM04 : OK
(PID.TID 0000.0001)  INI_PARMS ; starts to read PARM05
(PID.TID 0000.0001)  INI_PARMS ; read PARM05 : OK
(PID.TID 0000.0001)  INI_PARMS: finished reading file "data"
(PID.TID 0000.0001)  PACKAGES_BOOT: opening data.pkg
(PID.TID 0000.0001)  OPEN_COPY_DATA_FILE: opening file data.pkg
(PID.TID 0000.0001) // =======================================================
(PID.TID 0000.0001) // Parameter file "data.pkg"
(PID.TID 0000.0001) // =======================================================
(PID.TID 0000.0001) ># Packages
(PID.TID 0000.0001) > &PACKAGES
(PID.TID 0000.0001) >  useGMRedi = .TRUE.,
(PID.TID 0000.0001) >  useKPP    = .TRUE.,
(PID.TID 0000.0001) >  useEXF    = .TRUE.,
(PID.TID 0000.0001) >  useSEAICE = .TRUE.,
(PID.TID 0000.0001) >  useDOWN_SLOPE=.TRUE.,
(PID.TID 0000.0001) >  useDiagnostics = .FALSE.,
(PID.TID 0000.0001) ># useMNC    = .TRUE.,
(PID.TID 0000.0001) >  useECCO   = .TRUE.,
(PID.TID 0000.0001) >  useGrdchk = .TRUE.,
(PID.TID 0000.0001) > /
(PID.TID 0000.0001) 
(PID.TID 0000.0001)  PACKAGES_BOOT: finished reading data.pkg
(PID.TID 0000.0001) CAL_READPARMS: opening data.cal
(PID.TID 0000.0001)  OPEN_COPY_DATA_FILE: opening file data.cal
(PID.TID 0000.0001) // =======================================================
(PID.TID 0000.0001) // Parameter file "data.cal"
(PID.TID 0000.0001) // =======================================================
(PID.TID 0000.0001) >#
(PID.TID 0000.0001) ># *******************
(PID.TID 0000.0001) ># Calendar Parameters
(PID.TID 0000.0001) ># *******************
(PID.TID 0000.0001) > &CAL_NML
(PID.TID 0000.0001) > TheCalendar='gregorian',
(PID.TID 0000.0001) ># TheCalendar='model',
(PID.TID 0000.0001) > startDate_1=19790101,
(PID.TID 0000.0001) > startDate_2=000000,
(PID.TID 0000.0001) > /
(PID.TID 0000.0001) 
(PID.TID 0000.0001) CAL_READPARMS: finished reading data.cal
(PID.TID 0000.0001) 
(PID.TID 0000.0001) // =======================================================
(PID.TID 0000.0001) // Calendar configuration >>> START <<<
(PID.TID 0000.0001) // =======================================================
(PID.TID 0000.0001) 
(PID.TID 0000.0001) Calendar version: 0.2.0
(PID.TID 0000.0001) 
(PID.TID 0000.0001) startTime =   /* Start time of the model integration [s] */
(PID.TID 0000.0001)                 0.000000000000000E+00
(PID.TID 0000.0001)     ;
(PID.TID 0000.0001) endTime =   /* End time of the model integration [s] */
(PID.TID 0000.0001)                 1.080000000000000E+04
(PID.TID 0000.0001)     ;
(PID.TID 0000.0001) deltatclock =   /* Time interval for a model forward step [s] */
(PID.TID 0000.0001)                 3.600000000000000E+03
(PID.TID 0000.0001)     ;
(PID.TID 0000.0001) usingGregorianCalendar =  /* Calendar Type: Gregorian Calendar */
(PID.TID 0000.0001)                   T
(PID.TID 0000.0001)     ;
(PID.TID 0000.0001) usingJulianCalendar =  /* Calendar Type: Julian Calendar */
(PID.TID 0000.0001)                   F
(PID.TID 0000.0001)     ;
(PID.TID 0000.0001) usingModelCalendar =  /* Calendar Type: Model Calendar */
(PID.TID 0000.0001)                   F
(PID.TID 0000.0001)     ;
(PID.TID 0000.0001) usingNoCalendar =  /* Calendar Type: No Calendar */
(PID.TID 0000.0001)                   F
(PID.TID 0000.0001)     ;
(PID.TID 0000.0001) modelstartdate (YYYYMMDD) =   /* Model start date YYYY-MM-DD  */
(PID.TID 0000.0001)                19790101
(PID.TID 0000.0001)     ;
(PID.TID 0000.0001) modelstartdate (HHMMSS) =   /* Model start date HH-MM-SS  */
(PID.TID 0000.0001)                       0
(PID.TID 0000.0001)     ;
(PID.TID 0000.0001) modelenddate (YYYYMMDD) =   /* Model end date YYYY-MM-DD  */
(PID.TID 0000.0001)                19790101
(PID.TID 0000.0001)     ;
(PID.TID 0000.0001) modelenddate (HHMMSS) =   /* Model end date HH-MM-SS  */
(PID.TID 0000.0001)                   30000
(PID.TID 0000.0001)     ;
(PID.TID 0000.0001) intyears = /* Number of calendar years affected by the integration */
(PID.TID 0000.0001)                       1
(PID.TID 0000.0001)     ;
(PID.TID 0000.0001) intmonths= /* Number of calendar months affected by the integration */
(PID.TID 0000.0001)                       1
(PID.TID 0000.0001)     ;
(PID.TID 0000.0001) intdays = /* Number of calendar days affected by the integration */
(PID.TID 0000.0001)                       1
(PID.TID 0000.0001)     ;
(PID.TID 0000.0001) 
(PID.TID 0000.0001) // =======================================================
(PID.TID 0000.0001) // Calendar configuration  >>> END <<<
(PID.TID 0000.0001) // =======================================================
(PID.TID 0000.0001) 
(PID.TID 0000.0001) EXF_READPARMS: opening data.exf
(PID.TID 0000.0001)  OPEN_COPY_DATA_FILE: opening file data.exf
(PID.TID 0000.0001) // =======================================================
(PID.TID 0000.0001) // Parameter file "data.exf"
(PID.TID 0000.0001) // =======================================================
(PID.TID 0000.0001) >#
(PID.TID 0000.0001) ># *********************
(PID.TID 0000.0001) ># External Forcing Data
(PID.TID 0000.0001) ># *********************
(PID.TID 0000.0001) > &EXF_NML_01
(PID.TID 0000.0001) >#
(PID.TID 0000.0001) > useExfCheckRange  = .TRUE.,
(PID.TID 0000.0001) > repeatPeriod      = 31622400.0,
(PID.TID 0000.0001) > exf_iprec         = 32,
(PID.TID 0000.0001) >#
(PID.TID 0000.0001) > /
(PID.TID 0000.0001) >
(PID.TID 0000.0001) ># *********************
(PID.TID 0000.0001) > &EXF_NML_02
(PID.TID 0000.0001) >#
(PID.TID 0000.0001) > hfluxstartdate1   = 19781216,
(PID.TID 0000.0001) > hfluxstartdate2   = 180000,
(PID.TID 0000.0001) > hfluxperiod       = 2635200.0,
(PID.TID 0000.0001) >#
(PID.TID 0000.0001) > sfluxstartdate1   = 19781216,
(PID.TID 0000.0001) > sfluxstartdate2   = 180000,
(PID.TID 0000.0001) > sfluxperiod       = 2635200.0,
(PID.TID 0000.0001) >#
(PID.TID 0000.0001) > ustressstartdate1 = 19781216,
(PID.TID 0000.0001) > ustressstartdate2 = 180000,
(PID.TID 0000.0001) > ustressperiod     = 2635200.0,
(PID.TID 0000.0001) >#
(PID.TID 0000.0001) > vstressstartdate1 = 19781216,
(PID.TID 0000.0001) > vstressstartdate2 = 180000,
(PID.TID 0000.0001) > vstressperiod     = 2635200.0,
(PID.TID 0000.0001) >#
(PID.TID 0000.0001) > atempstartdate1   = 19781216,
(PID.TID 0000.0001) > atempstartdate2   = 180000,
(PID.TID 0000.0001) > atempperiod       = 2635200.0,
(PID.TID 0000.0001) >#
(PID.TID 0000.0001) > aqhstartdate1     = 19781216,
(PID.TID 0000.0001) > aqhstartdate2     = 180000,
(PID.TID 0000.0001) > aqhperiod         = 2635200.0,
(PID.TID 0000.0001) >#
(PID.TID 0000.0001) >#evapstartdate1    = 19781216,
(PID.TID 0000.0001) >#evapstartdate2    = 180000,
(PID.TID 0000.0001) >#evapperiod        = 2635200.0,
(PID.TID 0000.0001) >#
(PID.TID 0000.0001) > precipstartdate1  = 19781216,
(PID.TID 0000.0001) > precipstartdate2  = 180000,
(PID.TID 0000.0001) > precipperiod      = 2635200.0,
(PID.TID 0000.0001) >#
(PID.TID 0000.0001) > uwindstartdate1   = 19781216,
(PID.TID 0000.0001) > uwindstartdate2   = 180000,
(PID.TID 0000.0001) > uwindperiod       = 2635200.0,
(PID.TID 0000.0001) >#
(PID.TID 0000.0001) > vwindstartdate1   = 19781216,
(PID.TID 0000.0001) > vwindstartdate2   = 180000,
(PID.TID 0000.0001) > vwindperiod       = 2635200.0,
(PID.TID 0000.0001) >#
(PID.TID 0000.0001) > swfluxstartdate1  = 19781216,
(PID.TID 0000.0001) > swfluxstartdate2  = 180000,
(PID.TID 0000.0001) > swfluxperiod      = 2635200.0,
(PID.TID 0000.0001) >#
(PID.TID 0000.0001) > lwfluxstartdate1  = 19781216,
(PID.TID 0000.0001) > lwfluxstartdate2  = 180000,
(PID.TID 0000.0001) > lwfluxperiod      = 2635200.0,
(PID.TID 0000.0001) >#
(PID.TID 0000.0001) > swdownstartdate1  = 19781216,
(PID.TID 0000.0001) > swdownstartdate2  = 180000,
(PID.TID 0000.0001) > swdownperiod      = 2635200.0,
(PID.TID 0000.0001) >#
(PID.TID 0000.0001) > lwdownstartdate1  = 19781216,
(PID.TID 0000.0001) > lwdownstartdate2  = 180000,
(PID.TID 0000.0001) > lwdownperiod      = 2635200.0,
(PID.TID 0000.0001) >#
(PID.TID 0000.0001) > climsststartdate1  = 19781216,
(PID.TID 0000.0001) > climsststartdate2  = 180000,
(PID.TID 0000.0001) > climsstperiod      = 2635200.0,
(PID.TID 0000.0001) > climsstTauRelax    = 0.0,
(PID.TID 0000.0001) >#
(PID.TID 0000.0001) > climsssstartdate1  = 19781216,
(PID.TID 0000.0001) > climsssstartdate2  = 180000,
(PID.TID 0000.0001) > climsssperiod      = 2635200.0,
(PID.TID 0000.0001) > climsssTauRelax    = 4142330.0,
(PID.TID 0000.0001) >#
(PID.TID 0000.0001) > hfluxfile         = ' ',
(PID.TID 0000.0001) > sfluxfile         = ' ',
(PID.TID 0000.0001) > ustressfile       = ' ',
(PID.TID 0000.0001) > vstressfile       = ' ',
(PID.TID 0000.0001) > atempfile         = 'tair.labsea1979',
(PID.TID 0000.0001) > aqhfile           = 'qa.labsea1979',
(PID.TID 0000.0001) > uwindfile         = 'u10m.labsea1979',
(PID.TID 0000.0001) > vwindfile         = 'v10m.labsea1979',
(PID.TID 0000.0001) >#evapfile          = 'evap.labsea1979',
(PID.TID 0000.0001) > precipfile        = 'prate.labsea1979',
(PID.TID 0000.0001) > lwfluxfile        = ' ',
(PID.TID 0000.0001) > swfluxfile        = ' ',
(PID.TID 0000.0001) > lwdownfile        = 'flo.labsea1979',
(PID.TID 0000.0001) > swdownfile        = 'fsh.labsea1979',
(PID.TID 0000.0001) > runoffFile        = ' '
(PID.TID 0000.0001) > climsstfile       = ' ',
(PID.TID 0000.0001) > climsssfile       = 'SSS_monthly.labsea1979',
(PID.TID 0000.0001) >#
(PID.TID 0000.0001) > /
(PID.TID 0000.0001) >
(PID.TID 0000.0001) ># *********************
(PID.TID 0000.0001) > &EXF_NML_03
(PID.TID 0000.0001) > /
(PID.TID 0000.0001) >
(PID.TID 0000.0001) ># *********************
(PID.TID 0000.0001) > &EXF_NML_04
(PID.TID 0000.0001) > /
(PID.TID 0000.0001) 
(PID.TID 0000.0001) EXF_READPARMS: reading EXF_NML_01
(PID.TID 0000.0001) EXF_READPARMS: reading EXF_NML_02
(PID.TID 0000.0001) EXF_READPARMS: reading EXF_NML_03
(PID.TID 0000.0001) EXF_READPARMS: finished reading data.exf
(PID.TID 0000.0001)  GM_READPARMS: opening data.gmredi
(PID.TID 0000.0001)  OPEN_COPY_DATA_FILE: opening file data.gmredi
(PID.TID 0000.0001) // =======================================================
(PID.TID 0000.0001) // Parameter file "data.gmredi"
(PID.TID 0000.0001) // =======================================================
(PID.TID 0000.0001) ># GM+Redi package parameters:
(PID.TID 0000.0001) >#     GM_Small_Number  :: epsilon used in computing the slope
(PID.TID 0000.0001) >#     GM_slopeSqCutoff :: slope^2 cut-off value
(PID.TID 0000.0001) >
(PID.TID 0000.0001) >#-from MOM :
(PID.TID 0000.0001) ># GM_background_K: 	G & Mc.W  diffusion coefficient
(PID.TID 0000.0001) ># GM_maxSlope    :	max slope of isopycnals
(PID.TID 0000.0001) ># GM_Scrit       :	transition for scaling diffusion coefficient
(PID.TID 0000.0001) ># GM_Sd          :	half width scaling for diffusion coefficient
(PID.TID 0000.0001) ># GM_taper_scheme:	slope clipping or one of the tapering schemes
(PID.TID 0000.0001) ># GM_Kmin_horiz  :	horizontal diffusion minimum value
(PID.TID 0000.0001) >
(PID.TID 0000.0001) >#-Option parameters (needs to "define" options in GMREDI_OPTIONS.h")
(PID.TID 0000.0001) ># GM_isopycK     :	isopycnal diffusion coefficient (default=GM_background_K)
(PID.TID 0000.0001) ># GM_AdvForm     :	turn on GM Advective form       (default=Skew flux form)
(PID.TID 0000.0001) >
(PID.TID 0000.0001) > &GM_PARM01
(PID.TID 0000.0001) >  GM_Small_Number  = 1.D-20,
(PID.TID 0000.0001) >  GM_slopeSqCutoff = 1.D+08,
(PID.TID 0000.0001) >  GM_AdvForm         = .FALSE.,
(PID.TID 0000.0001) >#  GM_isopycK         = 1.1D+3,
(PID.TID 0000.0001) >#  GM_background_K    = 0.9D+3,
(PID.TID 0000.0001) >  GM_background_K    = 1.D+3,
(PID.TID 0000.0001) >  GM_taper_scheme    = 'dm95',
(PID.TID 0000.0001) >  GM_maxSlope        = 1.D-2,
(PID.TID 0000.0001) >  GM_Kmin_horiz      = 50.,
(PID.TID 0000.0001) >  GM_Scrit           = 4.D-3,
(PID.TID 0000.0001) >  GM_Sd              = 1.D-3,
(PID.TID 0000.0001) >#  GM_Visbeck_alpha   = 1.5D-2,
(PID.TID 0000.0001) >  GM_Visbeck_alpha   = 0.,
(PID.TID 0000.0001) >  GM_Visbeck_length  = 2.D+5,
(PID.TID 0000.0001) >  GM_Visbeck_depth   = 1.D+3,
(PID.TID 0000.0001) >  GM_Visbeck_maxval_K= 2.5D+3,
(PID.TID 0000.0001) > /
(PID.TID 0000.0001) >
(PID.TID 0000.0001) >
(PID.TID 0000.0001) 
(PID.TID 0000.0001)  GM_READPARMS: finished reading data.gmredi
(PID.TID 0000.0001)  DWNSLP_READPARMS: opening data.down_slope
(PID.TID 0000.0001)  OPEN_COPY_DATA_FILE: opening file data.down_slope
(PID.TID 0000.0001) // =======================================================
(PID.TID 0000.0001) // Parameter file "data.down_slope"
(PID.TID 0000.0001) // =======================================================
(PID.TID 0000.0001) ># DOWN_SLOPE package parameters (lines beginning "#" are comments):
(PID.TID 0000.0001) >#   DWNSLP_slope  :: fixed slope (=0 => use the local slope)
(PID.TID 0000.0001) >#   DWNSLP_rec_mu :: reciprol friction parameter (unit = time scale [s])
(PID.TID 0000.0001) >#         used to compute the flow: U=dy*dz*(slope * g/mu * dRho / rho0)
(PID.TID 0000.0001) >#   dwnslp_drFlow :: max. thickness [m] of the effective downsloping flow layer
(PID.TID 0000.0001) > &DWNSLP_PARM01
(PID.TID 0000.0001) >  DWNSLP_slope = 5.E-3,
(PID.TID 0000.0001) >  DWNSLP_rec_mu= 1.E+4,
(PID.TID 0000.0001) >  DWNSLP_drFlow= 30.,
(PID.TID 0000.0001) ># temp_useDWNSLP=.FALSE.,
(PID.TID 0000.0001) ># salt_useDWNSLP=.FALSE.,
(PID.TID 0000.0001) > /
(PID.TID 0000.0001) 
(PID.TID 0000.0001)  DWNSLP_READPARMS: finished reading data.downslp
(PID.TID 0000.0001) DWNSLP_slope =   /* DOWNSLP fixed slope (=0 => use local slope) */
(PID.TID 0000.0001)                 5.000000000000000E-03
(PID.TID 0000.0001)     ;
(PID.TID 0000.0001) DWNSLP_rec_mu =   /* DOWNSLP recip. friction parameter (time, s ) */
(PID.TID 0000.0001)                 1.000000000000000E+04
(PID.TID 0000.0001)     ;
(PID.TID 0000.0001) DWNSLP_drFlow =   /* DOWNSLP effective layer thickness ( m ) */
(PID.TID 0000.0001)                 3.000000000000000E+01
(PID.TID 0000.0001)     ;
(PID.TID 0000.0001)  KPP_INIT: opening data.kpp
(PID.TID 0000.0001)  OPEN_COPY_DATA_FILE: opening file data.kpp
(PID.TID 0000.0001) // =======================================================
(PID.TID 0000.0001) // Parameter file "data.kpp"
(PID.TID 0000.0001) // =======================================================
(PID.TID 0000.0001) ># KPP parameters
(PID.TID 0000.0001) > &KPP_PARM01
(PID.TID 0000.0001) > KPPmixingMaps   = .FALSE.,
(PID.TID 0000.0001) > KPPwriteState   = .TRUE.,
(PID.TID 0000.0001) > KPP_ghatUseTotalDiffus=.TRUE.,
(PID.TID 0000.0001) > /
(PID.TID 0000.0001) 
(PID.TID 0000.0001)  KPP_INIT: finished reading data.kpp
(PID.TID 0000.0001) 
(PID.TID 0000.0001)  SEAICE_READPARMS: opening data.seaice
(PID.TID 0000.0001)  OPEN_COPY_DATA_FILE: opening file data.seaice
(PID.TID 0000.0001) // =======================================================
(PID.TID 0000.0001) // Parameter file "data.seaice"
(PID.TID 0000.0001) // =======================================================
(PID.TID 0000.0001) ># SEAICE parameters
(PID.TID 0000.0001) > &SEAICE_PARM01
(PID.TID 0000.0001) >      SEAICE_initialHEFF = 1.0,
(PID.TID 0000.0001) >      SEAICE_deltaTtherm = 3600.,
(PID.TID 0000.0001) >      SEAICE_deltaTdyn   = 3600.,
(PID.TID 0000.0001) >      SEAICEuseDYNAMICS  =.TRUE.,
(PID.TID 0000.0001) >#-- According to Martin, SEAICE_clipVelocities is not recommended
(PID.TID 0000.0001) >#     SEAICE_clipVelocities=.TRUE.,
(PID.TID 0000.0001) >      SEAICEadvSalt      =.FALSE.,
(PID.TID 0000.0001) >#-- above: to reproduce old results
(PID.TID 0000.0001) >      LSR_ERROR          = 1.E-6,
(PID.TID 0000.0001) >###      SEAICE_deltaTevp   = 60,
(PID.TID 0000.0001) >      SEAICE_EPS         = 1.E-8,
(PID.TID 0000.0001) >#- to reproduce old results with former #defined SEAICE_SOLVE4TEMP_LEGACY code
(PID.TID 0000.0001) >  useMaykutSatVapPoly = .TRUE.,
(PID.TID 0000.0001) >  postSolvTempIter  =  0,
(PID.TID 0000.0001) >      SIsalFRAC          = 0.3,
(PID.TID 0000.0001) >      SEAICE_tempFrz0    = -1.96,
(PID.TID 0000.0001) >      SEAICE_dTempFrz_dS = 0.,
(PID.TID 0000.0001) >      SEAICE_availHeatFrac = 0.8,
(PID.TID 0000.0001) >      SEAICEadvSnow      = .TRUE.,
(PID.TID 0000.0001) >      SEAICEuseFlooding  = .TRUE.,
(PID.TID 0000.0001) >      SEAICEdiffKhArea   = 200.,
(PID.TID 0000.0001) >      SEAICEwriteState   = .TRUE.,
(PID.TID 0000.0001) >#     SEAICE_tave_mnc    = .FALSE.,
(PID.TID 0000.0001) >#     SEAICE_dump_mnc    = .FALSE.,
(PID.TID 0000.0001) >#     SEAICE_mon_mnc     = .FALSE.,
(PID.TID 0000.0001) > /
(PID.TID 0000.0001) >
(PID.TID 0000.0001) > &SEAICE_PARM02
(PID.TID 0000.0001) >  mult_ice   = 1.,
(PID.TID 0000.0001) ># choose which seaice cost term you want
(PID.TID 0000.0001) >  cost_ice_flag = 1,
(PID.TID 0000.0001) ># the following timings are obsolete;
(PID.TID 0000.0001) ># replaced by lastinterval
(PID.TID 0000.0001) > costIceStart1        = 20000101,
(PID.TID 0000.0001) > costIceStart2        = 00000,
(PID.TID 0000.0001) > costIceEnd1        = 20000201,
(PID.TID 0000.0001) > costIceEnd2        = 00000,
(PID.TID 0000.0001) > /
(PID.TID 0000.0001) >
(PID.TID 0000.0001) > &SEAICE_PARM03
(PID.TID 0000.0001) > /
(PID.TID 0000.0001) 
(PID.TID 0000.0001)  SEAICE_READPARMS: finished reading data.seaice
(PID.TID 0000.0001) OPTIM_READPARMS: opening data.optim
(PID.TID 0000.0001)  OPEN_COPY_DATA_FILE: opening file data.optim
(PID.TID 0000.0001) // =======================================================
(PID.TID 0000.0001) // Parameter file "data.optim"
(PID.TID 0000.0001) // =======================================================
(PID.TID 0000.0001) >#
(PID.TID 0000.0001) ># ********************************
(PID.TID 0000.0001) ># Off-line optimization parameters
(PID.TID 0000.0001) ># ********************************
(PID.TID 0000.0001) > &OPTIM
(PID.TID 0000.0001) > optimcycle=0,
(PID.TID 0000.0001) > /
(PID.TID 0000.0001) 
(PID.TID 0000.0001) OPTIM_READPARMS: finished reading data.optim
(PID.TID 0000.0001) CTRL_READPARMS: opening data.ctrl
(PID.TID 0000.0001)  OPEN_COPY_DATA_FILE: opening file data.ctrl
(PID.TID 0000.0001) // =======================================================
(PID.TID 0000.0001) // Parameter file "data.ctrl"
(PID.TID 0000.0001) // =======================================================
(PID.TID 0000.0001) >#
(PID.TID 0000.0001) >#
(PID.TID 0000.0001) ># *********************
(PID.TID 0000.0001) ># ECCO controlvariables
(PID.TID 0000.0001) ># *********************
(PID.TID 0000.0001) > &CTRL_NML
(PID.TID 0000.0001) ># doSinglePrecTapelev=.TRUE.,
(PID.TID 0000.0001) > xx_theta_file      ='xx_theta',
(PID.TID 0000.0001) > xx_salt_file       ='xx_salt',
(PID.TID 0000.0001) > xx_siarea_file     ='xx_siarea',
(PID.TID 0000.0001) > xx_siheff_file     ='xx_siheff',
(PID.TID 0000.0001) > xx_sihsnow_file    ='xx_sihsnow',
(PID.TID 0000.0001) >#
(PID.TID 0000.0001) > xx_hfluxstartdate1 = 19790101,
(PID.TID 0000.0001) > xx_hfluxstartdate2 = 000000,
(PID.TID 0000.0001) > xx_hfluxperiod     = 864000.0,
(PID.TID 0000.0001) > xx_hflux_file      = 'xx_hfl',
(PID.TID 0000.0001) >#
(PID.TID 0000.0001) > xx_sfluxstartdate1 = 19790101,
(PID.TID 0000.0001) > xx_sfluxstartdate2 = 000000,
(PID.TID 0000.0001) > xx_sfluxperiod     = 864000.0,
(PID.TID 0000.0001) > xx_sflux_file      = 'xx_sfl',
(PID.TID 0000.0001) >#
(PID.TID 0000.0001) > xx_tauustartdate1 = 19790101,
(PID.TID 0000.0001) > xx_tauustartdate2 = 000000,
(PID.TID 0000.0001) > xx_tauuperiod     = 864000.0,
(PID.TID 0000.0001) > xx_tauu_file      = 'xx_tauu',
(PID.TID 0000.0001) >#
(PID.TID 0000.0001) > xx_tauvstartdate1 = 19790101,
(PID.TID 0000.0001) > xx_tauvstartdate2 = 000000,
(PID.TID 0000.0001) > xx_tauvperiod     = 864000.0,
(PID.TID 0000.0001) > xx_tauv_file      = 'xx_tauv',
(PID.TID 0000.0001) >#
(PID.TID 0000.0001) > xx_atempstartdate1 = 19790101,
(PID.TID 0000.0001) > xx_atempstartdate2 = 000000,
(PID.TID 0000.0001) > xx_atempperiod     = 864000.0,
(PID.TID 0000.0001) > xx_atemp_file      = 'xx_atemp',
(PID.TID 0000.0001) >#
(PID.TID 0000.0001) > xx_aqhstartdate1 = 19790101,
(PID.TID 0000.0001) > xx_aqhstartdate2 = 000000,
(PID.TID 0000.0001) > xx_aqhperiod     = 864000.0,
(PID.TID 0000.0001) > xx_aqh_file      = 'xx_aqh',
(PID.TID 0000.0001) >#
(PID.TID 0000.0001) > xx_precipstartdate1 = 19790101,
(PID.TID 0000.0001) > xx_precipstartdate2 = 000000,
(PID.TID 0000.0001) > xx_precipperiod     = 864000.0,
(PID.TID 0000.0001) > xx_precip_file      = 'xx_precip',
(PID.TID 0000.0001) >#
(PID.TID 0000.0001) > xx_swfluxstartdate1 = 19790101,
(PID.TID 0000.0001) > xx_swfluxstartdate2 = 000000,
(PID.TID 0000.0001) > xx_swfluxperiod     = 864000.0,
(PID.TID 0000.0001) > xx_swflux_file      = 'xx_swflux',
(PID.TID 0000.0001) >#
(PID.TID 0000.0001) > xx_swdownstartdate1 = 19790101,
(PID.TID 0000.0001) > xx_swdownstartdate2 = 000000,
(PID.TID 0000.0001) > xx_swdownperiod     = 864000.0,
(PID.TID 0000.0001) > xx_swdown_file      = 'xx_swdown',
(PID.TID 0000.0001) >#
(PID.TID 0000.0001) > xx_lwfluxstartdate1 = 19790101,
(PID.TID 0000.0001) > xx_lwfluxstartdate2 = 000000,
(PID.TID 0000.0001) > xx_lwfluxperiod     = 864000.0,
(PID.TID 0000.0001) > xx_lwflux_file      = 'xx_lwflux',
(PID.TID 0000.0001) >#
(PID.TID 0000.0001) > xx_lwdownstartdate1 = 19790101,
(PID.TID 0000.0001) > xx_lwdownstartdate2 = 000000,
(PID.TID 0000.0001) > xx_lwdownperiod     = 864000.0,
(PID.TID 0000.0001) > xx_lwdown_file      = 'xx_lwdown',
(PID.TID 0000.0001) >#
(PID.TID 0000.0001) > xx_evapstartdate1 = 19790101,
(PID.TID 0000.0001) > xx_evapstartdate2 = 000000,
(PID.TID 0000.0001) > xx_evapperiod     = 864000.0,
(PID.TID 0000.0001) > xx_evap_file      = 'xx_evap',
(PID.TID 0000.0001) >#
(PID.TID 0000.0001) > xx_snowprecipstartdate1 = 19790101,
(PID.TID 0000.0001) > xx_snowprecipstartdate2 = 000000,
(PID.TID 0000.0001) > xx_snowprecipperiod     = 864000.0,
(PID.TID 0000.0001) > xx_snowprecip_file      = 'xx_snowprecip',
(PID.TID 0000.0001) >#
(PID.TID 0000.0001) > xx_apressurestartdate1 = 19790101,
(PID.TID 0000.0001) > xx_apressurestartdate2 = 000000,
(PID.TID 0000.0001) > xx_apressureperiod     = 864000.0,
(PID.TID 0000.0001) > xx_apressure_file      = 'xx_apressure',
(PID.TID 0000.0001) >#
(PID.TID 0000.0001) > xx_uwindstartdate1 = 19790101,
(PID.TID 0000.0001) > xx_uwindstartdate2 = 000000,
(PID.TID 0000.0001) > xx_uwindperiod     = 864000.0,
(PID.TID 0000.0001) > xx_uwind_file      = 'xx_uwind',
(PID.TID 0000.0001) >#
(PID.TID 0000.0001) > xx_vwindstartdate1 = 19790101,
(PID.TID 0000.0001) > xx_vwindstartdate2 = 000000,
(PID.TID 0000.0001) > xx_vwindperiod     = 864000.0,
(PID.TID 0000.0001) > xx_vwind_file      = 'xx_vwind',
(PID.TID 0000.0001) > /
(PID.TID 0000.0001) >#
(PID.TID 0000.0001) ># *********************
(PID.TID 0000.0001) ># names for ctrl_pack/unpack
(PID.TID 0000.0001) ># *********************
(PID.TID 0000.0001) > &CTRL_PACKNAMES
(PID.TID 0000.0001) > /
(PID.TID 0000.0001) 
(PID.TID 0000.0001) CTRL_READPARMS: finished reading data.ctrl
(PID.TID 0000.0001) COST_READPARMS: opening data.cost
(PID.TID 0000.0001)  OPEN_COPY_DATA_FILE: opening file data.cost
(PID.TID 0000.0001) // =======================================================
(PID.TID 0000.0001) // Parameter file "data.cost"
(PID.TID 0000.0001) // =======================================================
(PID.TID 0000.0001) >#
(PID.TID 0000.0001) >#
(PID.TID 0000.0001) ># ******************
(PID.TID 0000.0001) ># cost function
(PID.TID 0000.0001) ># ******************
(PID.TID 0000.0001) > &COST_NML
(PID.TID 0000.0001) > /
(PID.TID 0000.0001) 
(PID.TID 0000.0001) COST_READPARMS: finished reading data.cost
(PID.TID 0000.0001) GRDCHK_READPARMS: opening data.grdchk
(PID.TID 0000.0001)  OPEN_COPY_DATA_FILE: opening file data.grdchk
(PID.TID 0000.0001) // =======================================================
(PID.TID 0000.0001) // Parameter file "data.grdchk"
(PID.TID 0000.0001) // =======================================================
(PID.TID 0000.0001) >
(PID.TID 0000.0001) ># *******************
(PID.TID 0000.0001) ># ECCO gradient check
(PID.TID 0000.0001) ># *******************
(PID.TID 0000.0001) > &GRDCHK_NML
(PID.TID 0000.0001) > grdchk_eps       = 1.d-4,
(PID.TID 0000.0001) ># nbeg             = 4,
(PID.TID 0000.0001) > iGloPos          = 4,
(PID.TID 0000.0001) > jGloPos          = 8,
(PID.TID 0000.0001) > kGloPos          = 1,
(PID.TID 0000.0001) > nstep            = 1,
(PID.TID 0000.0001) > nend             = 4,
(PID.TID 0000.0001) > grdchkvarindex   = 7,
(PID.TID 0000.0001) > /
(PID.TID 0000.0001) 
(PID.TID 0000.0001) GRDCHK_READPARMS: finished reading data.grdchk
(PID.TID 0000.0001) 
(PID.TID 0000.0001) // =======================================================
(PID.TID 0000.0001) // Gradient check configuration  >>> START <<<
(PID.TID 0000.0001) // =======================================================
(PID.TID 0000.0001) 
(PID.TID 0000.0001)   eps:                              0.100E-03
(PID.TID 0000.0001)   First location:                           0
(PID.TID 0000.0001)   Last location:                            4
(PID.TID 0000.0001)   Increment:                                1
(PID.TID 0000.0001)   grdchkWhichProc:                          0
(PID.TID 0000.0001)   iLocTile =       1  ,    jLocTile =       1
(PID.TID 0000.0001) 
(PID.TID 0000.0001) // =======================================================
(PID.TID 0000.0001) // Gradient check configuration  >>> END <<<
(PID.TID 0000.0001) // =======================================================
(PID.TID 0000.0001) 
(PID.TID 0000.0001) ECCO_READPARMS: opening data.ecco
(PID.TID 0000.0001)  OPEN_COPY_DATA_FILE: opening file data.ecco
(PID.TID 0000.0001) // =======================================================
(PID.TID 0000.0001) // Parameter file "data.ecco"
(PID.TID 0000.0001) // =======================================================
(PID.TID 0000.0001) >#
(PID.TID 0000.0001) >#
(PID.TID 0000.0001) ># ******************
(PID.TID 0000.0001) ># ECCO cost function
(PID.TID 0000.0001) ># ******************
(PID.TID 0000.0001) > &ECCO_COST_NML
(PID.TID 0000.0001) > data_errfile ='data.err',
(PID.TID 0000.0001) > tbarfile   = 'tbar',
(PID.TID 0000.0001) > sbarfile   = 'sbar',
(PID.TID 0000.0001) > psbarfile  = 'psbar',
(PID.TID 0000.0001) >#
(PID.TID 0000.0001) > topexstartdate1 = 19790101,
(PID.TID 0000.0001) > topexstartdate2 = 00000,
(PID.TID 0000.0001) > topexperiod     = 2635200.0,
(PID.TID 0000.0001) > topexfile       = 'labsea_TP_fields',
(PID.TID 0000.0001) > topexmeanfile   = 'labsea_TP_mean',
(PID.TID 0000.0001) >#
(PID.TID 0000.0001) > ersfile       = 'labsea_ERS_fields',
(PID.TID 0000.0001) > ersstartdate1 = 19790101,
(PID.TID 0000.0001) > ersstartdate2 = 00000,
(PID.TID 0000.0001) > ersperiod     = 2635200.0,
(PID.TID 0000.0001) >#
(PID.TID 0000.0001) > sststartdate1        = 19790101,
(PID.TID 0000.0001) > sststartdate2        = 00000,
(PID.TID 0000.0001) > sstdatfile           = 'labsea_SST_fields',
(PID.TID 0000.0001) > tdatfile             = 'labsea_Lev.ptmp',
(PID.TID 0000.0001) > sdatfile             = 'labsea_Lev.salt',
(PID.TID 0000.0001) > ssh_errfile          = 'labsea_ssh.err',
(PID.TID 0000.0001) > geoid_errfile        = 'labsea_geoid.err',
(PID.TID 0000.0001) > geoid_covariancefile = ' ',
(PID.TID 0000.0001) >#
(PID.TID 0000.0001) > hflux_errfile        = ' ',
(PID.TID 0000.0001) > sflux_errfile        = ' ',
(PID.TID 0000.0001) > tauu_errfile         = ' ',
(PID.TID 0000.0001) > tauv_errfile         = ' ',
(PID.TID 0000.0001) > atemp_errfile        = ' ',
(PID.TID 0000.0001) > aqh_errfile          = ' ',
(PID.TID 0000.0001) > precip_errfile       = ' ',
(PID.TID 0000.0001) > swflux_errfile       = ' ',
(PID.TID 0000.0001) > swdown_errfile       = ' ',
(PID.TID 0000.0001) > uwind_errfile        = ' ',
(PID.TID 0000.0001) > vwind_errfile        = ' ',
(PID.TID 0000.0001) >#
(PID.TID 0000.0001) > whflux0              = 20.,
(PID.TID 0000.0001) > wsflux0              = 3.0E-8,
(PID.TID 0000.0001) > wtau0                = 2.0E-2,
(PID.TID 0000.0001) > watemp0              = 0.5,
(PID.TID 0000.0001) > waqh0                = 5.E-4,
(PID.TID 0000.0001) > wprecip0             = 1.E-8,
(PID.TID 0000.0001) > wswflux0             = 20.,
(PID.TID 0000.0001) > wswdown0             = 20.,
(PID.TID 0000.0001) > wlwflux0             = 20.,
(PID.TID 0000.0001) > wlwdown0             = 20.,
(PID.TID 0000.0001) > wwind0               = 1.0,
(PID.TID 0000.0001) > wevap0               = 1.0,
(PID.TID 0000.0001) > wsnowprecip0         = 1.0,
(PID.TID 0000.0001) > wapressure0          = 1.0,
(PID.TID 0000.0001) >#
(PID.TID 0000.0001) > wmean_hflux          = 30.,
(PID.TID 0000.0001) > wmean_sflux          = 1.6E-8,
(PID.TID 0000.0001) > wmean_tau            = 0.1,
(PID.TID 0000.0001) > wmean_atemp          = 1.,
(PID.TID 0000.0001) > wmean_aqh            = 1.E-3,
(PID.TID 0000.0001) > wmean_precip         = 1.5E-8,
(PID.TID 0000.0001) > wmean_swflux         = 20.,
(PID.TID 0000.0001) > wmean_swdown         = 20.,
(PID.TID 0000.0001) > wmean_lwdown         = 20.,
(PID.TID 0000.0001) > wmean_lwflux         = 20.,
(PID.TID 0000.0001) > wmean_wind           = 2.0,
(PID.TID 0000.0001) > wmean_evap           = 1.0,
(PID.TID 0000.0001) > wmean_snowprecip     = 1.0,
(PID.TID 0000.0001) > wmean_apressure      = 1.0,
(PID.TID 0000.0001) >#
(PID.TID 0000.0001) > mult_hmean = 1.,
(PID.TID 0000.0001) > mult_h     = 1.,
(PID.TID 0000.0001) > mult_temp  = 1.,
(PID.TID 0000.0001) > mult_salt  = 1.,
(PID.TID 0000.0001) > mult_sst   = 1.,
(PID.TID 0000.0001) > mult_hflux = 0.,
(PID.TID 0000.0001) > mult_sflux = 0.,
(PID.TID 0000.0001) > mult_tauu  = 0.,
(PID.TID 0000.0001) > mult_tauv  = 0.,
(PID.TID 0000.0001) > mult_atemp = 0.,
(PID.TID 0000.0001) > mult_aqh   = 0.,
(PID.TID 0000.0001) > mult_precip= 0.,
(PID.TID 0000.0001) > mult_swflux= 0.,
(PID.TID 0000.0001) > mult_swdown= 0.,
(PID.TID 0000.0001) > mult_uwind = 0.,
(PID.TID 0000.0001) > mult_vwind = 0.,
(PID.TID 0000.0001) >#
(PID.TID 0000.0001) > cost_iprec  = 64,
(PID.TID 0000.0001) > cost_yftype = 'RL',
(PID.TID 0000.0001) > /
(PID.TID 0000.0001) 
(PID.TID 0000.0001) ECCO_READPARMS: finished reading #1: ecco_cost_nml
(PID.TID 0000.0001) ECCO_READPARMS: start assigning cost dates
(PID.TID 0000.0001) ECCO_READPARMS: end assigning cost dates
(PID.TID 0000.0001) ECCO_READPARMS: done
(PID.TID 0000.0001) SET_PARMS: done
(PID.TID 0000.0001) Enter INI_VERTICAL_GRID: setInterFDr=    T ; setCenterDr=    F
(PID.TID 0000.0001) %MON XC_max                       =   3.1900000000000E+02
(PID.TID 0000.0001) %MON XC_min                       =   2.8100000000000E+02
(PID.TID 0000.0001) %MON XC_mean                      =   3.0000000000000E+02
(PID.TID 0000.0001) %MON XC_sd                        =   1.1532562594671E+01
(PID.TID 0000.0001) %MON XG_max                       =   3.1800000000000E+02
(PID.TID 0000.0001) %MON XG_min                       =   2.8000000000000E+02
(PID.TID 0000.0001) %MON XG_mean                      =   2.9900000000000E+02
(PID.TID 0000.0001) %MON XG_sd                        =   1.1532562594671E+01
(PID.TID 0000.0001) %MON DXC_max                      =   1.5166951523772E+05
(PID.TID 0000.0001) %MON DXC_min                      =   5.0026831972764E+04
(PID.TID 0000.0001) %MON DXC_mean                     =   1.0305926321463E+05
(PID.TID 0000.0001) %MON DXC_sd                       =   3.1375805318756E+04
(PID.TID 0000.0001) %MON DXF_max                      =   1.5166951523772E+05
(PID.TID 0000.0001) %MON DXF_min                      =   5.0026831972764E+04
(PID.TID 0000.0001) %MON DXF_mean                     =   1.0305926321463E+05
(PID.TID 0000.0001) %MON DXF_sd                       =   3.1375805318756E+04
(PID.TID 0000.0001) %MON DXG_max                      =   1.5448497309243E+05
(PID.TID 0000.0001) %MON DXG_min                      =   5.3800974869835E+04
(PID.TID 0000.0001) %MON DXG_mean                     =   1.0642630187324E+05
(PID.TID 0000.0001) %MON DXG_sd                       =   3.1081829200899E+04
(PID.TID 0000.0001) %MON DXV_max                      =   1.5448497309243E+05
(PID.TID 0000.0001) %MON DXV_min                      =   5.3800974869835E+04
(PID.TID 0000.0001) %MON DXV_mean                     =   1.0642630187324E+05
(PID.TID 0000.0001) %MON DXV_sd                       =   3.1081829200899E+04
(PID.TID 0000.0001) %MON YC_max                       =   7.7000000000000E+01
(PID.TID 0000.0001) %MON YC_min                       =   4.7000000000000E+01
(PID.TID 0000.0001) %MON YC_mean                      =   6.2000000000000E+01
(PID.TID 0000.0001) %MON YC_sd                        =   9.2195444572929E+00
(PID.TID 0000.0001) %MON YG_max                       =   7.6000000000000E+01
(PID.TID 0000.0001) %MON YG_min                       =   4.6000000000000E+01
(PID.TID 0000.0001) %MON YG_mean                      =   6.1000000000000E+01
(PID.TID 0000.0001) %MON YG_sd                        =   9.2195444572929E+00
(PID.TID 0000.0001) %MON DYC_max                      =   2.2238985328912E+05
(PID.TID 0000.0001) %MON DYC_min                      =   2.2238985328912E+05
(PID.TID 0000.0001) %MON DYC_mean                     =   2.2238985328912E+05
(PID.TID 0000.0001) %MON DYC_sd                       =   1.4551915228367E-10
(PID.TID 0000.0001) %MON DYF_max                      =   2.2238985328912E+05
(PID.TID 0000.0001) %MON DYF_min                      =   2.2238985328912E+05
(PID.TID 0000.0001) %MON DYF_mean                     =   2.2238985328912E+05
(PID.TID 0000.0001) %MON DYF_sd                       =   1.4551915228367E-10
(PID.TID 0000.0001) %MON DYG_max                      =   2.2238985328912E+05
(PID.TID 0000.0001) %MON DYG_min                      =   2.2238985328912E+05
(PID.TID 0000.0001) %MON DYG_mean                     =   2.2238985328912E+05
(PID.TID 0000.0001) %MON DYG_sd                       =   1.4551915228367E-10
(PID.TID 0000.0001) %MON DYU_max                      =   2.2238985328912E+05
(PID.TID 0000.0001) %MON DYU_min                      =   2.2238985328912E+05
(PID.TID 0000.0001) %MON DYU_mean                     =   2.2238985328912E+05
(PID.TID 0000.0001) %MON DYU_sd                       =   1.4551915228367E-10
(PID.TID 0000.0001) %MON RA_max                       =   3.3728048822756E+10
(PID.TID 0000.0001) %MON RA_min                       =   1.1124894996734E+10
(PID.TID 0000.0001) %MON RA_mean                      =   2.2918170839356E+10
(PID.TID 0000.0001) %MON RA_sd                        =   6.9773064942263E+09
(PID.TID 0000.0001) %MON RAW_max                      =   3.3728048822756E+10
(PID.TID 0000.0001) %MON RAW_min                      =   1.1124894996734E+10
(PID.TID 0000.0001) %MON RAW_mean                     =   2.2918170839356E+10
(PID.TID 0000.0001) %MON RAW_sd                       =   6.9773064942263E+09
(PID.TID 0000.0001) %MON RAS_max                      =   3.4354146294179E+10
(PID.TID 0000.0001) %MON RAS_min                      =   1.1964183470077E+10
(PID.TID 0000.0001) %MON RAS_mean                     =   2.3666928057229E+10
(PID.TID 0000.0001) %MON RAS_sd                       =   6.9119325076329E+09
(PID.TID 0000.0001) %MON RAZ_max                      =   3.4354146294179E+10
(PID.TID 0000.0001) %MON RAZ_min                      =   1.1964183470077E+10
(PID.TID 0000.0001) %MON RAZ_mean                     =   2.3666928057229E+10
(PID.TID 0000.0001) %MON RAZ_sd                       =   6.9119325076329E+09
(PID.TID 0000.0001) %MON AngleCS_max                  =   1.0000000000000E+00
(PID.TID 0000.0001) %MON AngleCS_min                  =   1.0000000000000E+00
(PID.TID 0000.0001) %MON AngleCS_mean                 =   1.0000000000000E+00
(PID.TID 0000.0001) %MON AngleCS_sd                   =   0.0000000000000E+00
(PID.TID 0000.0001) %MON AngleSN_max                  =   0.0000000000000E+00
(PID.TID 0000.0001) %MON AngleSN_min                  =   0.0000000000000E+00
(PID.TID 0000.0001) %MON AngleSN_mean                 =   0.0000000000000E+00
(PID.TID 0000.0001) %MON AngleSN_sd                   =   0.0000000000000E+00
(PID.TID 0000.0001) GAD_INIT_FIXED: GAD_OlMinSize=  2  0  1
(PID.TID 0000.0001) 
(PID.TID 0000.0001) // ===================================
(PID.TID 0000.0001) // GAD parameters :
(PID.TID 0000.0001) // ===================================
(PID.TID 0000.0001) tempAdvScheme =   /* Temp. Horiz.Advection scheme selector */
(PID.TID 0000.0001)                      30
(PID.TID 0000.0001)     ;
(PID.TID 0000.0001) tempVertAdvScheme =   /* Temp. Vert. Advection scheme selector */
(PID.TID 0000.0001)                      30
(PID.TID 0000.0001)     ;
(PID.TID 0000.0001) tempMultiDimAdvec =   /* use Muti-Dim Advec method for Temp */
(PID.TID 0000.0001)                   T
(PID.TID 0000.0001)     ;
(PID.TID 0000.0001) tempSOM_Advection = /* use 2nd Order Moment Advection for Temp */
(PID.TID 0000.0001)                   F
(PID.TID 0000.0001)     ;
(PID.TID 0000.0001) AdamsBashforthGt = /* apply Adams-Bashforth extrapolation on Gt */
(PID.TID 0000.0001)                   F
(PID.TID 0000.0001)     ;
(PID.TID 0000.0001) AdamsBashforth_T = /* apply Adams-Bashforth extrapolation on Temp */
(PID.TID 0000.0001)                   F
(PID.TID 0000.0001)     ;
(PID.TID 0000.0001) saltAdvScheme =   /* Salt. Horiz.advection scheme selector */
(PID.TID 0000.0001)                      30
(PID.TID 0000.0001)     ;
(PID.TID 0000.0001) saltVertAdvScheme =   /* Salt. Vert. Advection scheme selector */
(PID.TID 0000.0001)                      30
(PID.TID 0000.0001)     ;
(PID.TID 0000.0001) saltMultiDimAdvec =   /* use Muti-Dim Advec method for Salt */
(PID.TID 0000.0001)                   T
(PID.TID 0000.0001)     ;
(PID.TID 0000.0001) saltSOM_Advection = /* use 2nd Order Moment Advection for Salt */
(PID.TID 0000.0001)                   F
(PID.TID 0000.0001)     ;
(PID.TID 0000.0001) AdamsBashforthGs = /* apply Adams-Bashforth extrapolation on Gs */
(PID.TID 0000.0001)                   F
(PID.TID 0000.0001)     ;
(PID.TID 0000.0001) AdamsBashforth_S = /* apply Adams-Bashforth extrapolation on Salt */
(PID.TID 0000.0001)                   F
(PID.TID 0000.0001)     ;
(PID.TID 0000.0001) // ===================================
(PID.TID 0000.0001) 
(PID.TID 0000.0001) // =======================================================
(PID.TID 0000.0001) // External forcing (EXF) configuration >>> START <<<
(PID.TID 0000.0001) // =======================================================
(PID.TID 0000.0001) 
(PID.TID 0000.0001)  EXF general parameters:
(PID.TID 0000.0001) 
(PID.TID 0000.0001) exf_iprec = /* exf file precision */
(PID.TID 0000.0001)                      32
(PID.TID 0000.0001)     ;
(PID.TID 0000.0001) useExfYearlyFields = /* add extension _YEAR to input file names */
(PID.TID 0000.0001)                   F
(PID.TID 0000.0001)     ;
(PID.TID 0000.0001) twoDigitYear = /* use 2-digit year extension */
(PID.TID 0000.0001)                   F
(PID.TID 0000.0001)     ;
(PID.TID 0000.0001) exf_verbose = /* print more messages to STDOUT */
(PID.TID 0000.0001)                   F
(PID.TID 0000.0001)     ;
(PID.TID 0000.0001) useExfCheckRange = /* check for fields range */
(PID.TID 0000.0001)                   T
(PID.TID 0000.0001)     ;
(PID.TID 0000.0001) exf_monFreq = /* EXF monitor frequency [ s ] */
(PID.TID 0000.0001)                 1.000000000000000E+00
(PID.TID 0000.0001)     ;
(PID.TID 0000.0001) repeatPeriod = /* period for cycling forcing dataset [ s ] */
(PID.TID 0000.0001)                 3.162240000000000E+07
(PID.TID 0000.0001)     ;
(PID.TID 0000.0001) climTempFreeze= /* Minimum climatological temperature [deg.C] */
(PID.TID 0000.0001)                -1.900000000000000E+00
(PID.TID 0000.0001)     ;
(PID.TID 0000.0001) windStressMax = /* Maximum absolute windstress [ Pa ] */
(PID.TID 0000.0001)                 2.000000000000000E+00
(PID.TID 0000.0001)     ;
(PID.TID 0000.0001) stressIsOnCgrid = /* set u,v_stress on Arakawa C-grid */
(PID.TID 0000.0001)                   F
(PID.TID 0000.0001)     ;
(PID.TID 0000.0001) cen2kel = /* conversion of deg. Centigrade to Kelvin [K] */
(PID.TID 0000.0001)                 2.731500000000000E+02
(PID.TID 0000.0001)     ;
(PID.TID 0000.0001) gravity_mks= /* gravitational acceleration [m/s^2] */
(PID.TID 0000.0001)                 9.810000000000000E+00
(PID.TID 0000.0001)     ;
(PID.TID 0000.0001) atmrho =  /* mean atmospheric density [kg/m^3] */
(PID.TID 0000.0001)                 1.200000000000000E+00
(PID.TID 0000.0001)     ;
(PID.TID 0000.0001) atmcp =  /* mean atmospheric specific heat [J/kg/K] */
(PID.TID 0000.0001)                 1.005000000000000E+03
(PID.TID 0000.0001)     ;
(PID.TID 0000.0001) flamb =  /* latent heat of evaporation [J/kg] */
(PID.TID 0000.0001)                 2.500000000000000E+06
(PID.TID 0000.0001)     ;
(PID.TID 0000.0001) flami =  /* latent heat of pure-ice melting [J/kg] */
(PID.TID 0000.0001)                 3.340000000000000E+05
(PID.TID 0000.0001)     ;
(PID.TID 0000.0001) cvapor_fac = /* const. for Saturation calculation [?] */
(PID.TID 0000.0001)                 6.403800000000000E+05
(PID.TID 0000.0001)     ;
(PID.TID 0000.0001) cvapor_exp = /* const. for Saturation calculation [?] */
(PID.TID 0000.0001)                 5.107400000000000E+03
(PID.TID 0000.0001)     ;
(PID.TID 0000.0001) cvapor_fac_ice= /* const. for Saturation calculation [?] */
(PID.TID 0000.0001)                 1.163780000000000E+07
(PID.TID 0000.0001)     ;
(PID.TID 0000.0001) cvapor_exp_ice= /* const. for Saturation calculation [?] */
(PID.TID 0000.0001)                 5.897800000000000E+03
(PID.TID 0000.0001)     ;
(PID.TID 0000.0001) humid_fac = /* humidity coef. in virtual temp. [(kg/kg)^-1] */
(PID.TID 0000.0001)                 6.060000000000000E-01
(PID.TID 0000.0001)     ;
(PID.TID 0000.0001) gamma_blk = /* adiabatic lapse rate [?] */
(PID.TID 0000.0001)                 1.000000000000000E-02
(PID.TID 0000.0001)     ;
(PID.TID 0000.0001) saltsat = /* reduction of Qsat over salty water [-] */
(PID.TID 0000.0001)                 9.800000000000000E-01
(PID.TID 0000.0001)     ;
(PID.TID 0000.0001) noNegativeEvap = /* prevent negative Evaporation */
(PID.TID 0000.0001)                   F
(PID.TID 0000.0001)     ;
(PID.TID 0000.0001) sstExtrapol = /* extrapolation coeff from lev. 1 & 2 to surf [-] */
(PID.TID 0000.0001)                 0.000000000000000E+00
(PID.TID 0000.0001)     ;
(PID.TID 0000.0001) cDrag_1 = /* coef used in drag calculation [?] */
(PID.TID 0000.0001)                 2.700000000000000E-03
(PID.TID 0000.0001)     ;
(PID.TID 0000.0001) cDrag_2 = /* coef used in drag calculation [?] */
(PID.TID 0000.0001)                 1.420000000000000E-04
(PID.TID 0000.0001)     ;
(PID.TID 0000.0001) cDrag_3 = /* coef used in drag calculation [?] */
(PID.TID 0000.0001)                 7.640000000000000E-05
(PID.TID 0000.0001)     ;
(PID.TID 0000.0001) cStanton_1 = /* coef used in Stanton number calculation [?] */
(PID.TID 0000.0001)                 3.270000000000000E-02
(PID.TID 0000.0001)     ;
(PID.TID 0000.0001) cStanton_2 = /* coef used in Stanton number calculation [?] */
(PID.TID 0000.0001)                 1.800000000000000E-02
(PID.TID 0000.0001)     ;
(PID.TID 0000.0001) cDalton = /* coef used in Dalton number calculation [?] */
(PID.TID 0000.0001)                 3.460000000000000E-02
(PID.TID 0000.0001)     ;
(PID.TID 0000.0001) exf_scal_BulkCdn= /* Drag coefficient scaling factor [-] */
(PID.TID 0000.0001)                 1.000000000000000E+00
(PID.TID 0000.0001)     ;
(PID.TID 0000.0001) zolmin = /* minimum stability parameter [?] */
(PID.TID 0000.0001)                -1.000000000000000E+02
(PID.TID 0000.0001)     ;
(PID.TID 0000.0001) psim_fac = /* coef used in turbulent fluxes calculation [-] */
(PID.TID 0000.0001)                 5.000000000000000E+00
(PID.TID 0000.0001)     ;
(PID.TID 0000.0001) zref =  /* reference height [ m ] */
(PID.TID 0000.0001)                 1.000000000000000E+01
(PID.TID 0000.0001)     ;
(PID.TID 0000.0001) hu =  /* height of mean wind [ m ] */
(PID.TID 0000.0001)                 1.000000000000000E+01
(PID.TID 0000.0001)     ;
(PID.TID 0000.0001) ht =  /* height of mean temperature [ m ] */
(PID.TID 0000.0001)                 2.000000000000000E+00
(PID.TID 0000.0001)     ;
(PID.TID 0000.0001) hq =  /* height of mean spec.humidity [ m ] */
(PID.TID 0000.0001)                 2.000000000000000E+00
(PID.TID 0000.0001)     ;
(PID.TID 0000.0001) uMin = /* minimum wind speed [m/s] */
(PID.TID 0000.0001)                 5.000000000000000E-01
(PID.TID 0000.0001)     ;
(PID.TID 0000.0001) useStabilityFct_overIce= /* transfert Coeffs over sea-ice depend on stability */
(PID.TID 0000.0001)                   F
(PID.TID 0000.0001)     ;
(PID.TID 0000.0001) exf_iceCd = /* drag coefficient over sea-ice (fixed) [-] */
(PID.TID 0000.0001)                 1.630000000000000E-03
(PID.TID 0000.0001)     ;
(PID.TID 0000.0001) exf_iceCe = /* transfert coeff. over sea-ice, for Evap (fixed) [-] */
(PID.TID 0000.0001)                 1.630000000000000E-03
(PID.TID 0000.0001)     ;
(PID.TID 0000.0001) exf_iceCh = /* transfert coeff. over sea-ice, Sens.Heat.(fixed)[-] */
(PID.TID 0000.0001)                 1.630000000000000E-03
(PID.TID 0000.0001)     ;
(PID.TID 0000.0001) exf_albedo =  /* Sea-water albedo [-] */
(PID.TID 0000.0001)                 1.000000000000000E-01
(PID.TID 0000.0001)     ;
(PID.TID 0000.0001) useExfZenAlbedo = /* Sea-water albedo varies with zenith angle */
(PID.TID 0000.0001)                   F
(PID.TID 0000.0001)     ;
(PID.TID 0000.0001) select_ZenAlbedo = /* Sea-water albedo computation method */
(PID.TID 0000.0001)                       0
(PID.TID 0000.0001)     ;
(PID.TID 0000.0001) useExfZenIncoming = /* compute incoming solar radiation */
(PID.TID 0000.0001)                   F
(PID.TID 0000.0001)     ;
(PID.TID 0000.0001) ocean_emissivity = /* longwave ocean-surface emissivity [-] */
(PID.TID 0000.0001)                 9.700176366843034E-01
(PID.TID 0000.0001)     ;
(PID.TID 0000.0001) ice_emissivity = /* longwave seaice emissivity [-] */
(PID.TID 0000.0001)                 9.500000000000000E-01
(PID.TID 0000.0001)     ;
(PID.TID 0000.0001) snow_emissivity = /* longwave snow  emissivity [-] */
(PID.TID 0000.0001)                 9.500000000000000E-01
(PID.TID 0000.0001)     ;
(PID.TID 0000.0001) 
(PID.TID 0000.0001)  EXF main CPP flags:
(PID.TID 0000.0001) 
(PID.TID 0000.0001) // USE_EXF_INTERPOLATION:          NOT defined
(PID.TID 0000.0001) // ALLOW_ATM_TEMP:                     defined
(PID.TID 0000.0001) // ALLOW_ATM_WIND:                     defined
(PID.TID 0000.0001) // ALLOW_DOWNWARD_RADIATION:           defined
(PID.TID 0000.0001) // ALLOW_BULKFORMULAE:                 defined
(PID.TID 0000.0001) 
(PID.TID 0000.0001)    Net shortwave flux forcing starts at                0.
(PID.TID 0000.0001)    Net shortwave flux forcing period is          2635200.
(PID.TID 0000.0001)    Net shortwave flux forcing is read from file:
(PID.TID 0000.0001)    >>    <<
(PID.TID 0000.0001) 
(PID.TID 0000.0001)    Zonal wind forcing starts at                   -1317600.
(PID.TID 0000.0001)    Zonal wind forcing period is                    2635200.
(PID.TID 0000.0001)    Zonal wind forcing is read from file:
(PID.TID 0000.0001)    >>  u10m.labsea1979  <<
(PID.TID 0000.0001) 
(PID.TID 0000.0001)    Meridional wind forcing starts at              -1317600.
(PID.TID 0000.0001)    Meridional wind forcing period is               2635200.
(PID.TID 0000.0001)    Meridional wind forcing is read from file:
(PID.TID 0000.0001)    >>  v10m.labsea1979  <<
(PID.TID 0000.0001) 
(PID.TID 0000.0001)    Atmospheric temperature starts at              -1317600.
(PID.TID 0000.0001)    Atmospheric temperature period is               2635200.
(PID.TID 0000.0001)    Atmospheric temperature is read from file:
(PID.TID 0000.0001)    >>  tair.labsea1979  <<
(PID.TID 0000.0001) 
(PID.TID 0000.0001)    Atmospheric specific humidity starts at        -1317600.
(PID.TID 0000.0001)    Atmospheric specific humidity period is         2635200.
(PID.TID 0000.0001)    Atmospheric specific humidity is read from file:
(PID.TID 0000.0001)    >>  qa.labsea1979  <<
(PID.TID 0000.0001) 
(PID.TID 0000.0001)    Net longwave flux forcing starts at                 0.
(PID.TID 0000.0001)    Net longwave flux forcing period is           2635200.
(PID.TID 0000.0001)    Net longwave flux forcing is read from file:
(PID.TID 0000.0001)    >>    <<
(PID.TID 0000.0001) 
(PID.TID 0000.0001)    Precipitation data set starts at               -1317600.
(PID.TID 0000.0001)    Precipitation data period is                    2635200.
(PID.TID 0000.0001)    Precipitation data is read from file:
(PID.TID 0000.0001)    >>  prate.labsea1979  <<
(PID.TID 0000.0001) 
(PID.TID 0000.0001) // EXF_READ_EVAP:                  NOT defined
(PID.TID 0000.0001) 
(PID.TID 0000.0001) // ALLOW_RUNOFF:                       defined
(PID.TID 0000.0001)    Runoff starts at               0.
(PID.TID 0000.0001)    Runoff period is               0.
(PID.TID 0000.0001)    Runoff is read from file:
(PID.TID 0000.0001)    >>    <<
(PID.TID 0000.0001) 
(PID.TID 0000.0001)    Downward shortwave flux forcing starts at         -1317600.
(PID.TID 0000.0001)    Downward shortwave flux forcing period is          2635200.
(PID.TID 0000.0001)    Downward shortwave flux forcing is read from file:
(PID.TID 0000.0001)    >>  fsh.labsea1979  <<
(PID.TID 0000.0001) 
(PID.TID 0000.0001)    Downward longwave flux forcing starts at          -1317600.
(PID.TID 0000.0001)    Downward longwave flux forcing period is           2635200.
(PID.TID 0000.0001)    Downward longwave flux forcing is read from file:
(PID.TID 0000.0001)    >>  flo.labsea1979  <<
(PID.TID 0000.0001) 
(PID.TID 0000.0001)    Atmospheric pressure forcing starts at                0.
(PID.TID 0000.0001)    Atmospheric pressure forcing period is                0.
(PID.TID 0000.0001)    Atmospheric pressureforcing is read from file:
(PID.TID 0000.0001)    >>    <<
(PID.TID 0000.0001) 
(PID.TID 0000.0001) // =======================================================
(PID.TID 0000.0001) // External forcing (EXF) climatology configuration :
(PID.TID 0000.0001) // =======================================================
(PID.TID 0000.0001) 
(PID.TID 0000.0001) // ALLOW_CLIMSST_RELAXATION:           defined
(PID.TID 0000.0001) // ALLOW_CLIMSSS_RELAXATION:           defined
(PID.TID 0000.0001) 
(PID.TID 0000.0001)    Climatological SST starts at                   0.
(PID.TID 0000.0001)    Climatological SST period is             2635200.
(PID.TID 0000.0001)    Climatological SST is read from file:
(PID.TID 0000.0001)    >>    <<
(PID.TID 0000.0001) 
(PID.TID 0000.0001)    Climatological SSS starts at            -1317600.
(PID.TID 0000.0001)    Climatological SSS period is             2635200.
(PID.TID 0000.0001)    Climatological SSS is read from file:
(PID.TID 0000.0001)    >>  SSS_monthly.labsea1979  <<
(PID.TID 0000.0001) 
(PID.TID 0000.0001) // =======================================================
(PID.TID 0000.0001) // External forcing (EXF) configuration  >>> END <<<
(PID.TID 0000.0001) // =======================================================
(PID.TID 0000.0001) 
(PID.TID 0000.0001) DWNSLP_INIT: DWNSLP_NbSite=   1   1      19
(PID.TID 0000.0001) DWNSLP_INIT: DWNSLP_NbSite=   2   1      90
(PID.TID 0000.0001) DWNSLP_INIT: DWNSLP_NbSite=   1   2      57
(PID.TID 0000.0001) DWNSLP_INIT: DWNSLP_NbSite=   2   2      36
(PID.TID 0000.0001)  OPEN_COPY_DATA_FILE: opening file data.err
(PID.TID 0000.0001) // =======================================================
(PID.TID 0000.0001) // Parameter file "data.err"
(PID.TID 0000.0001) // =======================================================
(PID.TID 0000.0001) > 0.25
(PID.TID 0000.0001) >    0.5201    0.2676
(PID.TID 0000.0001) >    0.5199    0.2224
(PID.TID 0000.0001) >    0.5201    0.1942
(PID.TID 0000.0001) >    0.5142    0.1751
(PID.TID 0000.0001) >    0.4917    0.1452
(PID.TID 0000.0001) >    0.4707    0.1223
(PID.TID 0000.0001) >    0.4324    0.1125
(PID.TID 0000.0001) >    0.3782    0.1078
(PID.TID 0000.0001) >    0.3103    0.0884
(PID.TID 0000.0001) >    0.2435    0.0785
(PID.TID 0000.0001) >    0.1994    0.0777
(PID.TID 0000.0001) >    0.1582    0.0702
(PID.TID 0000.0001) >    0.1144    0.0710
(PID.TID 0000.0001) >    0.0905    0.0599
(PID.TID 0000.0001) >    0.0659    0.0510
(PID.TID 0000.0001) >    0.0602    0.0408
(PID.TID 0000.0001) >    0.0508    0.0399
(PID.TID 0000.0001) >    0.0498    0.0314
(PID.TID 0000.0001) >    0.0501    0.0205
(PID.TID 0000.0001) >    0.0500    0.0199
(PID.TID 0000.0001) >    0.0500    0.0200
(PID.TID 0000.0001) >    0.0500    0.0200
(PID.TID 0000.0001) >    0.0500    0.0200
(PID.TID 0000.0001) 
(PID.TID 0000.0001) 
(PID.TID 0000.0001) // =======================================================
(PID.TID 0000.0001) // ECCO cost function configuration  >>> START <<<
(PID.TID 0000.0001) // =======================================================
(PID.TID 0000.0001) 
(PID.TID 0000.0001)   Multipliers for the indivdual cost function contributions:
(PID.TID 0000.0001) 
(PID.TID 0000.0001)   Net heat flux:                 0.000E+00
(PID.TID 0000.0001)   Salt flux:                     0.000E+00
(PID.TID 0000.0001)   Zonal wind stress:             0.000E+00
(PID.TID 0000.0001)   Meridional wind stress:        0.000E+00
(PID.TID 0000.0001)   Mean sea surface height:       0.100E+01
(PID.TID 0000.0001)   Sea surface height anomalies:  0.100E+01
(PID.TID 0000.0001)   Temperature Lev.:              0.100E+01
(PID.TID 0000.0001)   Salinity Lev.:                 0.100E+01
(PID.TID 0000.0001)   Temperature ini.:              0.000E+00
(PID.TID 0000.0001)   Salinity ini.:                 0.000E+00
(PID.TID 0000.0001)   Sea level ini.:                0.000E+00
(PID.TID 0000.0001)   zonal velocity ini.:           0.000E+00
(PID.TID 0000.0001)   merid velocity ini.:           0.000E+00
(PID.TID 0000.0001)   TMI Sea surface temperature:   0.000E+00
(PID.TID 0000.0001)   Sea surface temperature:       0.100E+01
(PID.TID 0000.0001)   Sea surface salinity:         0.000E+00
(PID.TID 0000.0001)   CTD temperature:               0.000E+00
(PID.TID 0000.0001)   CTD salinity:                  0.000E+00
(PID.TID 0000.0001)   CTD clim temperature:          0.000E+00
(PID.TID 0000.0001)   CTD clim salinity:             0.000E+00
(PID.TID 0000.0001)   XBT Temperature:               0.000E+00
(PID.TID 0000.0001)   ARGO Temperature:               0.000E+00
(PID.TID 0000.0001)   ARGO Salt:                      0.000E+00
(PID.TID 0000.0001)   drifter velocities:            0.000E+00
(PID.TID 0000.0001)   drift between last and 1st year: 0.000E+00
(PID.TID 0000.0001)   drift between last and 1st year: 0.000E+00
(PID.TID 0000.0001)   Ageostrophic bdy flow:         0.000E+00
(PID.TID 0000.0001)   OB North:                      0.000E+00
(PID.TID 0000.0001)   OB South:                      0.000E+00
(PID.TID 0000.0001)   OB West:                       0.000E+00
(PID.TID 0000.0001)   OB East:                       0.000E+00
(PID.TID 0000.0001) 
(PID.TID 0000.0001) 
(PID.TID 0000.0001)   Temperature data are read from: labsea_Lev.ptmp
(PID.TID 0000.0001)   Salinity data are read from:    labsea_Lev.salt
(PID.TID 0000.0001) ctrl-wet 1:    nvarlength =         6720
(PID.TID 0000.0001) ctrl-wet 2: surface wet C =           14
(PID.TID 0000.0001) ctrl-wet 3: surface wet W =            8
(PID.TID 0000.0001) ctrl-wet 4: surface wet S =            6
(PID.TID 0000.0001) ctrl-wet 4a:surface wet V =            0
(PID.TID 0000.0001) ctrl-wet 5: 3D wet points =          106
(PID.TID 0000.0001) ctrl-wet 6: no recs for i =     1           1
(PID.TID 0000.0001) ctrl-wet 6: no recs for i =     2           1
(PID.TID 0000.0001) ctrl-wet 6: no recs for i =     3           0
(PID.TID 0000.0001) ctrl-wet 6: no recs for i =     4           0
(PID.TID 0000.0001) ctrl-wet 6: no recs for i =     5           0
(PID.TID 0000.0001) ctrl-wet 6: no recs for i =     6           0
(PID.TID 0000.0001) ctrl-wet 6: no recs for i =     7           2
(PID.TID 0000.0001) ctrl-wet 6: no recs for i =     8           2
(PID.TID 0000.0001) ctrl-wet 6: no recs for i =     9           2
(PID.TID 0000.0001) ctrl-wet 6: no recs for i =    10           2
(PID.TID 0000.0001) ctrl-wet 6: no recs for i =    11           0
(PID.TID 0000.0001) ctrl-wet 6: no recs for i =    12           0
(PID.TID 0000.0001) ctrl-wet 6: no recs for i =    13           0
(PID.TID 0000.0001) ctrl-wet 6: no recs for i =    14           0
(PID.TID 0000.0001) ctrl-wet 6: no recs for i =    15           0
(PID.TID 0000.0001) ctrl-wet 6: no recs for i =    16           0
(PID.TID 0000.0001) ctrl-wet 6: no recs for i =    17           0
(PID.TID 0000.0001) ctrl-wet 6: no recs for i =    18           0
(PID.TID 0000.0001) ctrl-wet 6: no recs for i =    19           0
(PID.TID 0000.0001) ctrl-wet 6: no recs for i =    20           0
(PID.TID 0000.0001) ctrl-wet 6: no recs for i =    21           0
(PID.TID 0000.0001) ctrl-wet 6: no recs for i =    22           0
(PID.TID 0000.0001) ctrl-wet 6: no recs for i =    23           0
(PID.TID 0000.0001) ctrl-wet 6: no recs for i =    24           0
(PID.TID 0000.0001) ctrl-wet 6: no recs for i =    25           0
(PID.TID 0000.0001) ctrl-wet 6: no recs for i =    26           0
(PID.TID 0000.0001) ctrl-wet 6: no recs for i =    27           0
(PID.TID 0000.0001) ctrl-wet 6: no recs for i =    28           0
(PID.TID 0000.0001) ctrl-wet 6: no recs for i =    29           0
(PID.TID 0000.0001) ctrl-wet 6: no recs for i =    30           0
(PID.TID 0000.0001) ctrl-wet 6: no recs for i =    31           0
(PID.TID 0000.0001) ctrl-wet 6: no recs for i =    32           2
(PID.TID 0000.0001) ctrl-wet 6: no recs for i =    33           0
(PID.TID 0000.0001) ctrl-wet 6: no recs for i =    34           2
(PID.TID 0000.0001) ctrl-wet 6: no recs for i =    35           0
(PID.TID 0000.0001) ctrl-wet 6: no recs for i =    36           2
(PID.TID 0000.0001) ctrl-wet 6: no recs for i =    37           0
(PID.TID 0000.0001) ctrl-wet 6: no recs for i =    38           2
(PID.TID 0000.0001) ctrl-wet 6: no recs for i =    39           2
(PID.TID 0000.0001) ctrl-wet 6: no recs for i =    40           0
(PID.TID 0000.0001) ctrl-wet 6: no recs for i =    41           1
(PID.TID 0000.0001) ctrl-wet 6: no recs for i =    42           1
(PID.TID 0000.0001) ctrl-wet 6: no recs for i =    43           0
(PID.TID 0000.0001) ctrl-wet 6: no recs for i =    44           0
(PID.TID 0000.0001) ctrl-wet 6: no recs for i =    45           0
(PID.TID 0000.0001) ctrl-wet 6: no recs for i =    46           0
(PID.TID 0000.0001) ctrl-wet 6: no recs for i =    47           0
(PID.TID 0000.0001) ctrl-wet 6: no recs for i =    48           0
(PID.TID 0000.0001) ctrl-wet 6: no recs for i =    49           0
(PID.TID 0000.0001) ctrl-wet 6: no recs for i =    50           0
(PID.TID 0000.0001) ctrl-wet 6: no recs for i =    51           0
(PID.TID 0000.0001) ctrl-wet 6: no recs for i =    52           0
(PID.TID 0000.0001) ctrl-wet 6: no recs for i =    53           0
(PID.TID 0000.0001) ctrl-wet 6: no recs for i =    54           0
(PID.TID 0000.0001) ctrl-wet 6: no recs for i =    55           0
(PID.TID 0000.0001) ctrl-wet 6: no recs for i =    56           0
(PID.TID 0000.0001) ctrl-wet 6: no recs for i =    57           0
(PID.TID 0000.0001) ctrl-wet 6: no recs for i =    58           0
(PID.TID 0000.0001) ctrl-wet 6: no recs for i =    59           0
(PID.TID 0000.0001) ctrl-wet 6: no recs for i =    60           0
(PID.TID 0000.0001) ctrl-wet 7: flux           212
(PID.TID 0000.0001) ctrl-wet 8: atmos          296
(PID.TID 0000.0001) ctrl-wet -------------------------------------------------
(PID.TID 0000.0001) ctrl-wet 13: global nvarlength for Nr =   23        6720
(PID.TID 0000.0001) ctrl-wet -------------------------------------------------
(PID.TID 0000.0001) ctrl-wet 14: global nWet C/S/W/V k=    1         150         120         129           0
(PID.TID 0000.0001) ctrl-wet 14: global nWet C/S/W/V k=    2         150         120         129           0
(PID.TID 0000.0001) ctrl-wet 14: global nWet C/S/W/V k=    3         150         120         129           0
(PID.TID 0000.0001) ctrl-wet 14: global nWet C/S/W/V k=    4         150         120         129           0
(PID.TID 0000.0001) ctrl-wet 14: global nWet C/S/W/V k=    5         145         116         125           0
(PID.TID 0000.0001) ctrl-wet 14: global nWet C/S/W/V k=    6         140         112         119           0
(PID.TID 0000.0001) ctrl-wet 14: global nWet C/S/W/V k=    7         133         104         111           0
(PID.TID 0000.0001) ctrl-wet 14: global nWet C/S/W/V k=    8         126          98         106           0
(PID.TID 0000.0001) ctrl-wet 14: global nWet C/S/W/V k=    9         115          89          95           0
(PID.TID 0000.0001) ctrl-wet 14: global nWet C/S/W/V k=   10          99          77          82           0
(PID.TID 0000.0001) ctrl-wet 14: global nWet C/S/W/V k=   11          90          68          73           0
(PID.TID 0000.0001) ctrl-wet 14: global nWet C/S/W/V k=   12          82          62          66           0
(PID.TID 0000.0001) ctrl-wet 14: global nWet C/S/W/V k=   13          71          54          57           0
(PID.TID 0000.0001) ctrl-wet 14: global nWet C/S/W/V k=   14          68          52          54           0
(PID.TID 0000.0001) ctrl-wet 14: global nWet C/S/W/V k=   15          58          44          45           0
(PID.TID 0000.0001) ctrl-wet 14: global nWet C/S/W/V k=   16          50          40          40           0
(PID.TID 0000.0001) ctrl-wet 14: global nWet C/S/W/V k=   17          40          31          31           0
(PID.TID 0000.0001) ctrl-wet 14: global nWet C/S/W/V k=   18          30          22          23           0
(PID.TID 0000.0001) ctrl-wet 14: global nWet C/S/W/V k=   19          10           6           6           0
(PID.TID 0000.0001) ctrl-wet 14: global nWet C/S/W/V k=   20           3           2           0           0
(PID.TID 0000.0001) ctrl-wet 14: global nWet C/S/W/V k=   21           0           0           0           0
(PID.TID 0000.0001) ctrl-wet 14: global nWet C/S/W/V k=   22           0           0           0           0
(PID.TID 0000.0001) ctrl-wet 14: global nWet C/S/W/V k=   23           0           0           0           0
(PID.TID 0000.0001) ctrl-wet -------------------------------------------------
(PID.TID 0000.0001) ctrl-wet -------------------------------------------------
(PID.TID 0000.0001) ctrl-wet -------------------------------------------------
(PID.TID 0000.0001) ctrl_init: no. of control variables:           13
(PID.TID 0000.0001) ctrl_init: control vector length:            6720
(PID.TID 0000.0001) 
(PID.TID 0000.0001) // =======================================================
(PID.TID 0000.0001) // Seaice configuration (SEAICE_PARM01) >>> START <<<
(PID.TID 0000.0001) // =======================================================
(PID.TID 0000.0001) 
(PID.TID 0000.0001) 
(PID.TID 0000.0001)    Seaice time stepping configuration   > START <
(PID.TID 0000.0001)    ----------------------------------------------
(PID.TID 0000.0001) SEAICE_deltaTtherm= /* thermodynamic timestep */
(PID.TID 0000.0001)                 3.600000000000000E+03
(PID.TID 0000.0001)     ;
(PID.TID 0000.0001) SEAICE_deltaTdyn  = /* dynamic timestep */
(PID.TID 0000.0001)                 3.600000000000000E+03
(PID.TID 0000.0001)     ;
(PID.TID 0000.0001) SEAICE_deltaTevp  = /* EVP timestep */
(PID.TID 0000.0001)                 1.234567000000000E+05
(PID.TID 0000.0001)     ;
(PID.TID 0000.0001) SEAICErestoreUnderIce  = /* restore T and S under ice */
(PID.TID 0000.0001)                   F
(PID.TID 0000.0001)     ;
(PID.TID 0000.0001) 
(PID.TID 0000.0001)    Seaice dynamics configuration   > START <
(PID.TID 0000.0001)    ------------------------------------------
(PID.TID 0000.0001) SEAICEuseDYNAMICS = /* use dynamics */
(PID.TID 0000.0001)                   T
(PID.TID 0000.0001)     ;
(PID.TID 0000.0001) model grid type   = /* type of sea ice model grid */
(PID.TID 0000.0001)               'C-GRID'
(PID.TID 0000.0001)     ;
(PID.TID 0000.0001) SEAICEuseEVP      = /* use EVP solver */
(PID.TID 0000.0001)                   F
(PID.TID 0000.0001)     ;
(PID.TID 0000.0001) SEAICEuseFREEDRIFT = /* use free drift solution */
(PID.TID 0000.0001)                   F
(PID.TID 0000.0001)     ;
(PID.TID 0000.0001) OCEAN_drag        = /* air-ocean drag coefficient */
(PID.TID 0000.0001)                 1.000000000000000E-03
(PID.TID 0000.0001)     ;
(PID.TID 0000.0001) SEAICE_drag       = /* air-ice drag coefficient */
(PID.TID 0000.0001)                 2.000000000000000E-03
(PID.TID 0000.0001)     ;
(PID.TID 0000.0001) SEAICE_drag_south      = /* Southern Ocean SEAICE_drag */
(PID.TID 0000.0001)                 2.000000000000000E-03
(PID.TID 0000.0001)     ;
(PID.TID 0000.0001) SEAICE_waterDrag  = /* water-ice drag * density */
(PID.TID 0000.0001)                 5.500000000000000E+00
(PID.TID 0000.0001)     ;
(PID.TID 0000.0001) SEAICE_waterDrag_south = /* Southern Ocean waterDrag */
(PID.TID 0000.0001)                 5.500000000000000E+00
(PID.TID 0000.0001)     ;
(PID.TID 0000.0001) SEAICEuseTEM      = /* use truncated ellipse rheology */
(PID.TID 0000.0001)                   F
(PID.TID 0000.0001)     ;
(PID.TID 0000.0001) SEAICE_strength   = /* sea-ice strength Pstar */
(PID.TID 0000.0001)                 2.750000000000000E+04
(PID.TID 0000.0001)     ;
(PID.TID 0000.0001) SEAICE_zetaMin    = /* lower bound for viscosity */
(PID.TID 0000.0001)                 0.000000000000000E+00
(PID.TID 0000.0001)     ;
(PID.TID 0000.0001) SEAICEuseMetricTerms = /* use metric terms */
(PID.TID 0000.0001)                   T
(PID.TID 0000.0001)     ;
(PID.TID 0000.0001) SEAICE_no_slip    = /* no slip boundary conditions */
(PID.TID 0000.0001)                   F
(PID.TID 0000.0001)     ;
(PID.TID 0000.0001) SEAICE_clipVeloctities = /* impose max. vels. */
(PID.TID 0000.0001)                   F
(PID.TID 0000.0001)     ;
(PID.TID 0000.0001) useHB87stressCoupling  = /* altern. ice-ocean stress */
(PID.TID 0000.0001)                   F
(PID.TID 0000.0001)     ;
(PID.TID 0000.0001) SEAICE_maskRHS    = /* mask RHS of solver */
(PID.TID 0000.0001)                   F
(PID.TID 0000.0001)     ;
(PID.TID 0000.0001) LSR_mixIniGuess = /* mix free-drift sol. into LSR initial Guess */
(PID.TID 0000.0001)                       0
(PID.TID 0000.0001)     ;
(PID.TID 0000.0001) SOLV_MAX_ITERS    = /* max. number of LSR solver steps */
(PID.TID 0000.0001)                    1500
(PID.TID 0000.0001)     ;
(PID.TID 0000.0001) LSR_ERROR         = /* sets accuracy of LSR solver */
(PID.TID 0000.0001)                 1.000000000000000E-06
(PID.TID 0000.0001)     ;
(PID.TID 0000.0001) SOLV_NCHECK       = /* test interval for LSR solver */
(PID.TID 0000.0001)                       2
(PID.TID 0000.0001)     ;
(PID.TID 0000.0001) NPSEUDOTIMESTEPS  = /* num. of extra pseudo time steps */
(PID.TID 0000.0001)                       2
(PID.TID 0000.0001)     ;
(PID.TID 0000.0001) 
(PID.TID 0000.0001)    Seaice thermodynamics configuration   > START <
(PID.TID 0000.0001)    -----------------------------------------------
(PID.TID 0000.0001) usePW79thermodynamics  = /* default 0-layer TD */
(PID.TID 0000.0001)                   T
(PID.TID 0000.0001)     ;
(PID.TID 0000.0001) SEAICE_lhEvap     = /* latent heat of evaporation */
(PID.TID 0000.0001)                 2.500000000000000E+06
(PID.TID 0000.0001)     ;
(PID.TID 0000.0001) SEAICE_lhFusion   = /* latent heat of fusion */
(PID.TID 0000.0001)                 3.340000000000000E+05
(PID.TID 0000.0001)     ;
(PID.TID 0000.0001) SEAICE_mcPheePiston = /* turbulent flux "piston velocity" a la McPhee (m/s) */
(PID.TID 0000.0001)                 8.749999999999999E-04
(PID.TID 0000.0001)     ;
(PID.TID 0000.0001) SEAICE_mcPheeTaper = /* tapering of turbulent flux (0.< <1.) for AREA=1. */
(PID.TID 0000.0001)                 0.000000000000000E+00
(PID.TID 0000.0001)     ;
(PID.TID 0000.0001) SEAICE_frazilFrac = /* frazil (T<tempFrz) to seaice conversion rate (0.< <1.) */
(PID.TID 0000.0001)                 1.000000000000000E+00
(PID.TID 0000.0001)     ;
(PID.TID 0000.0001) SEAICE_tempFrz0   = /* freezing temp. of sea water (intercept) */
(PID.TID 0000.0001)                -1.960000000000000E+00
(PID.TID 0000.0001)     ;
(PID.TID 0000.0001) SEAICE_dTempFrz_dS= /* freezing temp. of sea water (slope) */
(PID.TID 0000.0001)                 0.000000000000000E+00
(PID.TID 0000.0001)     ;
(PID.TID 0000.0001) SEAICE_areaGainFormula = /* ice cover gain formula (1,2)*/
(PID.TID 0000.0001)                       2
(PID.TID 0000.0001)     1=from growth by ATM
(PID.TID 0000.0001)     2=from predicted growth by ATM
(PID.TID 0000.0001)     ;
(PID.TID 0000.0001) SEAICE_areaLossFormula = /* ice cover loss formula (1,2)*/
(PID.TID 0000.0001)                       3
(PID.TID 0000.0001)     1=from all but only melt conributions by ATM and OCN
(PID.TID 0000.0001)     2=from net melt-grow>0 by ATM and OCN
(PID.TID 0000.0001)     3=from predicted melt by ATM
(PID.TID 0000.0001)     ;
(PID.TID 0000.0001) HO                = /* nominal thickness of new ice */
(PID.TID 0000.0001)                 5.000000000000000E-01
(PID.TID 0000.0001)     ;
(PID.TID 0000.0001) HO_south               = /* Southern Ocean HO */
(PID.TID 0000.0001)                 5.000000000000000E-01
(PID.TID 0000.0001)     ;
(PID.TID 0000.0001)    Sea ice has a variable salinity such that
(PID.TID 0000.0001) SIsalFrac   = /* fraction of ocn salinity in new ice */
(PID.TID 0000.0001)                 3.000000000000000E-01
(PID.TID 0000.0001)     ;
(PID.TID 0000.0001) SEAICEuseFlooding = /* turn submerged snow into ice */
(PID.TID 0000.0001)                   T
(PID.TID 0000.0001)     ;
(PID.TID 0000.0001) MAX_HEFF has no effect because SEAICE_CAP_HEFF is undefined
(PID.TID 0000.0001) MAX_HEFF          = /* maximum ice thickness */
(PID.TID 0000.0001)                 1.000000000000000E+01
(PID.TID 0000.0001)     ;
(PID.TID 0000.0001) 
(PID.TID 0000.0001)    Seaice advection diffusion config,   > START <
(PID.TID 0000.0001)    -----------------------------------------------
(PID.TID 0000.0001) SEAICEadvHeff = /* advect effective ice thickness */
(PID.TID 0000.0001)                   T
(PID.TID 0000.0001)     ;
(PID.TID 0000.0001) SEAICEadvArea = /* advect fractional ice area */
(PID.TID 0000.0001)                   T
(PID.TID 0000.0001)     ;
(PID.TID 0000.0001) SEAICEadvSnow = /* advect snow layer together with ice */
(PID.TID 0000.0001)                   T
(PID.TID 0000.0001)     ;
(PID.TID 0000.0001) SEAICEadvSalt = /* advect salinity together with ice */
(PID.TID 0000.0001)                   F
(PID.TID 0000.0001)     ;
(PID.TID 0000.0001) SEAICEadvScheme   = /* advection scheme for ice */
(PID.TID 0000.0001)                       2
(PID.TID 0000.0001)     ;
(PID.TID 0000.0001) SEAICEuseFluxForm = /* advection in FV flux form */
(PID.TID 0000.0001)                   T
(PID.TID 0000.0001)     ;
(PID.TID 0000.0001) SEAICEadvSchArea   = /* advection scheme for area */
(PID.TID 0000.0001)                       2
(PID.TID 0000.0001)     ;
(PID.TID 0000.0001) SEAICEadvSchHeff   = /* advection scheme for thickness */
(PID.TID 0000.0001)                       2
(PID.TID 0000.0001)     ;
(PID.TID 0000.0001) SEAICEadvSchSnow   = /* advection scheme for snow */
(PID.TID 0000.0001)                       2
(PID.TID 0000.0001)     ;
(PID.TID 0000.0001) SEAICEdiffKhArea   = /* diffusivity (m^2/s) for area */
(PID.TID 0000.0001)                 2.000000000000000E+02
(PID.TID 0000.0001)     ;
(PID.TID 0000.0001) SEAICEdiffKhHeff   = /* diffusivity (m^2/s) for heff */
(PID.TID 0000.0001)                 2.000000000000000E+02
(PID.TID 0000.0001)     ;
(PID.TID 0000.0001) SEAICEdiffKhSnow   = /* diffusivity (m^2/s) for snow */
(PID.TID 0000.0001)                 2.000000000000000E+02
(PID.TID 0000.0001)     ;
(PID.TID 0000.0001) DIFF1             = /* parameter used in advect.F [m/s] */
(PID.TID 0000.0001)                 0.000000000000000E+00
(PID.TID 0000.0001)     ;
(PID.TID 0000.0001) 
(PID.TID 0000.0001)    Seaice air-sea fluxes configuration,   > START <
(PID.TID 0000.0001)    -----------------------------------------------
(PID.TID 0000.0001) IMAX_TICE         = /* iterations for ice surface temp */
(PID.TID 0000.0001)                      10
(PID.TID 0000.0001)     ;
(PID.TID 0000.0001) postSolvTempIter= /* flux calculation after surf. temp iter */
(PID.TID 0000.0001)                       0
(PID.TID 0000.0001)     ;
(PID.TID 0000.0001) SEAICE_dryIceAlb  = /* winter albedo */
(PID.TID 0000.0001)                 7.500000000000000E-01
(PID.TID 0000.0001)     ;
(PID.TID 0000.0001) SEAICE_wetIceAlb  = /* summer albedo */
(PID.TID 0000.0001)                 6.600000000000000E-01
(PID.TID 0000.0001)     ;
(PID.TID 0000.0001) SEAICE_drySnowAlb = /* dry snow albedo */
(PID.TID 0000.0001)                 8.400000000000000E-01
(PID.TID 0000.0001)     ;
(PID.TID 0000.0001) SEAICE_wetSnowAlb = /* wet snow albedo */
(PID.TID 0000.0001)                 7.000000000000000E-01
(PID.TID 0000.0001)     ;
(PID.TID 0000.0001) SEAICE_dryIceAlb_south = /* Southern Ocean dryIceAlb */
(PID.TID 0000.0001)                 7.500000000000000E-01
(PID.TID 0000.0001)     ;
(PID.TID 0000.0001) SEAICE_wetIceAlb_south = /* Southern Ocean wetIceAlb */
(PID.TID 0000.0001)                 6.600000000000000E-01
(PID.TID 0000.0001)     ;
(PID.TID 0000.0001) SEAICE_drySnowAlb_south= /* Southern Ocean drySnowAlb */
(PID.TID 0000.0001)                 8.400000000000000E-01
(PID.TID 0000.0001)     ;
(PID.TID 0000.0001) SEAICE_wetSnowAlb_south= /* Southern Ocean wetSnowAlb */
(PID.TID 0000.0001)                 7.000000000000000E-01
(PID.TID 0000.0001)     ;
(PID.TID 0000.0001) SEAICE_wetAlbTemp= /* Temp (o.C) threshold for wet-albedo */
(PID.TID 0000.0001)                -1.000000000000000E-03
(PID.TID 0000.0001)     ;
(PID.TID 0000.0001) SEAICE_snow_emiss = /* snow emissivity */
(PID.TID 0000.0001)                 9.500000000000000E-01
(PID.TID 0000.0001)     ;
(PID.TID 0000.0001) SEAICE_ice_emiss = /* seaice emissivity */
(PID.TID 0000.0001)                 9.500000000000000E-01
(PID.TID 0000.0001)     ;
(PID.TID 0000.0001) SEAICE_cpAir      = /* heat capacity of air */
(PID.TID 0000.0001)                 1.005000000000000E+03
(PID.TID 0000.0001)     ;
(PID.TID 0000.0001) SEAICE_dalton     = /* constant dalton number */
(PID.TID 0000.0001)                 1.750000000000000E-03
(PID.TID 0000.0001)     ;
(PID.TID 0000.0001) SEAICE_iceConduct = /* sea-ice conductivity */
(PID.TID 0000.0001)                 2.165600000000000E+00
(PID.TID 0000.0001)     ;
(PID.TID 0000.0001) SEAICE_snowConduct= /* snow conductivity */
(PID.TID 0000.0001)                 3.100000000000000E-01
(PID.TID 0000.0001)     ;
(PID.TID 0000.0001) SEAICE_snowThick  = /* cutoff snow thickness (for albedo) */
(PID.TID 0000.0001)                 1.500000000000000E-01
(PID.TID 0000.0001)     ;
(PID.TID 0000.0001) SEAICE_shortwave  = /* penetration shortwave radiation */
(PID.TID 0000.0001)                 3.000000000000000E-01
(PID.TID 0000.0001)     ;
(PID.TID 0000.0001) useMaykutSatVapPoly = /* use Maykut Polynomial for Sat.Vap.Pr */
(PID.TID 0000.0001)                   T
(PID.TID 0000.0001)     ;
(PID.TID 0000.0001) MIN_ATEMP         = /* minimum air temperature */
(PID.TID 0000.0001)                -5.000000000000000E+01
(PID.TID 0000.0001)     ;
(PID.TID 0000.0001) MIN_LWDOWN        = /* minimum downward longwave */
(PID.TID 0000.0001)                 6.000000000000000E+01
(PID.TID 0000.0001)     ;
(PID.TID 0000.0001) MIN_TICE          = /* minimum ice temperature */
(PID.TID 0000.0001)                -5.000000000000000E+01
(PID.TID 0000.0001)     ;
(PID.TID 0000.0001) 
(PID.TID 0000.0001)    Seaice initialization and IO config.,   > START <
(PID.TID 0000.0001)    -------------------------------------------------
(PID.TID 0000.0001) SEAICE_initialHEFF= /* initial sea-ice thickness */
(PID.TID 0000.0001)                 1.000000000000000E+00
(PID.TID 0000.0001)     ;
(PID.TID 0000.0001) AreaFile = /* Initial ice concentration File */
(PID.TID 0000.0001)               ''
(PID.TID 0000.0001)     ;
(PID.TID 0000.0001) HeffFile = /* Initial effective ice thickness File */
(PID.TID 0000.0001)               ''
(PID.TID 0000.0001)     ;
(PID.TID 0000.0001) uIceFile = /* Initial U-ice velocity File */
(PID.TID 0000.0001)               ''
(PID.TID 0000.0001)     ;
(PID.TID 0000.0001) vIceFile = /* Initial V-ice velocity File */
(PID.TID 0000.0001)               ''
(PID.TID 0000.0001)     ;
(PID.TID 0000.0001) SEAICEwriteState  = /* write sea ice state to file */
(PID.TID 0000.0001)                   T
(PID.TID 0000.0001)     ;
(PID.TID 0000.0001) SEAICE_monFreq  = /* monitor frequency */
(PID.TID 0000.0001)                 1.000000000000000E+00
(PID.TID 0000.0001)     ;
(PID.TID 0000.0001) SEAICE_dumpFreq   = /* dump frequency */
(PID.TID 0000.0001)                 0.000000000000000E+00
(PID.TID 0000.0001)     ;
(PID.TID 0000.0001) SEAICE_taveFreq   = /* time-averaging frequency */
(PID.TID 0000.0001)                 3.600000000000000E+04
(PID.TID 0000.0001)     ;
(PID.TID 0000.0001) SEAICE_mon_stdio  = /* write monitor to std-outp */
(PID.TID 0000.0001)                   T
(PID.TID 0000.0001)     ;
(PID.TID 0000.0001) SEAICE_dump_mdsio = /* write snap-shot   using MDSIO */
(PID.TID 0000.0001)                   T
(PID.TID 0000.0001)     ;
(PID.TID 0000.0001) SEAICE_tave_mdsio = /* write TimeAverage using MDSIO */
(PID.TID 0000.0001)                   T
(PID.TID 0000.0001)     ;
(PID.TID 0000.0001) SEAICE_mon_mnc    = /* write monitor to netcdf file */
(PID.TID 0000.0001)                   F
(PID.TID 0000.0001)     ;
(PID.TID 0000.0001) SEAICE_dump_mnc   = /* write snap-shot   using MNC */
(PID.TID 0000.0001)                   F
(PID.TID 0000.0001)     ;
(PID.TID 0000.0001) SEAICE_tave_mnc   = /* write TimeAverage using MNC */
(PID.TID 0000.0001)                   F
(PID.TID 0000.0001)     ;
(PID.TID 0000.0001) // =======================================================
(PID.TID 0000.0001) // Seaice configuration (SEAICE_PARM01) >>> END <<<
(PID.TID 0000.0001) // =======================================================
(PID.TID 0000.0001) %MON fCori_max                    =   1.4210453727344E-04
(PID.TID 0000.0001) %MON fCori_min                    =   1.0666243053630E-04
(PID.TID 0000.0001) %MON fCori_mean                   =   1.2711058365303E-04
(PID.TID 0000.0001) %MON fCori_sd                     =   1.1031533875266E-05
(PID.TID 0000.0001) %MON fCoriG_max                   =   1.4151032568025E-04
(PID.TID 0000.0001) %MON fCoriG_min                   =   1.0491029349513E-04
(PID.TID 0000.0001) %MON fCoriG_mean                  =   1.2591168756569E-04
(PID.TID 0000.0001) %MON fCoriG_sd                    =   1.1383815633153E-05
(PID.TID 0000.0001) %MON fCoriCos_max                 =   9.9464325599212E-05
(PID.TID 0000.0001) %MON fCoriCos_min                 =   3.2807417471054E-05
(PID.TID 0000.0001) %MON fCoriCos_mean                =   6.7585896192312E-05
(PID.TID 0000.0001) %MON fCoriCos_sd                  =   2.0576140902612E-05
(PID.TID 0000.0001) INI_CG2D: CG2D normalisation factor =  1.6094939840939192E-04
(PID.TID 0000.0001) 
(PID.TID 0000.0001) // =======================================================
(PID.TID 0000.0001) // Model configuration
(PID.TID 0000.0001) // =======================================================
(PID.TID 0000.0001) //
(PID.TID 0000.0001) // "Physical" paramters ( PARM01 in namelist )
(PID.TID 0000.0001) //
(PID.TID 0000.0001) buoyancyRelation = /* Type of relation to get Buoyancy */
(PID.TID 0000.0001)               'OCEANIC'
(PID.TID 0000.0001)     ;
(PID.TID 0000.0001) fluidIsAir   =  /* fluid major constituent is Air */
(PID.TID 0000.0001)                   F
(PID.TID 0000.0001)     ;
(PID.TID 0000.0001) fluidIsWater =  /* fluid major constituent is Water */
(PID.TID 0000.0001)                   T
(PID.TID 0000.0001)     ;
(PID.TID 0000.0001) usingPCoords =  /* use p (or p*) vertical coordinate */
(PID.TID 0000.0001)                   F
(PID.TID 0000.0001)     ;
(PID.TID 0000.0001) usingZCoords =  /* use z (or z*) vertical coordinate */
(PID.TID 0000.0001)                   T
(PID.TID 0000.0001)     ;
(PID.TID 0000.0001) tRef =   /* Reference temperature profile ( oC or K ) */
(PID.TID 0000.0001)                 2.400000000000000E+01,      /* K =  1 */
(PID.TID 0000.0001)                 2.300000000000000E+01,      /* K =  2 */
(PID.TID 0000.0001)                 2.200000000000000E+01,      /* K =  3 */
(PID.TID 0000.0001)                 2.100000000000000E+01,      /* K =  4 */
(PID.TID 0000.0001)                 2.000000000000000E+01,      /* K =  5 */
(PID.TID 0000.0001)                 1.900000000000000E+01,      /* K =  6 */
(PID.TID 0000.0001)                 1.800000000000000E+01,      /* K =  7 */
(PID.TID 0000.0001)                 1.700000000000000E+01,      /* K =  8 */
(PID.TID 0000.0001)                 1.600000000000000E+01,      /* K =  9 */
(PID.TID 0000.0001)                 1.500000000000000E+01,      /* K = 10 */
(PID.TID 0000.0001)                 1.400000000000000E+01,      /* K = 11 */
(PID.TID 0000.0001)                 1.300000000000000E+01,      /* K = 12 */
(PID.TID 0000.0001)                 1.200000000000000E+01,      /* K = 13 */
(PID.TID 0000.0001)                 1.100000000000000E+01,      /* K = 14 */
(PID.TID 0000.0001)                 1.000000000000000E+01,      /* K = 15 */
(PID.TID 0000.0001)                 9.000000000000000E+00,      /* K = 16 */
(PID.TID 0000.0001)                 8.000000000000000E+00,      /* K = 17 */
(PID.TID 0000.0001)                 7.000000000000000E+00,      /* K = 18 */
(PID.TID 0000.0001)                 6.000000000000000E+00,      /* K = 19 */
(PID.TID 0000.0001)                 5.000000000000000E+00,      /* K = 20 */
(PID.TID 0000.0001)                 4.000000000000000E+00,      /* K = 21 */
(PID.TID 0000.0001)                 3.000000000000000E+00,      /* K = 22 */
(PID.TID 0000.0001)                 2.000000000000000E+00       /* K = 23 */
(PID.TID 0000.0001)     ;
(PID.TID 0000.0001) sRef =   /* Reference salinity profile ( psu ) */
(PID.TID 0000.0001)                 3.465000000000000E+01,      /* K =  1 */
(PID.TID 0000.0001)                 3.475000000000000E+01,      /* K =  2 */
(PID.TID 0000.0001)                 3.482000000000000E+01,      /* K =  3 */
(PID.TID 0000.0001)                 3.487000000000000E+01,      /* K =  4 */
(PID.TID 0000.0001)     2 @  3.490000000000000E+01,             /* K =  5:  6 */
(PID.TID 0000.0001)                 3.486000000000000E+01,      /* K =  7 */
(PID.TID 0000.0001)                 3.478000000000000E+01,      /* K =  8 */
(PID.TID 0000.0001)                 3.469000000000000E+01,      /* K =  9 */
(PID.TID 0000.0001)                 3.460000000000000E+01,      /* K = 10 */
(PID.TID 0000.0001)                 3.458000000000000E+01,      /* K = 11 */
(PID.TID 0000.0001)                 3.462000000000000E+01,      /* K = 12 */
(PID.TID 0000.0001)                 3.468000000000000E+01,      /* K = 13 */
(PID.TID 0000.0001)                 3.472000000000000E+01,      /* K = 14 */
(PID.TID 0000.0001)                 3.473000000000000E+01,      /* K = 15 */
(PID.TID 0000.0001)                 3.474000000000000E+01,      /* K = 16 */
(PID.TID 0000.0001)     2 @  3.473000000000000E+01,             /* K = 17: 18 */
(PID.TID 0000.0001)     2 @  3.472000000000000E+01,             /* K = 19: 20 */
(PID.TID 0000.0001)                 3.471000000000000E+01,      /* K = 21 */
(PID.TID 0000.0001)                 3.470000000000000E+01,      /* K = 22 */
(PID.TID 0000.0001)                 3.469000000000000E+01       /* K = 23 */
(PID.TID 0000.0001)     ;
(PID.TID 0000.0001) viscAh  =   /* Lateral eddy viscosity ( m^2/s ) */
(PID.TID 0000.0001)                 5.000000000000000E+04
(PID.TID 0000.0001)     ;
(PID.TID 0000.0001) viscAhMax = /* Maximum lateral eddy viscosity ( m^2/s ) */
(PID.TID 0000.0001)                 1.000000000000000E+21
(PID.TID 0000.0001)     ;
(PID.TID 0000.0001) viscAhGrid = /* Grid dependent lateral eddy viscosity ( non-dim. ) */
(PID.TID 0000.0001)                 0.000000000000000E+00
(PID.TID 0000.0001)     ;
(PID.TID 0000.0001) useFullLeith = /* Use Full Form of Leith Viscosity on/off flag*/
(PID.TID 0000.0001)                   F
(PID.TID 0000.0001)     ;
(PID.TID 0000.0001) useStrainTensionVisc= /* Use StrainTension Form of Viscous Operator flag*/
(PID.TID 0000.0001)                   F
(PID.TID 0000.0001)     ;
(PID.TID 0000.0001) useAreaViscLength = /* Use area for visc length instead of geom. mean*/
(PID.TID 0000.0001)                   F
(PID.TID 0000.0001)     ;
(PID.TID 0000.0001) viscC2leith = /* Leith harmonic visc. factor (on grad(vort),non-dim.) */
(PID.TID 0000.0001)                 0.000000000000000E+00
(PID.TID 0000.0001)     ;
(PID.TID 0000.0001) viscC2leithD = /* Leith harmonic viscosity factor (on grad(div),non-dim.)*/
(PID.TID 0000.0001)                 0.000000000000000E+00
(PID.TID 0000.0001)     ;
(PID.TID 0000.0001) viscC2smag = /* Smagorinsky harmonic viscosity factor (non-dim.) */
(PID.TID 0000.0001)                 0.000000000000000E+00
(PID.TID 0000.0001)     ;
(PID.TID 0000.0001) viscA4  =   /* Lateral biharmonic viscosity ( m^4/s ) */
(PID.TID 0000.0001)                 0.000000000000000E+00
(PID.TID 0000.0001)     ;
(PID.TID 0000.0001) viscA4Max = /* Maximum biharmonic viscosity ( m^2/s ) */
(PID.TID 0000.0001)                 1.000000000000000E+21
(PID.TID 0000.0001)     ;
(PID.TID 0000.0001) viscA4Grid = /* Grid dependent biharmonic viscosity ( non-dim. ) */
(PID.TID 0000.0001)                 0.000000000000000E+00
(PID.TID 0000.0001)     ;
(PID.TID 0000.0001) viscC4leith = /* Leith biharm viscosity factor (on grad(vort), non-dim.)*/
(PID.TID 0000.0001)                 0.000000000000000E+00
(PID.TID 0000.0001)     ;
(PID.TID 0000.0001) viscC4leithD = /* Leith biharm viscosity factor (on grad(div), non-dim.) */
(PID.TID 0000.0001)                 0.000000000000000E+00
(PID.TID 0000.0001)     ;
(PID.TID 0000.0001) viscC4Smag = /* Smagorinsky biharm viscosity factor (non-dim) */
(PID.TID 0000.0001)                 0.000000000000000E+00
(PID.TID 0000.0001)     ;
(PID.TID 0000.0001) no_slip_sides =  /* Viscous BCs: No-slip sides */
(PID.TID 0000.0001)                   F
(PID.TID 0000.0001)     ;
(PID.TID 0000.0001) sideDragFactor = /* side-drag scaling factor (non-dim) */
(PID.TID 0000.0001)                 2.000000000000000E+00
(PID.TID 0000.0001)     ;
(PID.TID 0000.0001) viscArNr = /* vertical profile of vertical viscosity ( m^2/s )*/
(PID.TID 0000.0001)    23 @  1.930000000000000E-05              /* K =  1: 23 */
(PID.TID 0000.0001)     ;
(PID.TID 0000.0001) no_slip_bottom =  /* Viscous BCs: No-slip bottom */
(PID.TID 0000.0001)                   T
(PID.TID 0000.0001)     ;
(PID.TID 0000.0001) bottomDragLinear = /* linear bottom-drag coefficient ( m/s ) */
(PID.TID 0000.0001)                 0.000000000000000E+00
(PID.TID 0000.0001)     ;
(PID.TID 0000.0001) bottomDragQuadratic = /* quadratic bottom-drag coefficient (-) */
(PID.TID 0000.0001)                 0.000000000000000E+00
(PID.TID 0000.0001)     ;
(PID.TID 0000.0001) diffKhT =   /* Laplacian diffusion of heat laterally ( m^2/s ) */
(PID.TID 0000.0001)                 0.000000000000000E+00
(PID.TID 0000.0001)     ;
(PID.TID 0000.0001) diffK4T =   /* Biharmonic diffusion of heat laterally ( m^4/s ) */
(PID.TID 0000.0001)                 0.000000000000000E+00
(PID.TID 0000.0001)     ;
(PID.TID 0000.0001) diffKhS =   /* Laplacian diffusion of salt laterally ( m^2/s ) */
(PID.TID 0000.0001)                 0.000000000000000E+00
(PID.TID 0000.0001)     ;
(PID.TID 0000.0001) diffK4S =   /* Biharmonic diffusion of salt laterally ( m^4/s ) */
(PID.TID 0000.0001)                 0.000000000000000E+00
(PID.TID 0000.0001)     ;
(PID.TID 0000.0001) diffKrNrT = /* vertical profile of vertical diffusion of Temp ( m^2/s )*/
(PID.TID 0000.0001)    23 @  1.460000000000000E-05              /* K =  1: 23 */
(PID.TID 0000.0001)     ;
(PID.TID 0000.0001) diffKrNrS = /* vertical profile of vertical diffusion of Salt ( m^2/s )*/
(PID.TID 0000.0001)    23 @  1.460000000000000E-05              /* K =  1: 23 */
(PID.TID 0000.0001)     ;
(PID.TID 0000.0001) diffKrBL79surf = /* Surface diffusion for Bryan and Lewis 79 ( m^2/s ) */
(PID.TID 0000.0001)                 0.000000000000000E+00
(PID.TID 0000.0001)     ;
(PID.TID 0000.0001) diffKrBL79deep = /* Deep diffusion for Bryan and Lewis 1979 ( m^2/s ) */
(PID.TID 0000.0001)                 0.000000000000000E+00
(PID.TID 0000.0001)     ;
(PID.TID 0000.0001) diffKrBL79scl = /* Depth scale for Bryan and Lewis 1979 ( m ) */
(PID.TID 0000.0001)                 2.000000000000000E+02
(PID.TID 0000.0001)     ;
(PID.TID 0000.0001) diffKrBL79Ho = /* Turning depth for Bryan and Lewis 1979 ( m ) */
(PID.TID 0000.0001)                -2.000000000000000E+03
(PID.TID 0000.0001)     ;
(PID.TID 0000.0001) ivdc_kappa = /* Implicit Vertical Diffusivity for Convection ( m^2/s) */
(PID.TID 0000.0001)                 0.000000000000000E+00
(PID.TID 0000.0001)     ;
(PID.TID 0000.0001) hMixCriteria=  /* Criteria for mixed-layer diagnostic */
(PID.TID 0000.0001)                -8.000000000000000E-01
(PID.TID 0000.0001)     ;
(PID.TID 0000.0001) dRhoSmall =  /* Parameter for mixed-layer diagnostic */
(PID.TID 0000.0001)                 1.000000000000000E-06
(PID.TID 0000.0001)     ;
(PID.TID 0000.0001) hMixSmooth=  /* Smoothing parameter for mixed-layer diagnostic */
(PID.TID 0000.0001)                 0.000000000000000E+00
(PID.TID 0000.0001)     ;
(PID.TID 0000.0001) eosType =  /* Type of Equation of State */
(PID.TID 0000.0001)               'JMD95Z'
(PID.TID 0000.0001)     ;
(PID.TID 0000.0001) celsius2K = /* 0 degree Celsius converted to Kelvin ( K ) */
(PID.TID 0000.0001)                 2.731600000000000E+02
(PID.TID 0000.0001)     ;
(PID.TID 0000.0001) rhoConst  = /* Reference density (Boussinesq)  ( kg/m^3 ) */
(PID.TID 0000.0001)                 1.027000000000000E+03
(PID.TID 0000.0001)     ;
(PID.TID 0000.0001) rhoFacC = /* normalized Reference density @ cell-Center (-) */
(PID.TID 0000.0001)    23 @  1.000000000000000E+00              /* K =  1: 23 */
(PID.TID 0000.0001)     ;
(PID.TID 0000.0001) rhoFacF = /* normalized Reference density @ W-Interface (-) */
(PID.TID 0000.0001)    24 @  1.000000000000000E+00              /* K =  1: 24 */
(PID.TID 0000.0001)     ;
(PID.TID 0000.0001) rhoConstFresh = /* Fresh-water reference density ( kg/m^3 ) */
(PID.TID 0000.0001)                 9.998000000000000E+02
(PID.TID 0000.0001)     ;
(PID.TID 0000.0001) gravity =   /* Gravitational acceleration ( m/s^2 ) */
(PID.TID 0000.0001)                 9.815600000000000E+00
(PID.TID 0000.0001)     ;
(PID.TID 0000.0001) gBaro =   /* Barotropic gravity ( m/s^2 ) */
(PID.TID 0000.0001)                 9.815600000000000E+00
(PID.TID 0000.0001)     ;
(PID.TID 0000.0001) rotationPeriod =   /* Rotation Period ( s ) */
(PID.TID 0000.0001)                 8.616400000000000E+04
(PID.TID 0000.0001)     ;
(PID.TID 0000.0001) omega =   /* Angular velocity ( rad/s ) */
(PID.TID 0000.0001)                 7.292123516990375E-05
(PID.TID 0000.0001)     ;
(PID.TID 0000.0001) f0 =   /* Reference coriolis parameter ( 1/s ) */
(PID.TID 0000.0001)                 1.000000000000000E-04
(PID.TID 0000.0001)     ;
(PID.TID 0000.0001) beta =   /* Beta ( 1/(m.s) ) */
(PID.TID 0000.0001)                 9.999999999999999E-12
(PID.TID 0000.0001)     ;
(PID.TID 0000.0001) fPrime =   /* Second coriolis parameter ( 1/s ) */
(PID.TID 0000.0001)                 0.000000000000000E+00
(PID.TID 0000.0001)     ;
(PID.TID 0000.0001) rigidLid =   /* Rigid lid on/off flag */
(PID.TID 0000.0001)                   F
(PID.TID 0000.0001)     ;
(PID.TID 0000.0001) implicitFreeSurface =   /* Implicit free surface on/off flag */
(PID.TID 0000.0001)                   T
(PID.TID 0000.0001)     ;
(PID.TID 0000.0001) freeSurfFac =   /* Implicit free surface factor */
(PID.TID 0000.0001)                 1.000000000000000E+00
(PID.TID 0000.0001)     ;
(PID.TID 0000.0001) implicSurfPress =  /* Surface Pressure implicit factor (0-1)*/
(PID.TID 0000.0001)                 1.000000000000000E+00
(PID.TID 0000.0001)     ;
(PID.TID 0000.0001) implicDiv2Dflow =  /* Barot. Flow Div. implicit factor (0-1)*/
(PID.TID 0000.0001)                 1.000000000000000E+00
(PID.TID 0000.0001)     ;
(PID.TID 0000.0001) exactConserv =  /* Exact Volume Conservation on/off flag*/
(PID.TID 0000.0001)                   F
(PID.TID 0000.0001)     ;
(PID.TID 0000.0001) linFSConserveTr = /* Tracer correction for Lin Free Surface on/off flag*/
(PID.TID 0000.0001)                   F
(PID.TID 0000.0001)     ;
(PID.TID 0000.0001) uniformLin_PhiSurf = /* use uniform Bo_surf on/off flag*/
(PID.TID 0000.0001)                   T
(PID.TID 0000.0001)     ;
(PID.TID 0000.0001) hFacMin =   /* minimum partial cell factor (hFac) */
(PID.TID 0000.0001)                 1.000000000000000E+00
(PID.TID 0000.0001)     ;
(PID.TID 0000.0001) hFacMinDr = /* minimum partial cell thickness ( m) */
(PID.TID 0000.0001)                 1.000000000000000E+00
(PID.TID 0000.0001)     ;
(PID.TID 0000.0001) nonlinFreeSurf = /* Non-linear Free Surf. options (-1,0,1,2,3)*/
(PID.TID 0000.0001)                       0
(PID.TID 0000.0001)      -1,0= Off ; 1,2,3= On, 2=+rescale gU,gV, 3=+update cg2d solv.
(PID.TID 0000.0001)     ;
(PID.TID 0000.0001) hFacInf =   /* lower threshold for hFac (nonlinFreeSurf only)*/
(PID.TID 0000.0001)                 2.000000000000000E-01
(PID.TID 0000.0001)     ;
(PID.TID 0000.0001) hFacSup =   /* upper threshold for hFac (nonlinFreeSurf only)*/
(PID.TID 0000.0001)                 2.000000000000000E+00
(PID.TID 0000.0001)     ;
(PID.TID 0000.0001) select_rStar = /* r* Vertical coord. options (=0 r coord.; >0 uses r*)*/
(PID.TID 0000.0001)                       0
(PID.TID 0000.0001)     ;
(PID.TID 0000.0001) selectAddFluid = /* option for mass source/sink of fluid (=0: off) */
(PID.TID 0000.0001)                       0
(PID.TID 0000.0001)     ;
(PID.TID 0000.0001) useRealFreshWaterFlux = /* Real Fresh Water Flux on/off flag*/
(PID.TID 0000.0001)                   F
(PID.TID 0000.0001)     ;
(PID.TID 0000.0001) temp_EvPrRn = /* Temp. of Evap/Prec/R (UNSET=use local T)(oC)*/
(PID.TID 0000.0001)                 1.234567000000000E+05
(PID.TID 0000.0001)     ;
(PID.TID 0000.0001) salt_EvPrRn = /* Salin. of Evap/Prec/R (UNSET=use local S)(psu)*/
(PID.TID 0000.0001)                 0.000000000000000E+00
(PID.TID 0000.0001)     ;
(PID.TID 0000.0001) temp_addMass = /* Temp. of addMass array (UNSET=use local T)(oC)*/
(PID.TID 0000.0001)                 1.234567000000000E+05
(PID.TID 0000.0001)     ;
(PID.TID 0000.0001) salt_addMass = /* Salin. of addMass array (UNSET=use local S)(psu)*/
(PID.TID 0000.0001)                 0.000000000000000E+00
(PID.TID 0000.0001)     ;
(PID.TID 0000.0001) convertFW2Salt = /* convert F.W. Flux to Salt Flux (-1=use local S)(psu)*/
(PID.TID 0000.0001)                 3.500000000000000E+01
(PID.TID 0000.0001)     ;
(PID.TID 0000.0001) use3Dsolver = /* use 3-D pressure solver on/off flag */
(PID.TID 0000.0001)                   F
(PID.TID 0000.0001)     ;
(PID.TID 0000.0001) nonHydrostatic =  /* Non-Hydrostatic on/off flag */
(PID.TID 0000.0001)                   F
(PID.TID 0000.0001)     ;
(PID.TID 0000.0001) nh_Am2 = /* Non-Hydrostatic terms scaling factor */
(PID.TID 0000.0001)                 1.000000000000000E+00
(PID.TID 0000.0001)     ;
(PID.TID 0000.0001) implicitNHPress = /* Non-Hyd Pressure implicit factor (0-1)*/
(PID.TID 0000.0001)                 1.000000000000000E+00
(PID.TID 0000.0001)     ;
(PID.TID 0000.0001) selectNHfreeSurf = /* Non-Hyd (free-)Surface option */
(PID.TID 0000.0001)                       0
(PID.TID 0000.0001)     ;
(PID.TID 0000.0001) quasiHydrostatic = /* Quasi-Hydrostatic on/off flag */
(PID.TID 0000.0001)                   F
(PID.TID 0000.0001)     ;
(PID.TID 0000.0001) calc_wVelocity = /* vertical velocity calculation on/off flag */
(PID.TID 0000.0001)                   T
(PID.TID 0000.0001)     ;
(PID.TID 0000.0001) momStepping =  /* Momentum equation on/off flag */
(PID.TID 0000.0001)                   T
(PID.TID 0000.0001)     ;
(PID.TID 0000.0001) vectorInvariantMomentum= /* Vector-Invariant Momentum on/off */
(PID.TID 0000.0001)                   F
(PID.TID 0000.0001)     ;
(PID.TID 0000.0001) momAdvection =  /* Momentum advection on/off flag */
(PID.TID 0000.0001)                   T
(PID.TID 0000.0001)     ;
(PID.TID 0000.0001) momViscosity =  /* Momentum viscosity on/off flag */
(PID.TID 0000.0001)                   T
(PID.TID 0000.0001)     ;
(PID.TID 0000.0001) momImplVertAdv= /* Momentum implicit vert. advection on/off*/
(PID.TID 0000.0001)                   F
(PID.TID 0000.0001)     ;
(PID.TID 0000.0001) implicitViscosity = /* Implicit viscosity on/off flag */
(PID.TID 0000.0001)                   T
(PID.TID 0000.0001)     ;
(PID.TID 0000.0001) metricTerms =  /* metric-Terms on/off flag */
(PID.TID 0000.0001)                   T
(PID.TID 0000.0001)     ;
(PID.TID 0000.0001) useNHMTerms = /* Non-Hydrostatic Metric-Terms on/off */
(PID.TID 0000.0001)                   F
(PID.TID 0000.0001)     ;
(PID.TID 0000.0001) selectCoriMap = /* Coriolis Map options (0,1,2,3)*/
(PID.TID 0000.0001)                       2
(PID.TID 0000.0001)     0= f-Plane ; 1= Beta-Plane ; 2= Spherical ; 3= read from file
(PID.TID 0000.0001)     ;
(PID.TID 0000.0001) use3dCoriolis = /* 3-D Coriolis on/off flag */
(PID.TID 0000.0001)                   F
(PID.TID 0000.0001)     ;
(PID.TID 0000.0001) useCoriolis =  /* Coriolis on/off flag */
(PID.TID 0000.0001)                   T
(PID.TID 0000.0001)     ;
(PID.TID 0000.0001) useCDscheme =  /* CD scheme on/off flag */
(PID.TID 0000.0001)                   T
(PID.TID 0000.0001)     ;
(PID.TID 0000.0001) useEnergyConservingCoriolis= /* Flx-Form Coriolis scheme flag */
(PID.TID 0000.0001)                   F
(PID.TID 0000.0001)     ;
(PID.TID 0000.0001) useJamartWetPoints= /* Coriolis WetPoints method flag */
(PID.TID 0000.0001)                   F
(PID.TID 0000.0001)     ;
(PID.TID 0000.0001) useJamartMomAdv= /* V.I Non-linear terms Jamart flag */
(PID.TID 0000.0001)                   F
(PID.TID 0000.0001)     ;
(PID.TID 0000.0001) useAbsVorticity= /* V.I Works with f+zeta in Coriolis */
(PID.TID 0000.0001)                   F
(PID.TID 0000.0001)     ;
(PID.TID 0000.0001) selectVortScheme= /* V.I Scheme selector for Vorticity-Term */
(PID.TID 0000.0001)               123456789
(PID.TID 0000.0001)    = 0 : enstrophy (Shallow-Water Eq.) conserving scheme by Sadourny, JAS 75
(PID.TID 0000.0001)    = 1 : same as 0 with modified hFac
(PID.TID 0000.0001)    = 2 : energy conserving scheme (used by Sadourny in JAS 75 paper)
(PID.TID 0000.0001)    = 3 : energy (general) and enstrophy (2D, nonDiv.) conserving scheme
(PID.TID 0000.0001)          from Sadourny (Burridge & Haseler, ECMWF Rep.4, 1977)
(PID.TID 0000.0001)     ;
(PID.TID 0000.0001) upwindVorticity= /* V.I Upwind bias vorticity flag */
(PID.TID 0000.0001)                   F
(PID.TID 0000.0001)     ;
(PID.TID 0000.0001) highOrderVorticity= /* V.I High order vort. advect. flag */
(PID.TID 0000.0001)                   F
(PID.TID 0000.0001)     ;
(PID.TID 0000.0001) upwindShear= /* V.I Upwind vertical Shear advection flag */
(PID.TID 0000.0001)                   F
(PID.TID 0000.0001)     ;
(PID.TID 0000.0001) selectKEscheme= /* V.I Kinetic Energy scheme selector */
(PID.TID 0000.0001)                       0
(PID.TID 0000.0001)     ;
(PID.TID 0000.0001) momForcing =  /* Momentum forcing on/off flag */
(PID.TID 0000.0001)                   T
(PID.TID 0000.0001)     ;
(PID.TID 0000.0001) momPressureForcing =  /* Momentum pressure term on/off flag */
(PID.TID 0000.0001)                   T
(PID.TID 0000.0001)     ;
(PID.TID 0000.0001) implicitIntGravWave= /* Implicit Internal Gravity Wave flag */
(PID.TID 0000.0001)                   F
(PID.TID 0000.0001)     ;
(PID.TID 0000.0001) staggerTimeStep =    /* Stagger time stepping on/off flag */
(PID.TID 0000.0001)                   T
(PID.TID 0000.0001)     ;
(PID.TID 0000.0001) doResetHFactors = /* reset thickness factors @ each time-step */
(PID.TID 0000.0001)                   F
(PID.TID 0000.0001)     ;
(PID.TID 0000.0001) multiDimAdvection =  /* enable/disable Multi-Dim Advection */
(PID.TID 0000.0001)                   T
(PID.TID 0000.0001)     ;
(PID.TID 0000.0001) useMultiDimAdvec =   /* Multi-Dim Advection is/is-not used */
(PID.TID 0000.0001)                   T
(PID.TID 0000.0001)     ;
(PID.TID 0000.0001) implicitDiffusion = /* Implicit Diffusion on/off flag */
(PID.TID 0000.0001)                   T
(PID.TID 0000.0001)     ;
(PID.TID 0000.0001) tempStepping =  /* Temperature equation on/off flag */
(PID.TID 0000.0001)                   T
(PID.TID 0000.0001)     ;
(PID.TID 0000.0001) tempAdvection=  /* Temperature advection on/off flag */
(PID.TID 0000.0001)                   T
(PID.TID 0000.0001)     ;
(PID.TID 0000.0001) tempImplVertAdv = /* Temp. implicit vert. advection on/off */
(PID.TID 0000.0001)                   F
(PID.TID 0000.0001)     ;
(PID.TID 0000.0001) tempForcing  =  /* Temperature forcing on/off flag */
(PID.TID 0000.0001)                   T
(PID.TID 0000.0001)     ;
(PID.TID 0000.0001) tempIsActiveTr = /* Temp. is a dynamically Active Tracer */
(PID.TID 0000.0001)                   T
(PID.TID 0000.0001)     ;
(PID.TID 0000.0001) saltStepping =  /* Salinity equation on/off flag */
(PID.TID 0000.0001)                   T
(PID.TID 0000.0001)     ;
(PID.TID 0000.0001) saltAdvection=  /* Salinity advection on/off flag */
(PID.TID 0000.0001)                   T
(PID.TID 0000.0001)     ;
(PID.TID 0000.0001) saltImplVertAdv = /* Sali. implicit vert. advection on/off */
(PID.TID 0000.0001)                   F
(PID.TID 0000.0001)     ;
(PID.TID 0000.0001) saltForcing  =  /* Salinity forcing on/off flag */
(PID.TID 0000.0001)                   T
(PID.TID 0000.0001)     ;
(PID.TID 0000.0001) saltIsActiveTr = /* Salt  is a dynamically Active Tracer */
(PID.TID 0000.0001)                   T
(PID.TID 0000.0001)     ;
(PID.TID 0000.0001)  readBinaryPrec = /* Precision used for reading binary files */
(PID.TID 0000.0001)                      32
(PID.TID 0000.0001)     ;
(PID.TID 0000.0001) writeBinaryPrec = /* Precision used for writing binary files */
(PID.TID 0000.0001)                      32
(PID.TID 0000.0001)     ;
(PID.TID 0000.0001)  globalFiles = /* write "global" (=not per tile) files */
(PID.TID 0000.0001)                   F
(PID.TID 0000.0001)     ;
(PID.TID 0000.0001)  useSingleCpuIO = /* only master MPI process does I/O */
(PID.TID 0000.0001)                   F
(PID.TID 0000.0001)     ;
(PID.TID 0000.0001) /* debLev[*]  : level of debug & auxiliary message printing */
(PID.TID 0000.0001) debLevZero =  0 ; /* level of disabled aux. msg printing */
(PID.TID 0000.0001)    debLevA =  1 ; /* level of minimum  aux. msg printing */
(PID.TID 0000.0001)    debLevB =  2 ; /* level of low aux. print (report read-file opening)*/
(PID.TID 0000.0001)    debLevC =  3 ; /* level of moderate debug prt (most pkgs debug msg) */
(PID.TID 0000.0001)    debLevD =  4 ; /* level of enhanced debug prt (add DEBUG_STATS prt) */
(PID.TID 0000.0001)    debLevE =  5 ; /* level of extensive debug printing */
(PID.TID 0000.0001) debugLevel =  /* select debug printing level */
(PID.TID 0000.0001)                       1
(PID.TID 0000.0001)     ;
(PID.TID 0000.0001) //
(PID.TID 0000.0001) // Elliptic solver(s) paramters ( PARM02 in namelist )
(PID.TID 0000.0001) //
(PID.TID 0000.0001) cg2dMaxIters =   /* Upper limit on 2d con. grad iterations  */
(PID.TID 0000.0001)                    1000
(PID.TID 0000.0001)     ;
(PID.TID 0000.0001) cg2dChkResFreq =   /* 2d con. grad convergence test frequency */
(PID.TID 0000.0001)                       1
(PID.TID 0000.0001)     ;
(PID.TID 0000.0001) cg2dTargetResidual =   /* 2d con. grad target residual  */
(PID.TID 0000.0001)                 1.000000000000000E-13
(PID.TID 0000.0001)     ;
(PID.TID 0000.0001) cg2dTargetResWunit =   /* CG2d target residual [W units] */
(PID.TID 0000.0001)                -1.000000000000000E+00
(PID.TID 0000.0001)     ;
(PID.TID 0000.0001) cg2dPreCondFreq =   /* Freq. for updating cg2d preconditioner */
(PID.TID 0000.0001)                       1
(PID.TID 0000.0001)     ;
(PID.TID 0000.0001) useSRCGSolver =  /* use single reduction CG solver(s) */
(PID.TID 0000.0001)                   F
(PID.TID 0000.0001)     ;
(PID.TID 0000.0001) printResidualFreq = /* Freq. for printing CG residual */
(PID.TID 0000.0001)                       0
(PID.TID 0000.0001)     ;
(PID.TID 0000.0001) //
(PID.TID 0000.0001) // Time stepping paramters ( PARM03 in namelist )
(PID.TID 0000.0001) //
(PID.TID 0000.0001) deltaTmom =   /* Momentum equation timestep ( s ) */
(PID.TID 0000.0001)                 3.600000000000000E+03
(PID.TID 0000.0001)     ;
(PID.TID 0000.0001) deltaTfreesurf = /* FreeSurface equation timestep ( s ) */
(PID.TID 0000.0001)                 3.600000000000000E+03
(PID.TID 0000.0001)     ;
(PID.TID 0000.0001) dTtracerLev =  /* Tracer equation timestep ( s ) */
(PID.TID 0000.0001)    23 @  3.600000000000000E+03              /* K =  1: 23 */
(PID.TID 0000.0001)     ;
(PID.TID 0000.0001) deltaTClock  =   /* Model clock timestep ( s ) */
(PID.TID 0000.0001)                 3.600000000000000E+03
(PID.TID 0000.0001)     ;
(PID.TID 0000.0001) cAdjFreq =   /* Convective adjustment interval ( s ) */
(PID.TID 0000.0001)                 0.000000000000000E+00
(PID.TID 0000.0001)     ;
(PID.TID 0000.0001) momForcingOutAB = /* =1: take Momentum Forcing out of Adams-Bash. stepping */
(PID.TID 0000.0001)                       1
(PID.TID 0000.0001)     ;
(PID.TID 0000.0001) tracForcingOutAB = /* =1: take T,S,pTr Forcing out of Adams-Bash. stepping */
(PID.TID 0000.0001)                       1
(PID.TID 0000.0001)     ;
(PID.TID 0000.0001) momDissip_In_AB = /* put Dissipation Tendency in Adams-Bash. stepping */
(PID.TID 0000.0001)                   T
(PID.TID 0000.0001)     ;
(PID.TID 0000.0001) doAB_onGtGs = /* apply AB on Tendencies (rather than on T,S)*/
(PID.TID 0000.0001)                   T
(PID.TID 0000.0001)     ;
(PID.TID 0000.0001) abEps =   /* Adams-Bashforth-2 stabilizing weight */
(PID.TID 0000.0001)                 1.000000000000000E-01
(PID.TID 0000.0001)     ;
(PID.TID 0000.0001) tauCD =   /* CD coupling time-scale ( s ) */
(PID.TID 0000.0001)                 1.728000000000000E+05
(PID.TID 0000.0001)     ;
(PID.TID 0000.0001) rCD =   /* Normalised CD coupling parameter */
(PID.TID 0000.0001)                 9.791666666666666E-01
(PID.TID 0000.0001)     ;
(PID.TID 0000.0001) epsAB_CD = /* AB-2 stabilizing weight for CD-scheme*/
(PID.TID 0000.0001)                 1.000000000000000E-01
(PID.TID 0000.0001)     ;
(PID.TID 0000.0001) pickupStrictlyMatch= /* stop if pickup do not strictly match */
(PID.TID 0000.0001)                   T
(PID.TID 0000.0001)     ;
(PID.TID 0000.0001) nIter0   =   /* Run starting timestep number */
(PID.TID 0000.0001)                       0
(PID.TID 0000.0001)     ;
(PID.TID 0000.0001) nTimeSteps = /* Number of timesteps */
(PID.TID 0000.0001)                       3
(PID.TID 0000.0001)     ;
(PID.TID 0000.0001) nEndIter =   /* Run ending timestep number */
(PID.TID 0000.0001)                       3
(PID.TID 0000.0001)     ;
(PID.TID 0000.0001) baseTime =   /* Model base time ( s ) */
(PID.TID 0000.0001)                 0.000000000000000E+00
(PID.TID 0000.0001)     ;
(PID.TID 0000.0001) startTime =  /* Run start time ( s ) */
(PID.TID 0000.0001)                 0.000000000000000E+00
(PID.TID 0000.0001)     ;
(PID.TID 0000.0001) endTime  =   /* Integration ending time ( s ) */
(PID.TID 0000.0001)                 1.080000000000000E+04
(PID.TID 0000.0001)     ;
(PID.TID 0000.0001) pChkPtFreq = /* Permanent restart/pickup file interval ( s ) */
(PID.TID 0000.0001)                 3.600000000000000E+04
(PID.TID 0000.0001)     ;
(PID.TID 0000.0001) chkPtFreq  = /* Rolling restart/pickup file interval ( s ) */
(PID.TID 0000.0001)                 0.000000000000000E+00
(PID.TID 0000.0001)     ;
(PID.TID 0000.0001) pickup_write_mdsio =   /* Model IO flag. */
(PID.TID 0000.0001)                   T
(PID.TID 0000.0001)     ;
(PID.TID 0000.0001) pickup_read_mdsio =   /* Model IO flag. */
(PID.TID 0000.0001)                   T
(PID.TID 0000.0001)     ;
(PID.TID 0000.0001) pickup_write_mnc =   /* Model IO flag. */
(PID.TID 0000.0001)                   F
(PID.TID 0000.0001)     ;
(PID.TID 0000.0001) pickup_read_mnc =   /* Model IO flag. */
(PID.TID 0000.0001)                   F
(PID.TID 0000.0001)     ;
(PID.TID 0000.0001) pickup_write_immed =   /* Model IO flag. */
(PID.TID 0000.0001)                   F
(PID.TID 0000.0001)     ;
(PID.TID 0000.0001) writePickupAtEnd =   /* Model IO flag. */
(PID.TID 0000.0001)                   T
(PID.TID 0000.0001)     ;
(PID.TID 0000.0001) dumpFreq =   /* Model state write out interval ( s ). */
(PID.TID 0000.0001)                 0.000000000000000E+00
(PID.TID 0000.0001)     ;
(PID.TID 0000.0001) dumpInitAndLast= /* write out Initial & Last iter. model state */
(PID.TID 0000.0001)                   T
(PID.TID 0000.0001)     ;
(PID.TID 0000.0001) snapshot_mdsio =   /* Model IO flag. */
(PID.TID 0000.0001)                   T
(PID.TID 0000.0001)     ;
(PID.TID 0000.0001) snapshot_mnc =   /* Model IO flag. */
(PID.TID 0000.0001)                   F
(PID.TID 0000.0001)     ;
(PID.TID 0000.0001) monitorFreq =   /* Monitor output interval ( s ). */
(PID.TID 0000.0001)                 1.000000000000000E+00
(PID.TID 0000.0001)     ;
(PID.TID 0000.0001) monitorSelect = /* select group of variables to monitor */
(PID.TID 0000.0001)                       3
(PID.TID 0000.0001)     ;
(PID.TID 0000.0001) monitor_stdio =   /* Model IO flag. */
(PID.TID 0000.0001)                   T
(PID.TID 0000.0001)     ;
(PID.TID 0000.0001) monitor_mnc =   /* Model IO flag. */
(PID.TID 0000.0001)                   F
(PID.TID 0000.0001)     ;
(PID.TID 0000.0001) externForcingPeriod =   /* forcing period (s) */
(PID.TID 0000.0001)                 0.000000000000000E+00
(PID.TID 0000.0001)     ;
(PID.TID 0000.0001) externForcingCycle =   /* period of the cyle (s). */
(PID.TID 0000.0001)                 0.000000000000000E+00
(PID.TID 0000.0001)     ;
(PID.TID 0000.0001) tauThetaClimRelax =   /* relaxation time scale (s) */
(PID.TID 0000.0001)                 0.000000000000000E+00
(PID.TID 0000.0001)     ;
(PID.TID 0000.0001) tauSaltClimRelax =   /* relaxation time scale (s) */
(PID.TID 0000.0001)                 4.142330000000000E+06
(PID.TID 0000.0001)     ;
(PID.TID 0000.0001) latBandClimRelax =   /* max. Lat. where relaxation */
(PID.TID 0000.0001)                 1.800000000000000E+02
(PID.TID 0000.0001)     ;
(PID.TID 0000.0001) //
(PID.TID 0000.0001) // Gridding paramters ( PARM04 in namelist )
(PID.TID 0000.0001) //
(PID.TID 0000.0001) usingCartesianGrid = /* Cartesian coordinates flag ( True/False ) */
(PID.TID 0000.0001)                   F
(PID.TID 0000.0001)     ;
(PID.TID 0000.0001) usingCylindricalGrid = /* Cylindrical coordinates flag ( True/False ) */
(PID.TID 0000.0001)                   F
(PID.TID 0000.0001)     ;
(PID.TID 0000.0001) usingSphericalPolarGrid = /* Spherical coordinates flag ( True/False ) */
(PID.TID 0000.0001)                   T
(PID.TID 0000.0001)     ;
(PID.TID 0000.0001) usingCurvilinearGrid = /* Curvilinear coordinates flag ( True/False ) */
(PID.TID 0000.0001)                   F
(PID.TID 0000.0001)     ;
(PID.TID 0000.0001) selectSigmaCoord = /* Hybrid-Sigma Vert. Coordinate option */
(PID.TID 0000.0001)                       0
(PID.TID 0000.0001)     ;
(PID.TID 0000.0001) Ro_SeaLevel = /* r(1) ( units of r ==  m ) */
(PID.TID 0000.0001)                 0.000000000000000E+00
(PID.TID 0000.0001)     ;
(PID.TID 0000.0001) rSigmaBnd = /* r/sigma transition ( units of r ==  m ) */
(PID.TID 0000.0001)                 1.234567000000000E+05
(PID.TID 0000.0001)     ;
(PID.TID 0000.0001) rkSign =   /* index orientation relative to vertical coordinate */
(PID.TID 0000.0001)                -1.000000000000000E+00
(PID.TID 0000.0001)     ;
(PID.TID 0000.0001) gravitySign = /* gravity orientation relative to vertical coordinate */
(PID.TID 0000.0001)                -1.000000000000000E+00
(PID.TID 0000.0001)     ;
(PID.TID 0000.0001) mass2rUnit = /* convert mass per unit area [kg/m2] to r-units [m] */
(PID.TID 0000.0001)                 9.737098344693282E-04
(PID.TID 0000.0001)     ;
(PID.TID 0000.0001) rUnit2mass = /* convert r-units [m] to mass per unit area [kg/m2] */
(PID.TID 0000.0001)                 1.027000000000000E+03
(PID.TID 0000.0001)     ;
(PID.TID 0000.0001) drC =   /* C spacing ( units of r ) */
(PID.TID 0000.0001)                 5.000000000000000E+00,      /* K =  1 */
(PID.TID 0000.0001)                 1.000000000000000E+01,      /* K =  2 */
(PID.TID 0000.0001)                 1.250000000000000E+01,      /* K =  3 */
(PID.TID 0000.0001)                 1.750000000000000E+01,      /* K =  4 */
(PID.TID 0000.0001)                 2.000000000000000E+01,      /* K =  5 */
(PID.TID 0000.0001)                 2.250000000000000E+01,      /* K =  6 */
(PID.TID 0000.0001)                 3.000000000000000E+01,      /* K =  7 */
(PID.TID 0000.0001)                 4.250000000000000E+01,      /* K =  8 */
(PID.TID 0000.0001)                 6.250000000000000E+01,      /* K =  9 */
(PID.TID 0000.0001)                 8.750000000000000E+01,      /* K = 10 */
(PID.TID 0000.0001)                 1.250000000000000E+02,      /* K = 11 */
(PID.TID 0000.0001)                 1.750000000000000E+02,      /* K = 12 */
(PID.TID 0000.0001)                 2.375000000000000E+02,      /* K = 13 */
(PID.TID 0000.0001)                 3.125000000000000E+02,      /* K = 14 */
(PID.TID 0000.0001)                 3.825000000000000E+02,      /* K = 15 */
(PID.TID 0000.0001)                 4.325000000000000E+02,      /* K = 16 */
(PID.TID 0000.0001)                 4.750000000000000E+02,      /* K = 17 */
(PID.TID 0000.0001)     6 @  5.000000000000000E+02              /* K = 18: 23 */
(PID.TID 0000.0001)     ;
(PID.TID 0000.0001) drF =   /* W spacing ( units of r ) */
(PID.TID 0000.0001)     2 @  1.000000000000000E+01,             /* K =  1:  2 */
(PID.TID 0000.0001)                 1.500000000000000E+01,      /* K =  3 */
(PID.TID 0000.0001)     2 @  2.000000000000000E+01,             /* K =  4:  5 */
(PID.TID 0000.0001)                 2.500000000000000E+01,      /* K =  6 */
(PID.TID 0000.0001)                 3.500000000000000E+01,      /* K =  7 */
(PID.TID 0000.0001)                 5.000000000000000E+01,      /* K =  8 */
(PID.TID 0000.0001)                 7.500000000000000E+01,      /* K =  9 */
(PID.TID 0000.0001)                 1.000000000000000E+02,      /* K = 10 */
(PID.TID 0000.0001)                 1.500000000000000E+02,      /* K = 11 */
(PID.TID 0000.0001)                 2.000000000000000E+02,      /* K = 12 */
(PID.TID 0000.0001)                 2.750000000000000E+02,      /* K = 13 */
(PID.TID 0000.0001)                 3.500000000000000E+02,      /* K = 14 */
(PID.TID 0000.0001)                 4.150000000000000E+02,      /* K = 15 */
(PID.TID 0000.0001)                 4.500000000000000E+02,      /* K = 16 */
(PID.TID 0000.0001)     7 @  5.000000000000000E+02              /* K = 17: 23 */
(PID.TID 0000.0001)     ;
(PID.TID 0000.0001) delX = /* U spacing ( m - cartesian, degrees - spherical ) */
(PID.TID 0000.0001)    20 @  2.000000000000000E+00              /* I =  1: 20 */
(PID.TID 0000.0001)     ;
(PID.TID 0000.0001) delY = /* V spacing ( m - cartesian, degrees - spherical ) */
(PID.TID 0000.0001)    16 @  2.000000000000000E+00              /* J =  1: 16 */
(PID.TID 0000.0001)     ;
(PID.TID 0000.0001) xgOrigin = /* X-axis origin of West  edge (cartesian: m, lat-lon: deg.) */
(PID.TID 0000.0001)                 2.800000000000000E+02
(PID.TID 0000.0001)     ;
(PID.TID 0000.0001) ygOrigin = /* Y-axis origin of South edge (cartesian: m, lat-lon: deg.) */
(PID.TID 0000.0001)                 4.600000000000000E+01
(PID.TID 0000.0001)     ;
(PID.TID 0000.0001) rSphere =  /* Radius ( ignored - cartesian, m - spherical ) */
(PID.TID 0000.0001)                 6.371000000000000E+06
(PID.TID 0000.0001)     ;
(PID.TID 0000.0001) deepAtmosphere = /* Deep/Shallow Atmosphere flag (True/False) */
(PID.TID 0000.0001)                   F
(PID.TID 0000.0001)     ;
(PID.TID 0000.0001) xC =  /* xC(:,1,:,1) : P-point X coord ( deg. or m if cartesian) */
(PID.TID 0000.0001)                 2.810000000000000E+02,      /* I =  1 */
(PID.TID 0000.0001)                 2.830000000000000E+02,      /* I =  2 */
(PID.TID 0000.0001)                 2.850000000000000E+02,      /* I =  3 */
(PID.TID 0000.0001)                 2.870000000000000E+02,      /* I =  4 */
(PID.TID 0000.0001)                 2.890000000000000E+02,      /* I =  5 */
(PID.TID 0000.0001)                 2.910000000000000E+02,      /* I =  6 */
(PID.TID 0000.0001)                 2.930000000000000E+02,      /* I =  7 */
(PID.TID 0000.0001)                 2.950000000000000E+02,      /* I =  8 */
(PID.TID 0000.0001)                 2.970000000000000E+02,      /* I =  9 */
(PID.TID 0000.0001)                 2.990000000000000E+02,      /* I = 10 */
(PID.TID 0000.0001)                 3.010000000000000E+02,      /* I = 11 */
(PID.TID 0000.0001)                 3.030000000000000E+02,      /* I = 12 */
(PID.TID 0000.0001)                 3.050000000000000E+02,      /* I = 13 */
(PID.TID 0000.0001)                 3.070000000000000E+02,      /* I = 14 */
(PID.TID 0000.0001)                 3.090000000000000E+02,      /* I = 15 */
(PID.TID 0000.0001)                 3.110000000000000E+02,      /* I = 16 */
(PID.TID 0000.0001)                 3.130000000000000E+02,      /* I = 17 */
(PID.TID 0000.0001)                 3.150000000000000E+02,      /* I = 18 */
(PID.TID 0000.0001)                 3.170000000000000E+02,      /* I = 19 */
(PID.TID 0000.0001)                 3.190000000000000E+02       /* I = 20 */
(PID.TID 0000.0001)     ;
(PID.TID 0000.0001) yC =  /* yC(1,:,1,:) : P-point Y coord ( deg. or m if cartesian) */
(PID.TID 0000.0001)                 4.700000000000000E+01,      /* J =  1 */
(PID.TID 0000.0001)                 4.900000000000000E+01,      /* J =  2 */
(PID.TID 0000.0001)                 5.100000000000000E+01,      /* J =  3 */
(PID.TID 0000.0001)                 5.300000000000000E+01,      /* J =  4 */
(PID.TID 0000.0001)                 5.500000000000000E+01,      /* J =  5 */
(PID.TID 0000.0001)                 5.700000000000000E+01,      /* J =  6 */
(PID.TID 0000.0001)                 5.900000000000000E+01,      /* J =  7 */
(PID.TID 0000.0001)                 6.100000000000000E+01,      /* J =  8 */
(PID.TID 0000.0001)                 6.300000000000000E+01,      /* J =  9 */
(PID.TID 0000.0001)                 6.500000000000000E+01,      /* J = 10 */
(PID.TID 0000.0001)                 6.700000000000000E+01,      /* J = 11 */
(PID.TID 0000.0001)                 6.900000000000000E+01,      /* J = 12 */
(PID.TID 0000.0001)                 7.100000000000000E+01,      /* J = 13 */
(PID.TID 0000.0001)                 7.300000000000000E+01,      /* J = 14 */
(PID.TID 0000.0001)                 7.500000000000000E+01,      /* J = 15 */
(PID.TID 0000.0001)                 7.700000000000000E+01       /* J = 16 */
(PID.TID 0000.0001)     ;
(PID.TID 0000.0001) rcoord = /* P-point R coordinate (  units of r ) */
(PID.TID 0000.0001)                -5.000000000000000E+00,      /* K =  1 */
(PID.TID 0000.0001)                -1.500000000000000E+01,      /* K =  2 */
(PID.TID 0000.0001)                -2.750000000000000E+01,      /* K =  3 */
(PID.TID 0000.0001)                -4.500000000000000E+01,      /* K =  4 */
(PID.TID 0000.0001)                -6.500000000000000E+01,      /* K =  5 */
(PID.TID 0000.0001)                -8.750000000000000E+01,      /* K =  6 */
(PID.TID 0000.0001)                -1.175000000000000E+02,      /* K =  7 */
(PID.TID 0000.0001)                -1.600000000000000E+02,      /* K =  8 */
(PID.TID 0000.0001)                -2.225000000000000E+02,      /* K =  9 */
(PID.TID 0000.0001)                -3.100000000000000E+02,      /* K = 10 */
(PID.TID 0000.0001)                -4.350000000000000E+02,      /* K = 11 */
(PID.TID 0000.0001)                -6.100000000000000E+02,      /* K = 12 */
(PID.TID 0000.0001)                -8.475000000000000E+02,      /* K = 13 */
(PID.TID 0000.0001)                -1.160000000000000E+03,      /* K = 14 */
(PID.TID 0000.0001)                -1.542500000000000E+03,      /* K = 15 */
(PID.TID 0000.0001)                -1.975000000000000E+03,      /* K = 16 */
(PID.TID 0000.0001)                -2.450000000000000E+03,      /* K = 17 */
(PID.TID 0000.0001)                -2.950000000000000E+03,      /* K = 18 */
(PID.TID 0000.0001)                -3.450000000000000E+03,      /* K = 19 */
(PID.TID 0000.0001)                -3.950000000000000E+03,      /* K = 20 */
(PID.TID 0000.0001)                -4.450000000000000E+03,      /* K = 21 */
(PID.TID 0000.0001)                -4.950000000000000E+03,      /* K = 22 */
(PID.TID 0000.0001)                -5.450000000000000E+03       /* K = 23 */
(PID.TID 0000.0001)     ;
(PID.TID 0000.0001) rF =   /* W-Interf. R coordinate (  units of r ) */
(PID.TID 0000.0001)                 0.000000000000000E+00,      /* K =  1 */
(PID.TID 0000.0001)                -1.000000000000000E+01,      /* K =  2 */
(PID.TID 0000.0001)                -2.000000000000000E+01,      /* K =  3 */
(PID.TID 0000.0001)                -3.500000000000000E+01,      /* K =  4 */
(PID.TID 0000.0001)                -5.500000000000000E+01,      /* K =  5 */
(PID.TID 0000.0001)                -7.500000000000000E+01,      /* K =  6 */
(PID.TID 0000.0001)                -1.000000000000000E+02,      /* K =  7 */
(PID.TID 0000.0001)                -1.350000000000000E+02,      /* K =  8 */
(PID.TID 0000.0001)                -1.850000000000000E+02,      /* K =  9 */
(PID.TID 0000.0001)                -2.600000000000000E+02,      /* K = 10 */
(PID.TID 0000.0001)                -3.600000000000000E+02,      /* K = 11 */
(PID.TID 0000.0001)                -5.100000000000000E+02,      /* K = 12 */
(PID.TID 0000.0001)                -7.100000000000000E+02,      /* K = 13 */
(PID.TID 0000.0001)                -9.850000000000000E+02,      /* K = 14 */
(PID.TID 0000.0001)                -1.335000000000000E+03,      /* K = 15 */
(PID.TID 0000.0001)                -1.750000000000000E+03,      /* K = 16 */
(PID.TID 0000.0001)                -2.200000000000000E+03,      /* K = 17 */
(PID.TID 0000.0001)                -2.700000000000000E+03,      /* K = 18 */
(PID.TID 0000.0001)                -3.200000000000000E+03,      /* K = 19 */
(PID.TID 0000.0001)                -3.700000000000000E+03,      /* K = 20 */
(PID.TID 0000.0001)                -4.200000000000000E+03,      /* K = 21 */
(PID.TID 0000.0001)                -4.700000000000000E+03,      /* K = 22 */
(PID.TID 0000.0001)                -5.200000000000000E+03,      /* K = 23 */
(PID.TID 0000.0001)                -5.700000000000000E+03       /* K = 24 */
(PID.TID 0000.0001)     ;
(PID.TID 0000.0001) deepFacC = /* deep-model grid factor @ cell-Center (-) */
(PID.TID 0000.0001)    23 @  1.000000000000000E+00              /* K =  1: 23 */
(PID.TID 0000.0001)     ;
(PID.TID 0000.0001) deepFacF = /* deep-model grid factor @ W-Interface (-) */
(PID.TID 0000.0001)    24 @  1.000000000000000E+00              /* K =  1: 24 */
(PID.TID 0000.0001)     ;
(PID.TID 0000.0001) rVel2wUnit = /* convert units: rVel -> wSpeed (=1 if z-coord)*/
(PID.TID 0000.0001)    24 @  1.000000000000000E+00              /* K =  1: 24 */
(PID.TID 0000.0001)     ;
(PID.TID 0000.0001) wUnit2rVel = /* convert units: wSpeed -> rVel (=1 if z-coord)*/
(PID.TID 0000.0001)    24 @  1.000000000000000E+00              /* K =  1: 24 */
(PID.TID 0000.0001)     ;
(PID.TID 0000.0001) dBdrRef = /* Vertical grad. of reference buoyancy [(m/s/r)^2] */
(PID.TID 0000.0001)                 0.000000000000000E+00,      /* K =  1 */
(PID.TID 0000.0001)                 3.513461801096672E-04,      /* K =  2 */
(PID.TID 0000.0001)                 2.578462793867026E-04,      /* K =  3 */
(PID.TID 0000.0001)                 1.716535447918954E-04,      /* K =  4 */
(PID.TID 0000.0001)                 1.391849606744939E-04,      /* K =  5 */
(PID.TID 0000.0001)                 1.106038973987551E-04,      /* K =  6 */
(PID.TID 0000.0001)                 7.062448315028799E-05,      /* K =  7 */
(PID.TID 0000.0001)                 4.112152780686669E-05,      /* K =  8 */
(PID.TID 0000.0001)                 2.554455911799560E-05,      /* K =  9 */
(PID.TID 0000.0001)                 1.739274227427603E-05,      /* K = 10 */
(PID.TID 0000.0001)                 1.573008010125636E-05,      /* K = 11 */
(PID.TID 0000.0001)                 1.341763357458043E-05,      /* K = 12 */
(PID.TID 0000.0001)                 1.029886793911016E-05,      /* K = 13 */
(PID.TID 0000.0001)                 7.244777660794312E-06,      /* K = 14 */
(PID.TID 0000.0001)                 5.291061202791868E-06,      /* K = 15 */
(PID.TID 0000.0001)                 4.668992652371521E-06,      /* K = 16 */
(PID.TID 0000.0001)                 3.952349989520169E-06,      /* K = 17 */
(PID.TID 0000.0001)                 3.937600045035830E-06,      /* K = 18 */
(PID.TID 0000.0001)                 3.833348475309353E-06,      /* K = 19 */
(PID.TID 0000.0001)                 4.027570774400333E-06,      /* K = 20 */
(PID.TID 0000.0001)                 3.935806005392895E-06,      /* K = 21 */
(PID.TID 0000.0001)                 3.995673930141529E-06,      /* K = 22 */
(PID.TID 0000.0001)                 4.061338744769299E-06       /* K = 23 */
(PID.TID 0000.0001)     ;
(PID.TID 0000.0001) rotateGrid = /* use rotated grid ( True/False ) */
(PID.TID 0000.0001)                   F
(PID.TID 0000.0001)     ;
(PID.TID 0000.0001) phiEuler = /* Euler angle, rotation about original z-coordinate [rad] */
(PID.TID 0000.0001)                 0.000000000000000E+00
(PID.TID 0000.0001)     ;
(PID.TID 0000.0001) thetaEuler = /* Euler angle, rotation about new x-coordinate [rad] */
(PID.TID 0000.0001)                 0.000000000000000E+00
(PID.TID 0000.0001)     ;
(PID.TID 0000.0001) psiEuler = /* Euler angle, rotation about new z-coordinate [rad] */
(PID.TID 0000.0001)                 0.000000000000000E+00
(PID.TID 0000.0001)     ;
(PID.TID 0000.0001) dxF =  /* dxF(:,1,:,1) ( units: m ) */
(PID.TID 0000.0001)    20 @  1.516695152377178E+05              /* I =  1: 20 */
(PID.TID 0000.0001)     ;
(PID.TID 0000.0001) dxF =  /* dxF(1,:,1,:) ( units: m ) */
(PID.TID 0000.0001)                 1.516695152377178E+05,      /* J =  1 */
(PID.TID 0000.0001)                 1.459008712061998E+05,      /* J =  2 */
(PID.TID 0000.0001)                 1.399544694374234E+05,      /* J =  3 */
(PID.TID 0000.0001)                 1.338375547059709E+05,      /* J =  4 */
(PID.TID 0000.0001)                 1.275575795302040E+05,      /* J =  5 */
(PID.TID 0000.0001)                 1.211221950925184E+05,      /* J =  6 */
(PID.TID 0000.0001)                 1.145392419175564E+05,      /* J =  7 */
(PID.TID 0000.0001)                 1.078167403197357E+05,      /* J =  8 */
(PID.TID 0000.0001)                 1.009628806317309E+05,      /* J =  9 */
(PID.TID 0000.0001)                 9.398601322581600E+04,      /* J = 10 */
(PID.TID 0000.0001)                 8.689463834022089E+04,      /* J = 11 */
(PID.TID 0000.0001)                 7.969739572290120E+04,      /* J = 12 */
(PID.TID 0000.0001)                 7.240305410533583E+04,      /* J = 13 */
(PID.TID 0000.0001)                 6.502050051917860E+04,      /* J = 14 */
(PID.TID 0000.0001)                 5.755872946877906E+04,      /* J = 15 */
(PID.TID 0000.0001)                 5.002683197276441E+04       /* J = 16 */
(PID.TID 0000.0001)     ;
(PID.TID 0000.0001) dyF =  /* dyF(:,1,:,1) ( units: m ) */
(PID.TID 0000.0001)    20 @  2.223898532891175E+05              /* I =  1: 20 */
(PID.TID 0000.0001)     ;
(PID.TID 0000.0001) dyF =  /* dyF(1,:,1,:) ( units: m ) */
(PID.TID 0000.0001)    16 @  2.223898532891175E+05              /* J =  1: 16 */
(PID.TID 0000.0001)     ;
(PID.TID 0000.0001) dxG =  /* dxG(:,1,:,1) ( units: m ) */
(PID.TID 0000.0001)    20 @  1.544849730924338E+05              /* I =  1: 20 */
(PID.TID 0000.0001)     ;
(PID.TID 0000.0001) dxG =  /* dxG(1,:,1,:) ( units: m ) */
(PID.TID 0000.0001)                 1.544849730924338E+05,      /* J =  1 */
(PID.TID 0000.0001)                 1.488078573794047E+05,      /* J =  2 */
(PID.TID 0000.0001)                 1.429494422142520E+05,      /* J =  3 */
(PID.TID 0000.0001)                 1.369168651734348E+05,      /* J =  4 */
(PID.TID 0000.0001)                 1.307174760228300E+05,      /* J =  5 */
(PID.TID 0000.0001)                 1.243588277631750E+05,      /* J =  6 */
(PID.TID 0000.0001)                 1.178486674278995E+05,      /* J =  7 */
(PID.TID 0000.0001)                 1.111949266445588E+05,      /* J =  8 */
(PID.TID 0000.0001)                 1.044057119713670E+05,      /* J =  9 */
(PID.TID 0000.0001)                 9.748929502060512E+04,      /* J = 10 */
(PID.TID 0000.0001)                 9.045410238093534E+04,      /* J = 11 */
(PID.TID 0000.0001)                 8.330870535090075E+04,      /* J = 12 */
(PID.TID 0000.0001)                 7.606180949611843E+04,      /* J = 13 */
(PID.TID 0000.0001)                 6.872224404288860E+04,      /* J = 14 */
(PID.TID 0000.0001)                 6.129895112114271E+04,      /* J = 15 */
(PID.TID 0000.0001)                 5.380097486983529E+04       /* J = 16 */
(PID.TID 0000.0001)     ;
(PID.TID 0000.0001) dyG =  /* dyG(:,1,:,1) ( units: m ) */
(PID.TID 0000.0001)    20 @  2.223898532891175E+05              /* I =  1: 20 */
(PID.TID 0000.0001)     ;
(PID.TID 0000.0001) dyG =  /* dyG(1,:,1,:) ( units: m ) */
(PID.TID 0000.0001)    16 @  2.223898532891175E+05              /* J =  1: 16 */
(PID.TID 0000.0001)     ;
(PID.TID 0000.0001) dxC =  /* dxC(:,1,:,1) ( units: m ) */
(PID.TID 0000.0001)    20 @  1.516695152377178E+05              /* I =  1: 20 */
(PID.TID 0000.0001)     ;
(PID.TID 0000.0001) dxC =  /* dxC(1,:,1,:) ( units: m ) */
(PID.TID 0000.0001)                 1.516695152377178E+05,      /* J =  1 */
(PID.TID 0000.0001)                 1.459008712061998E+05,      /* J =  2 */
(PID.TID 0000.0001)                 1.399544694374234E+05,      /* J =  3 */
(PID.TID 0000.0001)                 1.338375547059709E+05,      /* J =  4 */
(PID.TID 0000.0001)                 1.275575795302040E+05,      /* J =  5 */
(PID.TID 0000.0001)                 1.211221950925184E+05,      /* J =  6 */
(PID.TID 0000.0001)                 1.145392419175564E+05,      /* J =  7 */
(PID.TID 0000.0001)                 1.078167403197357E+05,      /* J =  8 */
(PID.TID 0000.0001)                 1.009628806317309E+05,      /* J =  9 */
(PID.TID 0000.0001)                 9.398601322581600E+04,      /* J = 10 */
(PID.TID 0000.0001)                 8.689463834022089E+04,      /* J = 11 */
(PID.TID 0000.0001)                 7.969739572290120E+04,      /* J = 12 */
(PID.TID 0000.0001)                 7.240305410533583E+04,      /* J = 13 */
(PID.TID 0000.0001)                 6.502050051917860E+04,      /* J = 14 */
(PID.TID 0000.0001)                 5.755872946877906E+04,      /* J = 15 */
(PID.TID 0000.0001)                 5.002683197276441E+04       /* J = 16 */
(PID.TID 0000.0001)     ;
(PID.TID 0000.0001) dyC =  /* dyC(:,1,:,1) ( units: m ) */
(PID.TID 0000.0001)    20 @  2.223898532891175E+05              /* I =  1: 20 */
(PID.TID 0000.0001)     ;
(PID.TID 0000.0001) dyC =  /* dyC(1,:,1,:) ( units: m ) */
(PID.TID 0000.0001)    16 @  2.223898532891175E+05              /* J =  1: 16 */
(PID.TID 0000.0001)     ;
(PID.TID 0000.0001) dxV =  /* dxV(:,1,:,1) ( units: m ) */
(PID.TID 0000.0001)    20 @  1.544849730924338E+05              /* I =  1: 20 */
(PID.TID 0000.0001)     ;
(PID.TID 0000.0001) dxV =  /* dxV(1,:,1,:) ( units: m ) */
(PID.TID 0000.0001)                 1.544849730924338E+05,      /* J =  1 */
(PID.TID 0000.0001)                 1.488078573794047E+05,      /* J =  2 */
(PID.TID 0000.0001)                 1.429494422142520E+05,      /* J =  3 */
(PID.TID 0000.0001)                 1.369168651734348E+05,      /* J =  4 */
(PID.TID 0000.0001)                 1.307174760228300E+05,      /* J =  5 */
(PID.TID 0000.0001)                 1.243588277631750E+05,      /* J =  6 */
(PID.TID 0000.0001)                 1.178486674278995E+05,      /* J =  7 */
(PID.TID 0000.0001)                 1.111949266445588E+05,      /* J =  8 */
(PID.TID 0000.0001)                 1.044057119713670E+05,      /* J =  9 */
(PID.TID 0000.0001)                 9.748929502060512E+04,      /* J = 10 */
(PID.TID 0000.0001)                 9.045410238093534E+04,      /* J = 11 */
(PID.TID 0000.0001)                 8.330870535090075E+04,      /* J = 12 */
(PID.TID 0000.0001)                 7.606180949611843E+04,      /* J = 13 */
(PID.TID 0000.0001)                 6.872224404288860E+04,      /* J = 14 */
(PID.TID 0000.0001)                 6.129895112114271E+04,      /* J = 15 */
(PID.TID 0000.0001)                 5.380097486983529E+04       /* J = 16 */
(PID.TID 0000.0001)     ;
(PID.TID 0000.0001) dyU =  /* dyU(:,1,:,1) ( units: m ) */
(PID.TID 0000.0001)    20 @  2.223898532891175E+05              /* I =  1: 20 */
(PID.TID 0000.0001)     ;
(PID.TID 0000.0001) dyU =  /* dyU(1,:,1,:) ( units: m ) */
(PID.TID 0000.0001)    16 @  2.223898532891175E+05              /* J =  1: 16 */
(PID.TID 0000.0001)     ;
(PID.TID 0000.0001) rA  =  /* rA (:,1,:,1) ( units: m^2 ) */
(PID.TID 0000.0001)    20 @  3.372804882275630E+10              /* I =  1: 20 */
(PID.TID 0000.0001)     ;
(PID.TID 0000.0001) rA  =  /* rA (1,:,1,:) ( units: m^2 ) */
(PID.TID 0000.0001)                 3.372804882275630E+10,      /* J =  1 */
(PID.TID 0000.0001)                 3.244522605358471E+10,      /* J =  2 */
(PID.TID 0000.0001)                 3.112287377427108E+10,      /* J =  3 */
(PID.TID 0000.0001)                 2.976260306737437E+10,      /* J =  4 */
(PID.TID 0000.0001)                 2.836607121321784E+10,      /* J =  5 */
(PID.TID 0000.0001)                 2.693497967074614E+10,      /* J =  6 */
(PID.TID 0000.0001)                 2.547107200456132E+10,      /* J =  7 */
(PID.TID 0000.0001)                 2.397613176065682E+10,      /* J =  8 */
(PID.TID 0000.0001)                 2.245198029344207E+10,      /* J =  9 */
(PID.TID 0000.0001)                 2.090047454670177E+10,      /* J = 10 */
(PID.TID 0000.0001)                 1.932350479119805E+10,      /* J = 11 */
(PID.TID 0000.0001)                 1.772299232166360E+10,      /* J = 12 */
(PID.TID 0000.0001)                 1.610088711600326E+10,      /* J = 13 */
(PID.TID 0000.0001)                 1.445916545954351E+10,      /* J = 14 */
(PID.TID 0000.0001)                 1.279982753723478E+10,      /* J = 15 */
(PID.TID 0000.0001)                 1.112489499673432E+10       /* J = 16 */
(PID.TID 0000.0001)     ;
(PID.TID 0000.0001) rAw =  /* rAw(:,1,:,1) ( units: m^2 ) */
(PID.TID 0000.0001)    20 @  3.372804882275630E+10              /* I =  1: 20 */
(PID.TID 0000.0001)     ;
(PID.TID 0000.0001) rAw =  /* rAw(1,:,1,:) ( units: m^2 ) */
(PID.TID 0000.0001)                 3.372804882275630E+10,      /* J =  1 */
(PID.TID 0000.0001)                 3.244522605358471E+10,      /* J =  2 */
(PID.TID 0000.0001)                 3.112287377427108E+10,      /* J =  3 */
(PID.TID 0000.0001)                 2.976260306737437E+10,      /* J =  4 */
(PID.TID 0000.0001)                 2.836607121321784E+10,      /* J =  5 */
(PID.TID 0000.0001)                 2.693497967074614E+10,      /* J =  6 */
(PID.TID 0000.0001)                 2.547107200456132E+10,      /* J =  7 */
(PID.TID 0000.0001)                 2.397613176065682E+10,      /* J =  8 */
(PID.TID 0000.0001)                 2.245198029344207E+10,      /* J =  9 */
(PID.TID 0000.0001)                 2.090047454670177E+10,      /* J = 10 */
(PID.TID 0000.0001)                 1.932350479119805E+10,      /* J = 11 */
(PID.TID 0000.0001)                 1.772299232166360E+10,      /* J = 12 */
(PID.TID 0000.0001)                 1.610088711600326E+10,      /* J = 13 */
(PID.TID 0000.0001)                 1.445916545954351E+10,      /* J = 14 */
(PID.TID 0000.0001)                 1.279982753723478E+10,      /* J = 15 */
(PID.TID 0000.0001)                 1.112489499673432E+10       /* J = 16 */
(PID.TID 0000.0001)     ;
(PID.TID 0000.0001) rAs =  /* rAs(:,1,:,1) ( units: m^2 ) */
(PID.TID 0000.0001)    20 @  3.435414629417918E+10              /* I =  1: 20 */
(PID.TID 0000.0001)     ;
(PID.TID 0000.0001) rAs =  /* rAs(1,:,1,:) ( units: m^2 ) */
(PID.TID 0000.0001)                 3.435414629417918E+10,      /* J =  1 */
(PID.TID 0000.0001)                 3.309167746093097E+10,      /* J =  2 */
(PID.TID 0000.0001)                 3.178889151607872E+10,      /* J =  3 */
(PID.TID 0000.0001)                 3.044737570361747E+10,      /* J =  4 */
(PID.TID 0000.0001)                 2.906876445392020E+10,      /* J =  5 */
(PID.TID 0000.0001)                 2.765473739243563E+10,      /* J =  6 */
(PID.TID 0000.0001)                 2.620701729332415E+10,      /* J =  7 */
(PID.TID 0000.0001)                 2.472736798052209E+10,      /* J =  8 */
(PID.TID 0000.0001)                 2.321759217879512E+10,      /* J =  9 */
(PID.TID 0000.0001)                 2.167952931739416E+10,      /* J = 10 */
(PID.TID 0000.0001)                 2.011505328899539E+10,      /* J = 11 */
(PID.TID 0000.0001)                 1.852607016665020E+10,      /* J = 12 */
(PID.TID 0000.0001)                 1.691451588152944E+10,      /* J = 13 */
(PID.TID 0000.0001)                 1.528235386428863E+10,      /* J = 14 */
(PID.TID 0000.0001)                 1.363157265293026E+10,      /* J = 15 */
(PID.TID 0000.0001)                 1.196418347007692E+10       /* J = 16 */
(PID.TID 0000.0001)     ;
(PID.TID 0000.0001) globalArea = /* Integrated horizontal Area (m^2) */
(PID.TID 0000.0001)                 3.562528105304877E+12
(PID.TID 0000.0001)     ;
(PID.TID 0000.0001) // =======================================================
(PID.TID 0000.0001) // End of Model config. summary
(PID.TID 0000.0001) // =======================================================
(PID.TID 0000.0001) 
(PID.TID 0000.0001) == Packages configuration : Check & print summary ==
(PID.TID 0000.0001) 
(PID.TID 0000.0001) KPP_CHECK: #define ALLOW_KPP
(PID.TID 0000.0001) GMREDI_CHECK: #define GMREDI
(PID.TID 0000.0001) GM_AdvForm =     /* if FALSE => use SkewFlux Form */
(PID.TID 0000.0001)                   F
(PID.TID 0000.0001)     ;
(PID.TID 0000.0001) GM_InMomAsStress = /* if TRUE => apply as Eddy Stress */
(PID.TID 0000.0001)                   F
(PID.TID 0000.0001)     ;
(PID.TID 0000.0001) GM_AdvSeparate = /* Calc Bolus & Euler Adv. separately */
(PID.TID 0000.0001)                   F
(PID.TID 0000.0001)     ;
(PID.TID 0000.0001) GM_ExtraDiag =   /* Tensor Extra Diag (line 1&2) non 0 */
(PID.TID 0000.0001)                   F
(PID.TID 0000.0001)     ;
(PID.TID 0000.0001) GM_isopycK =    /* Background Isopyc. Diffusivity [m^2/s] */
(PID.TID 0000.0001)                 1.000000000000000E+03
(PID.TID 0000.0001)     ;
(PID.TID 0000.0001) GM_skewflx*K =  /* Background GM_SkewFlx Diffusivity [m^2/s] */
(PID.TID 0000.0001)                 1.000000000000000E+03
(PID.TID 0000.0001)     ;
(PID.TID 0000.0001) GM_advec*K =    /* Backg. GM-Advec(=Bolus) Diffusivity [m^2/s]*/
(PID.TID 0000.0001)                 0.000000000000000E+00
(PID.TID 0000.0001)     ;
(PID.TID 0000.0001) GM_Kmin_horiz = /* Minimum Horizontal Diffusivity [m^2/s] */
(PID.TID 0000.0001)                 5.000000000000000E+01
(PID.TID 0000.0001)     ;
(PID.TID 0000.0001) GM_Visbeck_alpha = /* Visbeck alpha coeff. [-] */
(PID.TID 0000.0001)                 0.000000000000000E+00
(PID.TID 0000.0001)     ;
(PID.TID 0000.0001) GM_Small_Number =  /* epsilon used in slope calc */
(PID.TID 0000.0001)                 9.999999999999999E-21
(PID.TID 0000.0001)     ;
(PID.TID 0000.0001) GM_slopeSqCutoff = /* Slope^2 cut-off value */
(PID.TID 0000.0001)                 1.000000000000000E+08
(PID.TID 0000.0001)     ;
(PID.TID 0000.0001) GM_taper_scheme =  /* Type of Tapering/Clipping scheme */
(PID.TID 0000.0001)               'dm95                                    '
(PID.TID 0000.0001)     ;
(PID.TID 0000.0001) GM_maxSlope =  /* Maximum Slope (Tapering/Clipping) */
(PID.TID 0000.0001)                 1.000000000000000E-02
(PID.TID 0000.0001)     ;
(PID.TID 0000.0001) GM_facTrL2dz = /* Minimum Trans.Layer Thick. (factor of dz) */
(PID.TID 0000.0001)                 1.000000000000000E+00
(PID.TID 0000.0001)     ;
(PID.TID 0000.0001) GM_facTrL2ML = /* Max.Trans.Layer Thick. (factor of MxL Depth)*/
(PID.TID 0000.0001)                 5.000000000000000E+00
(PID.TID 0000.0001)     ;
(PID.TID 0000.0001) GM_maxTransLay = /* Maximum Transition Layer Thickness [m] */
(PID.TID 0000.0001)                 5.000000000000000E+02
(PID.TID 0000.0001)     ;
(PID.TID 0000.0001) GM_UseBVP = /* if TRUE => use bvp a la Ferrari et al. (2010) */
(PID.TID 0000.0001)                   F
(PID.TID 0000.0001)     ;
(PID.TID 0000.0001) GM_BVP_ModeNumber = /* Vertical mode number for BVP wave speed */
(PID.TID 0000.0001)                       1
(PID.TID 0000.0001)     ;
(PID.TID 0000.0001) GM_BVP_cMin = /* Minimum wave speed for BVP [m/s] */
(PID.TID 0000.0001)                 1.000000000000000E-01
(PID.TID 0000.0001)     ;
(PID.TID 0000.0001) GM_useSubMeso = /* if TRUE => use Sub-Meso param. (B.Fox-Kemper) */
(PID.TID 0000.0001)                   F
(PID.TID 0000.0001)     ;
(PID.TID 0000.0001) subMeso_Ceff = /* efficiency coeff. of Mixed-Layer Eddies [-] */
(PID.TID 0000.0001)                 7.000000000000001E-02
(PID.TID 0000.0001)     ;
(PID.TID 0000.0001) subMeso_invTau = /* inverse of Sub-Meso mixing time-scale [/s] */
(PID.TID 0000.0001)                 2.000000000000000E-06
(PID.TID 0000.0001)     ;
(PID.TID 0000.0001) subMeso_LfMin = /* minimum length-scale "Lf" [m] */
(PID.TID 0000.0001)                 1.000000000000000E+03
(PID.TID 0000.0001)     ;
(PID.TID 0000.0001) subMeso_Lmax = /* maximum grid-scale length [m] */
(PID.TID 0000.0001)                 1.100000000000000E+05
(PID.TID 0000.0001)     ;
(PID.TID 0000.0001) SEAICE_CHECK: #define ALLOW_SEAICE
(PID.TID 0000.0001) CTRL_CHECK: ctrl package
(PID.TID 0000.0001) COST_CHECK: cost package
(PID.TID 0000.0001) GRDCHK_CHECK: grdchk package
(PID.TID 0000.0001) GAD_CHECK: #define ALLOW_GENERIC_ADVDIFF
(PID.TID 0000.0001) // =======================================================
(PID.TID 0000.0001) // CONFIG_CHECK : Normal End
(PID.TID 0000.0001) // =======================================================
(PID.TID 0000.0001) 
(PID.TID 0000.0001) INI_CG2D: CG2D normalisation factor =  1.6094939840939192E-04
(PID.TID 0000.0001) 
(PID.TID 0000.0001) Start initial hydrostatic pressure computation
(PID.TID 0000.0001) Pressure is predetermined for buoyancyRelation OCEANIC
(PID.TID 0000.0001) 
(PID.TID 0000.0001) // =======================================================
(PID.TID 0000.0001) // Begin MONITOR dynamic field statistics
(PID.TID 0000.0001) // =======================================================
(PID.TID 0000.0001) %MON time_tsnumber                =                     0
(PID.TID 0000.0001) %MON time_secondsf                =   0.0000000000000E+00
(PID.TID 0000.0001) %MON dynstat_eta_max              =   0.0000000000000E+00
(PID.TID 0000.0001) %MON dynstat_eta_min              =   0.0000000000000E+00
(PID.TID 0000.0001) %MON dynstat_eta_mean             =   0.0000000000000E+00
(PID.TID 0000.0001) %MON dynstat_eta_sd               =   0.0000000000000E+00
(PID.TID 0000.0001) %MON dynstat_eta_del2             =   0.0000000000000E+00
(PID.TID 0000.0001) %MON dynstat_uvel_max             =   0.0000000000000E+00
(PID.TID 0000.0001) %MON dynstat_uvel_min             =   0.0000000000000E+00
(PID.TID 0000.0001) %MON dynstat_uvel_mean            =   0.0000000000000E+00
(PID.TID 0000.0001) %MON dynstat_uvel_sd              =   0.0000000000000E+00
(PID.TID 0000.0001) %MON dynstat_uvel_del2            =   0.0000000000000E+00
(PID.TID 0000.0001) %MON dynstat_vvel_max             =   0.0000000000000E+00
(PID.TID 0000.0001) %MON dynstat_vvel_min             =   0.0000000000000E+00
(PID.TID 0000.0001) %MON dynstat_vvel_mean            =   0.0000000000000E+00
(PID.TID 0000.0001) %MON dynstat_vvel_sd              =   0.0000000000000E+00
(PID.TID 0000.0001) %MON dynstat_vvel_del2            =   0.0000000000000E+00
(PID.TID 0000.0001) %MON dynstat_wvel_max             =  -0.0000000000000E+00
(PID.TID 0000.0001) %MON dynstat_wvel_min             =  -0.0000000000000E+00
(PID.TID 0000.0001) %MON dynstat_wvel_mean            =   0.0000000000000E+00
(PID.TID 0000.0001) %MON dynstat_wvel_sd              =   0.0000000000000E+00
(PID.TID 0000.0001) %MON dynstat_wvel_del2            =   0.0000000000000E+00
(PID.TID 0000.0001) %MON dynstat_theta_max            =   1.3333076477051E+01
(PID.TID 0000.0001) %MON dynstat_theta_min            =  -1.4103618860245E+00
(PID.TID 0000.0001) %MON dynstat_theta_mean           =   3.1168426975828E+00
(PID.TID 0000.0001) %MON dynstat_theta_sd             =   1.4047681849177E+00
(PID.TID 0000.0001) %MON dynstat_theta_del2           =   9.5049819722560E-03
(PID.TID 0000.0001) %MON dynstat_salt_max             =   3.5450622558594E+01
(PID.TID 0000.0001) %MON dynstat_salt_min             =   3.0128698348999E+01
(PID.TID 0000.0001) %MON dynstat_salt_mean            =   3.4759355674691E+01
(PID.TID 0000.0001) %MON dynstat_salt_sd              =   4.4306214753982E-01
(PID.TID 0000.0001) %MON dynstat_salt_del2            =   3.6452478048952E-03
(PID.TID 0000.0001) %MON forcing_qnet_max             =   0.0000000000000E+00
(PID.TID 0000.0001) %MON forcing_qnet_min             =   0.0000000000000E+00
(PID.TID 0000.0001) %MON forcing_qnet_mean            =   0.0000000000000E+00
(PID.TID 0000.0001) %MON forcing_qnet_sd              =   0.0000000000000E+00
(PID.TID 0000.0001) %MON forcing_qnet_del2            =   0.0000000000000E+00
(PID.TID 0000.0001) %MON forcing_qsw_max              =   0.0000000000000E+00
(PID.TID 0000.0001) %MON forcing_qsw_min              =   0.0000000000000E+00
(PID.TID 0000.0001) %MON forcing_qsw_mean             =   0.0000000000000E+00
(PID.TID 0000.0001) %MON forcing_qsw_sd               =   0.0000000000000E+00
(PID.TID 0000.0001) %MON forcing_qsw_del2             =   0.0000000000000E+00
(PID.TID 0000.0001) %MON forcing_empmr_max            =   0.0000000000000E+00
(PID.TID 0000.0001) %MON forcing_empmr_min            =   0.0000000000000E+00
(PID.TID 0000.0001) %MON forcing_empmr_mean           =   0.0000000000000E+00
(PID.TID 0000.0001) %MON forcing_empmr_sd             =   0.0000000000000E+00
(PID.TID 0000.0001) %MON forcing_empmr_del2           =   0.0000000000000E+00
(PID.TID 0000.0001) %MON forcing_fu_max               =   0.0000000000000E+00
(PID.TID 0000.0001) %MON forcing_fu_min               =   0.0000000000000E+00
(PID.TID 0000.0001) %MON forcing_fu_mean              =   0.0000000000000E+00
(PID.TID 0000.0001) %MON forcing_fu_sd                =   0.0000000000000E+00
(PID.TID 0000.0001) %MON forcing_fu_del2              =   0.0000000000000E+00
(PID.TID 0000.0001) %MON forcing_fv_max               =   0.0000000000000E+00
(PID.TID 0000.0001) %MON forcing_fv_min               =   0.0000000000000E+00
(PID.TID 0000.0001) %MON forcing_fv_mean              =   0.0000000000000E+00
(PID.TID 0000.0001) %MON forcing_fv_sd                =   0.0000000000000E+00
(PID.TID 0000.0001) %MON forcing_fv_del2              =   0.0000000000000E+00
(PID.TID 0000.0001) %MON advcfl_uvel_max              =   0.0000000000000E+00
(PID.TID 0000.0001) %MON advcfl_vvel_max              =   0.0000000000000E+00
(PID.TID 0000.0001) %MON advcfl_wvel_max              =   0.0000000000000E+00
(PID.TID 0000.0001) %MON advcfl_W_hf_max              =   0.0000000000000E+00
(PID.TID 0000.0001) %MON pe_b_mean                    =   0.0000000000000E+00
(PID.TID 0000.0001) %MON ke_max                       =   0.0000000000000E+00
(PID.TID 0000.0001) %MON ke_mean                      =   0.0000000000000E+00
(PID.TID 0000.0001) %MON ke_vol                       =   5.3036189546438E+15
(PID.TID 0000.0001) %MON vort_r_min                   =   0.0000000000000E+00
(PID.TID 0000.0001) %MON vort_r_max                   =   0.0000000000000E+00
(PID.TID 0000.0001) %MON vort_a_mean                  =   1.2067278094140E-04
(PID.TID 0000.0001) %MON vort_a_sd                    =   8.8115075987134E-06
(PID.TID 0000.0001) %MON vort_p_mean                  =   1.7734843892147E-04
(PID.TID 0000.0001) %MON vort_p_sd                    =   1.1689234854242E-04
(PID.TID 0000.0001) %MON surfExpan_theta_mean         =   0.0000000000000E+00
(PID.TID 0000.0001) %MON surfExpan_salt_mean          =   0.0000000000000E+00
(PID.TID 0000.0001) // =======================================================
(PID.TID 0000.0001) // End MONITOR dynamic field statistics
(PID.TID 0000.0001) // =======================================================
(PID.TID 0000.0001) // =======================================================
(PID.TID 0000.0001) // Begin MONITOR SEAICE statistics
(PID.TID 0000.0001) // =======================================================
(PID.TID 0000.0001) %MON seaice_tsnumber              =                     0
(PID.TID 0000.0001) %MON seaice_time_sec              =   0.0000000000000E+00
(PID.TID 0000.0001) %MON seaice_uice_max              =   0.0000000000000E+00
(PID.TID 0000.0001) %MON seaice_uice_min              =   0.0000000000000E+00
(PID.TID 0000.0001) %MON seaice_uice_mean             =   0.0000000000000E+00
(PID.TID 0000.0001) %MON seaice_uice_sd               =   0.0000000000000E+00
(PID.TID 0000.0001) %MON seaice_uice_del2             =   0.0000000000000E+00
(PID.TID 0000.0001) %MON seaice_vice_max              =   0.0000000000000E+00
(PID.TID 0000.0001) %MON seaice_vice_min              =   0.0000000000000E+00
(PID.TID 0000.0001) %MON seaice_vice_mean             =   0.0000000000000E+00
(PID.TID 0000.0001) %MON seaice_vice_sd               =   0.0000000000000E+00
(PID.TID 0000.0001) %MON seaice_vice_del2             =   0.0000000000000E+00
(PID.TID 0000.0001) %MON seaice_area_max              =   1.0000000000000E+00
(PID.TID 0000.0001) %MON seaice_area_min              =   1.0000000000000E+00
(PID.TID 0000.0001) %MON seaice_area_mean             =   1.0000000000000E+00
(PID.TID 0000.0001) %MON seaice_area_sd               =   0.0000000000000E+00
(PID.TID 0000.0001) %MON seaice_area_del2             =   0.0000000000000E+00
(PID.TID 0000.0001) %MON seaice_heff_max              =   1.0000000000000E+00
(PID.TID 0000.0001) %MON seaice_heff_min              =   1.0000000000000E+00
(PID.TID 0000.0001) %MON seaice_heff_mean             =   1.0000000000000E+00
(PID.TID 0000.0001) %MON seaice_heff_sd               =   0.0000000000000E+00
(PID.TID 0000.0001) %MON seaice_heff_del2             =   0.0000000000000E+00
(PID.TID 0000.0001) %MON seaice_hsnow_max             =   2.0000000000000E-01
(PID.TID 0000.0001) %MON seaice_hsnow_min             =   2.0000000000000E-01
(PID.TID 0000.0001) %MON seaice_hsnow_mean            =   2.0000000000000E-01
(PID.TID 0000.0001) %MON seaice_hsnow_sd              =   0.0000000000000E+00
(PID.TID 0000.0001) %MON seaice_hsnow_del2            =   0.0000000000000E+00
(PID.TID 0000.0001) %MON seaice_hsalt_max             =   9.5205094642639E+03
(PID.TID 0000.0001) %MON seaice_hsalt_min             =   8.2251346492767E+03
(PID.TID 0000.0001) %MON seaice_hsalt_mean            =   9.0515124880142E+03
(PID.TID 0000.0001) %MON seaice_hsalt_sd              =   3.2399715379512E+02
(PID.TID 0000.0001) %MON seaice_hsalt_del2            =   6.5705700303689E+00
(PID.TID 0000.0001) // =======================================================
(PID.TID 0000.0001) // End MONITOR SEAICE statistics
(PID.TID 0000.0001) // =======================================================
(PID.TID 0000.0001) // =======================================================
(PID.TID 0000.0001) // Begin MONITOR EXF statistics
(PID.TID 0000.0001) // =======================================================
(PID.TID 0000.0001) %MON exf_tsnumber                 =                     0
(PID.TID 0000.0001) %MON exf_time_sec                 =   0.0000000000000E+00
(PID.TID 0000.0001) %MON exf_ustress_max              =   6.3903775845771E-02
(PID.TID 0000.0001) %MON exf_ustress_min              =  -9.5324050318348E-02
(PID.TID 0000.0001) %MON exf_ustress_mean             =   2.2585053845627E-02
(PID.TID 0000.0001) %MON exf_ustress_sd               =   2.7275868295507E-02
(PID.TID 0000.0001) %MON exf_ustress_del2             =   7.3810540854857E-04
(PID.TID 0000.0001) %MON exf_vstress_max              =   5.4708944127586E-02
(PID.TID 0000.0001) %MON exf_vstress_min              =  -6.2488440618747E-02
(PID.TID 0000.0001) %MON exf_vstress_mean             =  -5.5966769927411E-03
(PID.TID 0000.0001) %MON exf_vstress_sd               =   1.5564946659994E-02
(PID.TID 0000.0001) %MON exf_vstress_del2             =   5.2446640646997E-04
(PID.TID 0000.0001) %MON exf_hflux_max                =   7.3527440806105E+02
(PID.TID 0000.0001) %MON exf_hflux_min                =   1.1759678238206E+02
(PID.TID 0000.0001) %MON exf_hflux_mean               =   2.8333404528937E+02
(PID.TID 0000.0001) %MON exf_hflux_sd                 =   1.5742193163805E+02
(PID.TID 0000.0001) %MON exf_hflux_del2               =   6.4653768360360E+00
(PID.TID 0000.0001) %MON exf_sflux_max                =   5.5100078770193E-08
(PID.TID 0000.0001) %MON exf_sflux_min                =  -6.0802354200242E-08
(PID.TID 0000.0001) %MON exf_sflux_mean               =  -6.5150265743063E-09
(PID.TID 0000.0001) %MON exf_sflux_sd                 =   2.6751431080853E-08
(PID.TID 0000.0001) %MON exf_sflux_del2               =   1.1209417768681E-09
(PID.TID 0000.0001) %MON exf_uwind_max                =   6.4643745422363E+00
(PID.TID 0000.0001) %MON exf_uwind_min                =  -6.8372380733490E+00
(PID.TID 0000.0001) %MON exf_uwind_mean               =   2.7697727336031E+00
(PID.TID 0000.0001) %MON exf_uwind_sd                 =   2.9900402496951E+00
(PID.TID 0000.0001) %MON exf_uwind_del2               =   1.6625569786913E-01
(PID.TID 0000.0001) %MON exf_vwind_max                =   3.9240682125092E+00
(PID.TID 0000.0001) %MON exf_vwind_min                =  -6.0197033882141E+00
(PID.TID 0000.0001) %MON exf_vwind_mean               =  -7.6089868124963E-01
(PID.TID 0000.0001) %MON exf_vwind_sd                 =   1.7293437592941E+00
(PID.TID 0000.0001) %MON exf_vwind_del2               =   1.5097945843360E-01
(PID.TID 0000.0001) %MON exf_wspeed_max               =   7.8832820454477E+00
(PID.TID 0000.0001) %MON exf_wspeed_min               =   4.6035219539401E-01
(PID.TID 0000.0001) %MON exf_wspeed_mean              =   4.1981217095273E+00
(PID.TID 0000.0001) %MON exf_wspeed_sd                =   1.5991724245810E+00
(PID.TID 0000.0001) %MON exf_wspeed_del2              =   2.3646792253828E-01
(PID.TID 0000.0001) %MON exf_atemp_max                =   2.8188281250000E+02
(PID.TID 0000.0001) %MON exf_atemp_min                =   2.3646176910400E+02
(PID.TID 0000.0001) %MON exf_atemp_mean               =   2.6394605784141E+02
(PID.TID 0000.0001) %MON exf_atemp_sd                 =   1.1983417694612E+01
(PID.TID 0000.0001) %MON exf_atemp_del2               =   7.0525892037380E-01
(PID.TID 0000.0001) %MON exf_aqh_max                  =   6.3231729436666E-03
(PID.TID 0000.0001) %MON exf_aqh_min                  =   1.6369274817407E-04
(PID.TID 0000.0001) %MON exf_aqh_mean                 =   2.4803629101886E-03
(PID.TID 0000.0001) %MON exf_aqh_sd                   =   1.4265074770275E-03
(PID.TID 0000.0001) %MON exf_aqh_del2                 =   7.6519352415610E-05
(PID.TID 0000.0001) %MON exf_lwflux_max               =   2.0326754555358E+02
(PID.TID 0000.0001) %MON exf_lwflux_min               =   7.1683500197106E+01
(PID.TID 0000.0001) %MON exf_lwflux_mean              =   1.1087529350502E+02
(PID.TID 0000.0001) %MON exf_lwflux_sd                =   3.5154607039034E+01
(PID.TID 0000.0001) %MON exf_lwflux_del2              =   5.3834650635925E+00
(PID.TID 0000.0001) %MON exf_precip_max               =   1.0498766300771E-07
(PID.TID 0000.0001) %MON exf_precip_min               =   2.7359498694368E-10
(PID.TID 0000.0001) %MON exf_precip_mean              =   3.6390080543085E-08
(PID.TID 0000.0001) %MON exf_precip_sd                =   2.0578148171209E-08
(PID.TID 0000.0001) %MON exf_precip_del2              =   1.6835041457522E-09
(PID.TID 0000.0001) %MON exf_snowprecip_max           =   0.0000000000000E+00
(PID.TID 0000.0001) %MON exf_snowprecip_min           =   0.0000000000000E+00
(PID.TID 0000.0001) %MON exf_snowprecip_mean          =   0.0000000000000E+00
(PID.TID 0000.0001) %MON exf_snowprecip_sd            =   0.0000000000000E+00
(PID.TID 0000.0001) %MON exf_snowprecip_del2          =   0.0000000000000E+00
(PID.TID 0000.0001) %MON exf_swflux_max               =  -8.1205755472183E-02
(PID.TID 0000.0001) %MON exf_swflux_min               =  -6.3973114013672E+01
(PID.TID 0000.0001) %MON exf_swflux_mean              =  -2.6453223022948E+01
(PID.TID 0000.0001) %MON exf_swflux_sd                =   1.9625901079469E+01
(PID.TID 0000.0001) %MON exf_swflux_del2              =   8.9569843561739E-02
(PID.TID 0000.0001) %MON exf_evap_max                 =   6.1424286594286E-08
(PID.TID 0000.0001) %MON exf_evap_min                 =   1.1021039945128E-08
(PID.TID 0000.0001) %MON exf_evap_mean                =   2.9875053968778E-08
(PID.TID 0000.0001) %MON exf_evap_sd                  =   9.5466440695483E-09
(PID.TID 0000.0001) %MON exf_evap_del2                =   1.6734130637722E-09
(PID.TID 0000.0001) %MON exf_swdown_max               =   7.1081237792969E+01
(PID.TID 0000.0001) %MON exf_swdown_min               =   9.0228617191315E-02
(PID.TID 0000.0001) %MON exf_swdown_mean              =   2.9392470025498E+01
(PID.TID 0000.0001) %MON exf_swdown_sd                =   2.1806556754965E+01
(PID.TID 0000.0001) %MON exf_swdown_del2              =   8.5622026398184E-01
(PID.TID 0000.0001) %MON exf_lwdown_max               =   3.0567971801758E+02
(PID.TID 0000.0001) %MON exf_lwdown_min               =   1.1599769210815E+02
(PID.TID 0000.0001) %MON exf_lwdown_mean              =   2.2594931695913E+02
(PID.TID 0000.0001) %MON exf_lwdown_sd                =   4.6277429231296E+01
(PID.TID 0000.0001) %MON exf_lwdown_del2              =   8.1741979598658E+00
(PID.TID 0000.0001) %MON exf_apressure_max            =   0.0000000000000E+00
(PID.TID 0000.0001) %MON exf_apressure_min            =   0.0000000000000E+00
(PID.TID 0000.0001) %MON exf_apressure_mean           =   0.0000000000000E+00
(PID.TID 0000.0001) %MON exf_apressure_sd             =   0.0000000000000E+00
(PID.TID 0000.0001) %MON exf_apressure_del2           =   0.0000000000000E+00
(PID.TID 0000.0001) %MON exf_runoff_max               =   0.0000000000000E+00
(PID.TID 0000.0001) %MON exf_runoff_min               =   0.0000000000000E+00
(PID.TID 0000.0001) %MON exf_runoff_mean              =   0.0000000000000E+00
(PID.TID 0000.0001) %MON exf_runoff_sd                =   0.0000000000000E+00
(PID.TID 0000.0001) %MON exf_runoff_del2              =   0.0000000000000E+00
(PID.TID 0000.0001) %MON exf_climsst_max              =   0.0000000000000E+00
(PID.TID 0000.0001) %MON exf_climsst_min              =   0.0000000000000E+00
(PID.TID 0000.0001) %MON exf_climsst_mean             =   0.0000000000000E+00
(PID.TID 0000.0001) %MON exf_climsst_sd               =   0.0000000000000E+00
(PID.TID 0000.0001) %MON exf_climsst_del2             =   0.0000000000000E+00
(PID.TID 0000.0001) %MON exf_climsss_max              =   3.5040330886841E+01
(PID.TID 0000.0001) %MON exf_climsss_min              =   3.0666313171387E+01
(PID.TID 0000.0001) %MON exf_climsss_mean             =   3.3459319600989E+01
(PID.TID 0000.0001) %MON exf_climsss_sd               =   1.0319548925494E+00
(PID.TID 0000.0001) %MON exf_climsss_del2             =   2.6975862895226E-02
(PID.TID 0000.0001) // =======================================================
(PID.TID 0000.0001) // End MONITOR EXF statistics
(PID.TID 0000.0001) // =======================================================
 SEAICE_LSR: Residual Initial Uice,Vice=  5.33908769E-02  2.26724495E-02
 SEAICE_LSR: Residual FrDrift U_fd,V_fd=  9.50591763E+00  1.62192371E+00
 SEAICE_LSR (ipass=   1) iters,dU,Resid=    28  8.33374012E-07  2.11877620E-05
 SEAICE_LSR (ipass=   1) iters,dV,Resid=    58  8.38854279E-07  2.31083275E-05
 SEAICE_LSR: Residual Initial Uice,Vice=  4.19854506E-02  1.88384118E-02
 SEAICE_LSR: Residual FrDrift U_fd,V_fd=  9.36624434E+00  1.61802345E+00
 SEAICE_LSR (ipass=   2) iters,dU,Resid=    28  7.32264205E-07  1.85710830E-05
 SEAICE_LSR (ipass=   2) iters,dV,Resid=    52  8.93361370E-07  2.46028740E-05
(PID.TID 0000.0001) SOLVE_FOR_PRESSURE: putPmEinXvector =    F
 cg2d: Sum(rhs),rhsMax =   5.03069808033274E-16  9.91122157852920E-01
(PID.TID 0000.0001)                    cg2d_init_res =    1.59852054894902E+00
(PID.TID 0000.0001)                       cg2d_iters =    47
(PID.TID 0000.0001)                         cg2d_res =    5.76526659272440E-14
(PID.TID 0000.0001) // =======================================================
(PID.TID 0000.0001) // Begin MONITOR dynamic field statistics
(PID.TID 0000.0001) // =======================================================
(PID.TID 0000.0001) %MON time_tsnumber                =                     1
(PID.TID 0000.0001) %MON time_secondsf                =   3.6000000000000E+03
(PID.TID 0000.0001) %MON dynstat_eta_max              =   2.0635788992029E-01
(PID.TID 0000.0001) %MON dynstat_eta_min              =  -7.9180095085833E-02
(PID.TID 0000.0001) %MON dynstat_eta_mean             =  -7.4098236695499E-17
(PID.TID 0000.0001) %MON dynstat_eta_sd               =   4.6882440009628E-02
(PID.TID 0000.0001) %MON dynstat_eta_del2             =   2.0374700057814E-03
(PID.TID 0000.0001) %MON dynstat_uvel_max             =   1.3189718683036E-02
(PID.TID 0000.0001) %MON dynstat_uvel_min             =  -1.9761328623793E-02
(PID.TID 0000.0001) %MON dynstat_uvel_mean            =  -9.4725826383432E-04
(PID.TID 0000.0001) %MON dynstat_uvel_sd              =   2.8475894604001E-03
(PID.TID 0000.0001) %MON dynstat_uvel_del2            =   1.3605386729824E-04
(PID.TID 0000.0001) %MON dynstat_vvel_max             =   2.0428465431939E-02
(PID.TID 0000.0001) %MON dynstat_vvel_min             =  -1.1377323500173E-02
(PID.TID 0000.0001) %MON dynstat_vvel_mean            =  -1.7096158162083E-03
(PID.TID 0000.0001) %MON dynstat_vvel_sd              =   4.3712426673583E-03
(PID.TID 0000.0001) %MON dynstat_vvel_del2            =   1.0842532282884E-04
(PID.TID 0000.0001) %MON dynstat_wvel_max             =   1.1653036431187E-04
(PID.TID 0000.0001) %MON dynstat_wvel_min             =  -4.2713146464594E-05
(PID.TID 0000.0001) %MON dynstat_wvel_mean            =   6.6730516294807E-22
(PID.TID 0000.0001) %MON dynstat_wvel_sd              =   2.4879745971386E-05
(PID.TID 0000.0001) %MON dynstat_wvel_del2            =   4.3463537341067E-07
(PID.TID 0000.0001) %MON dynstat_theta_max            =   1.3244389842628E+01
(PID.TID 0000.0001) %MON dynstat_theta_min            =  -1.4101961597120E+00
(PID.TID 0000.0001) %MON dynstat_theta_mean           =   3.0804504885519E+00
(PID.TID 0000.0001) %MON dynstat_theta_sd             =   1.4083410942037E+00
(PID.TID 0000.0001) %MON dynstat_theta_del2           =   9.9812155270851E-03
(PID.TID 0000.0001) %MON dynstat_salt_max             =   3.5450777873699E+01
(PID.TID 0000.0001) %MON dynstat_salt_min             =   2.7830207474453E+01
(PID.TID 0000.0001) %MON dynstat_salt_mean            =   3.4748502206542E+01
(PID.TID 0000.0001) %MON dynstat_salt_sd              =   4.9785533797989E-01
(PID.TID 0000.0001) %MON dynstat_salt_del2            =   3.7270350904538E-03
(PID.TID 0000.0001) %MON forcing_qnet_max             =   8.4435910920662E+04
(PID.TID 0000.0001) %MON forcing_qnet_min             =   2.6204514767451E+04
(PID.TID 0000.0001) %MON forcing_qnet_mean            =   6.1585080518861E+04
(PID.TID 0000.0001) %MON forcing_qnet_sd              =   1.7785490723379E+04
(PID.TID 0000.0001) %MON forcing_qnet_del2            =   2.7231054337306E+02
(PID.TID 0000.0001) %MON forcing_qsw_max              =   0.0000000000000E+00
(PID.TID 0000.0001) %MON forcing_qsw_min              =   0.0000000000000E+00
(PID.TID 0000.0001) %MON forcing_qsw_mean             =   0.0000000000000E+00
(PID.TID 0000.0001) %MON forcing_qsw_sd               =   0.0000000000000E+00
(PID.TID 0000.0001) %MON forcing_qsw_del2             =   0.0000000000000E+00
(PID.TID 0000.0001) %MON forcing_empmr_max            =  -7.8376450959210E-02
(PID.TID 0000.0001) %MON forcing_empmr_min            =  -2.5351567266239E-01
(PID.TID 0000.0001) %MON forcing_empmr_mean           =  -1.8439695155167E-01
(PID.TID 0000.0001) %MON forcing_empmr_sd             =   5.3326013439805E-02
(PID.TID 0000.0001) %MON forcing_empmr_del2           =   8.1473481492294E-04
(PID.TID 0000.0001) %MON forcing_fu_max               =   3.0104700986180E-03
(PID.TID 0000.0001) %MON forcing_fu_min               =  -2.8984509345651E-04
(PID.TID 0000.0001) %MON forcing_fu_mean              =   8.4608931831051E-04
(PID.TID 0000.0001) %MON forcing_fu_sd                =   8.2080949056452E-04
(PID.TID 0000.0001) %MON forcing_fu_del2              =   2.1157466138142E-05
(PID.TID 0000.0001) %MON forcing_fv_max               =   1.0219296860638E-03
(PID.TID 0000.0001) %MON forcing_fv_min               =  -1.4976108182939E-03
(PID.TID 0000.0001) %MON forcing_fv_mean              =  -2.4790660423320E-04
(PID.TID 0000.0001) %MON forcing_fv_sd                =   6.5006558477300E-04
(PID.TID 0000.0001) %MON forcing_fv_del2              =   1.2701865483536E-05
(PID.TID 0000.0001) %MON advcfl_uvel_max              =   5.8540459487837E-04
(PID.TID 0000.0001) %MON advcfl_vvel_max              =   3.3069168609673E-04
(PID.TID 0000.0001) %MON advcfl_wvel_max              =   4.1271577984058E-02
(PID.TID 0000.0001) %MON advcfl_W_hf_max              =   2.1699547407778E-02
(PID.TID 0000.0001) %MON pe_b_mean                    =   7.2459153249653E-06
(PID.TID 0000.0001) %MON ke_max                       =   1.5940959208445E-04
(PID.TID 0000.0001) %MON ke_mean                      =   1.2133746311829E-05
(PID.TID 0000.0001) %MON ke_vol                       =   5.3036189546438E+15
(PID.TID 0000.0001) %MON vort_r_min                   =  -1.3728779496580E-07
(PID.TID 0000.0001) %MON vort_r_max                   =   1.1140677097348E-07
(PID.TID 0000.0001) %MON vort_a_mean                  =   1.2067277213448E-04
(PID.TID 0000.0001) %MON vort_a_sd                    =   8.8106506473704E-06
(PID.TID 0000.0001) %MON vort_p_mean                  =   1.7734842597826E-04
(PID.TID 0000.0001) %MON vort_p_sd                    =   1.1691075637767E-04
(PID.TID 0000.0001) %MON surfExpan_theta_mean         =   5.8232992733748E-06
(PID.TID 0000.0001) %MON surfExpan_salt_mean          =  -4.8983288806304E-06
(PID.TID 0000.0001) // =======================================================
(PID.TID 0000.0001) // End MONITOR dynamic field statistics
(PID.TID 0000.0001) // =======================================================
(PID.TID 0000.0001) // =======================================================
(PID.TID 0000.0001) // Begin MONITOR SEAICE statistics
(PID.TID 0000.0001) // =======================================================
(PID.TID 0000.0001) %MON seaice_tsnumber              =                     1
(PID.TID 0000.0001) %MON seaice_time_sec              =   3.6000000000000E+03
(PID.TID 0000.0001) %MON seaice_uice_max              =   1.2041880394472E-02
(PID.TID 0000.0001) %MON seaice_uice_min              =  -1.1593803738261E-03
(PID.TID 0000.0001) %MON seaice_uice_mean             =   3.3843572732420E-03
(PID.TID 0000.0001) %MON seaice_uice_sd               =   3.2832379622581E-03
(PID.TID 0000.0001) %MON seaice_uice_del2             =   8.4629864552566E-05
(PID.TID 0000.0001) %MON seaice_vice_max              =   4.0877187442550E-03
(PID.TID 0000.0001) %MON seaice_vice_min              =  -5.9904432731756E-03
(PID.TID 0000.0001) %MON seaice_vice_mean             =  -9.9162641693280E-04
(PID.TID 0000.0001) %MON seaice_vice_sd               =   2.6002623390920E-03
(PID.TID 0000.0001) %MON seaice_vice_del2             =   5.0807461934142E-05
(PID.TID 0000.0001) %MON seaice_area_max              =   1.0000000000000E+00
(PID.TID 0000.0001) %MON seaice_area_min              =   0.0000000000000E+00
(PID.TID 0000.0001) %MON seaice_area_mean             =   8.5220746576225E-01
(PID.TID 0000.0001) %MON seaice_area_sd               =   3.4256223966367E-01
(PID.TID 0000.0001) %MON seaice_area_del2             =   2.8523242778589E-02
(PID.TID 0000.0001) %MON seaice_heff_max              =   6.8993419603172E-01
(PID.TID 0000.0001) %MON seaice_heff_min              =   6.2019446988033E-02
(PID.TID 0000.0001) %MON seaice_heff_mean             =   3.0459360944458E-01
(PID.TID 0000.0001) %MON seaice_heff_sd               =   1.8775763084216E-01
(PID.TID 0000.0001) %MON seaice_heff_del2             =   2.8751103278895E-03
(PID.TID 0000.0001) %MON seaice_hsnow_max             =   2.0039559125982E-01
(PID.TID 0000.0001) %MON seaice_hsnow_min             =   2.1988713023030E-02
(PID.TID 0000.0001) %MON seaice_hsnow_mean            =   1.0642959972279E-01
(PID.TID 0000.0001) %MON seaice_hsnow_sd              =   6.4006187816867E-02
(PID.TID 0000.0001) %MON seaice_hsnow_del2            =   1.0292502550327E-03
(PID.TID 0000.0001) %MON seaice_hsalt_max             =   6.1745761021188E+03
(PID.TID 0000.0001) %MON seaice_hsalt_min             =   0.0000000000000E+00
(PID.TID 0000.0001) %MON seaice_hsalt_mean            =   2.4301214579077E+03
(PID.TID 0000.0001) %MON seaice_hsalt_sd              =   1.8705686739932E+03
(PID.TID 0000.0001) %MON seaice_hsalt_del2            =   2.8445018873532E+01
(PID.TID 0000.0001) // =======================================================
(PID.TID 0000.0001) // End MONITOR SEAICE statistics
(PID.TID 0000.0001) // =======================================================
(PID.TID 0000.0001) // =======================================================
(PID.TID 0000.0001) // Begin MONITOR EXF statistics
(PID.TID 0000.0001) // =======================================================
(PID.TID 0000.0001) %MON exf_tsnumber                 =                     1
(PID.TID 0000.0001) %MON exf_time_sec                 =   3.6000000000000E+03
(PID.TID 0000.0001) %MON exf_ustress_max              =   5.2952831923582E-02
(PID.TID 0000.0001) %MON exf_ustress_min              =  -9.4100145562524E-02
(PID.TID 0000.0001) %MON exf_ustress_mean             =   1.8780339055193E-02
(PID.TID 0000.0001) %MON exf_ustress_sd               =   2.4198171578184E-02
(PID.TID 0000.0001) %MON exf_ustress_del2             =   7.1859186554732E-04
(PID.TID 0000.0001) %MON exf_vstress_max              =   5.4006717282400E-02
(PID.TID 0000.0001) %MON exf_vstress_min              =  -5.9442497997783E-02
(PID.TID 0000.0001) %MON exf_vstress_mean             =  -5.6347469663660E-03
(PID.TID 0000.0001) %MON exf_vstress_sd               =   1.4601543658198E-02
(PID.TID 0000.0001) %MON exf_vstress_del2             =   5.1355300252823E-04
(PID.TID 0000.0001) %MON exf_hflux_max                =   6.4939690028609E+02
(PID.TID 0000.0001) %MON exf_hflux_min                =  -3.9975789645421E+01
(PID.TID 0000.0001) %MON exf_hflux_mean               =   1.6958159936246E+02
(PID.TID 0000.0001) %MON exf_hflux_sd                 =   1.8253047279000E+02
(PID.TID 0000.0001) %MON exf_hflux_del2               =   5.5975205767150E+00
(PID.TID 0000.0001) %MON exf_sflux_max                =   4.2969173269911E-08
(PID.TID 0000.0001) %MON exf_sflux_min                =  -8.3459440413016E-08
(PID.TID 0000.0001) %MON exf_sflux_mean               =  -2.3543253415656E-08
(PID.TID 0000.0001) %MON exf_sflux_sd                 =   3.1091682465290E-08
(PID.TID 0000.0001) %MON exf_sflux_del2               =   9.8390928514308E-10
(PID.TID 0000.0001) %MON exf_uwind_max                =   6.4648819946852E+00
(PID.TID 0000.0001) %MON exf_uwind_min                =  -6.8372648550513E+00
(PID.TID 0000.0001) %MON exf_uwind_mean               =   2.7698802859475E+00
(PID.TID 0000.0001) %MON exf_uwind_sd                 =   2.9903162155877E+00
(PID.TID 0000.0001) %MON exf_uwind_del2               =   8.0271726639726E-02
(PID.TID 0000.0001) %MON exf_vwind_max                =   3.9240983933048E+00
(PID.TID 0000.0001) %MON exf_vwind_min                =  -6.0187974783892E+00
(PID.TID 0000.0001) %MON exf_vwind_mean               =  -7.6028090815952E-01
(PID.TID 0000.0001) %MON exf_vwind_sd                 =   1.7294518007626E+00
(PID.TID 0000.0001) %MON exf_vwind_del2               =   4.8609855321605E-02
(PID.TID 0000.0001) %MON exf_wspeed_max               =   7.8833202965791E+00
(PID.TID 0000.0001) %MON exf_wspeed_min               =   4.6010935417159E-01
(PID.TID 0000.0001) %MON exf_wspeed_mean              =   4.1982241536133E+00
(PID.TID 0000.0001) %MON exf_wspeed_sd                =   1.5994287774633E+00
(PID.TID 0000.0001) %MON exf_wspeed_del2              =   2.3646545747982E-01
(PID.TID 0000.0001) %MON exf_atemp_max                =   2.8188110034713E+02
(PID.TID 0000.0001) %MON exf_atemp_min                =   2.3645730413635E+02
(PID.TID 0000.0001) %MON exf_atemp_mean               =   2.6394141375606E+02
(PID.TID 0000.0001) %MON exf_atemp_sd                 =   1.1984878226631E+01
(PID.TID 0000.0001) %MON exf_atemp_del2               =   7.0555651533612E-01
(PID.TID 0000.0001) %MON exf_aqh_max                  =   6.3224764028055E-03
(PID.TID 0000.0001) %MON exf_aqh_min                  =   1.6359864467567E-04
(PID.TID 0000.0001) %MON exf_aqh_mean                 =   2.4798025537840E-03
(PID.TID 0000.0001) %MON exf_aqh_sd                   =   1.4264043737180E-03
(PID.TID 0000.0001) %MON exf_aqh_del2                 =   7.6495489306751E-05
(PID.TID 0000.0001) %MON exf_lwflux_max               =   1.8955025039784E+02
(PID.TID 0000.0001) %MON exf_lwflux_min               =   3.6680173688751E+01
(PID.TID 0000.0001) %MON exf_lwflux_mean              =   8.6177446937165E+01
(PID.TID 0000.0001) %MON exf_lwflux_sd                =   4.1679671092291E+01
(PID.TID 0000.0001) %MON exf_lwflux_del2              =   4.6591263317770E+00
(PID.TID 0000.0001) %MON exf_precip_max               =   1.0498904445033E-07
(PID.TID 0000.0001) %MON exf_precip_min               =   2.7346106047101E-10
(PID.TID 0000.0001) %MON exf_precip_mean              =   3.6390069699050E-08
(PID.TID 0000.0001) %MON exf_precip_sd                =   2.0578598603627E-08
(PID.TID 0000.0001) %MON exf_precip_del2              =   1.6837812825023E-09
(PID.TID 0000.0001) %MON exf_snowprecip_max           =   0.0000000000000E+00
(PID.TID 0000.0001) %MON exf_snowprecip_min           =   0.0000000000000E+00
(PID.TID 0000.0001) %MON exf_snowprecip_mean          =   0.0000000000000E+00
(PID.TID 0000.0001) %MON exf_snowprecip_sd            =   0.0000000000000E+00
(PID.TID 0000.0001) %MON exf_snowprecip_del2          =   0.0000000000000E+00
(PID.TID 0000.0001) %MON exf_swflux_max               =  -8.1206038349965E-02
(PID.TID 0000.0001) %MON exf_swflux_min               =  -6.3991984364244E+01
(PID.TID 0000.0001) %MON exf_swflux_mean              =  -2.6463755238823E+01
(PID.TID 0000.0001) %MON exf_swflux_sd                =   1.9629736696482E+01
(PID.TID 0000.0001) %MON exf_swflux_del2              =   8.9598199762134E-02
(PID.TID 0000.0001) %MON exf_evap_max                 =   4.9292718383074E-08
(PID.TID 0000.0001) %MON exf_evap_min                 =  -3.9190349073041E-09
(PID.TID 0000.0001) %MON exf_evap_mean                =   1.2846816283394E-08
(PID.TID 0000.0001) %MON exf_evap_sd                  =   1.1895157212770E-08
(PID.TID 0000.0001) %MON exf_evap_del2                =   1.1143208209926E-09
(PID.TID 0000.0001) %MON exf_swdown_max               =   7.1102204849160E+01
(PID.TID 0000.0001) %MON exf_swdown_min               =   9.0228931499961E-02
(PID.TID 0000.0001) %MON exf_swdown_mean              =   2.9404172487581E+01
(PID.TID 0000.0001) %MON exf_swdown_sd                =   2.1810818551646E+01
(PID.TID 0000.0001) %MON exf_swdown_del2              =   8.5666663591612E-01
(PID.TID 0000.0001) %MON exf_lwdown_max               =   3.0567089193375E+02
(PID.TID 0000.0001) %MON exf_lwdown_min               =   1.1598258522951E+02
(PID.TID 0000.0001) %MON exf_lwdown_mean              =   2.2593360963007E+02
(PID.TID 0000.0001) %MON exf_lwdown_sd                =   4.6281398610271E+01
(PID.TID 0000.0001) %MON exf_lwdown_del2              =   8.1732435942730E+00
(PID.TID 0000.0001) %MON exf_apressure_max            =   0.0000000000000E+00
(PID.TID 0000.0001) %MON exf_apressure_min            =   0.0000000000000E+00
(PID.TID 0000.0001) %MON exf_apressure_mean           =   0.0000000000000E+00
(PID.TID 0000.0001) %MON exf_apressure_sd             =   0.0000000000000E+00
(PID.TID 0000.0001) %MON exf_apressure_del2           =   0.0000000000000E+00
(PID.TID 0000.0001) %MON exf_runoff_max               =   0.0000000000000E+00
(PID.TID 0000.0001) %MON exf_runoff_min               =   0.0000000000000E+00
(PID.TID 0000.0001) %MON exf_runoff_mean              =   0.0000000000000E+00
(PID.TID 0000.0001) %MON exf_runoff_sd                =   0.0000000000000E+00
(PID.TID 0000.0001) %MON exf_runoff_del2              =   0.0000000000000E+00
(PID.TID 0000.0001) %MON exf_climsst_max              =   0.0000000000000E+00
(PID.TID 0000.0001) %MON exf_climsst_min              =   0.0000000000000E+00
(PID.TID 0000.0001) %MON exf_climsst_mean             =   0.0000000000000E+00
(PID.TID 0000.0001) %MON exf_climsst_sd               =   0.0000000000000E+00
(PID.TID 0000.0001) %MON exf_climsst_del2             =   0.0000000000000E+00
(PID.TID 0000.0001) %MON exf_climsss_max              =   3.5040515633880E+01
(PID.TID 0000.0001) %MON exf_climsss_min              =   3.0667072499385E+01
(PID.TID 0000.0001) %MON exf_climsss_mean             =   3.3459840934468E+01
(PID.TID 0000.0001) %MON exf_climsss_sd               =   1.0318832207269E+00
(PID.TID 0000.0001) %MON exf_climsss_del2             =   2.6974851931992E-02
(PID.TID 0000.0001) // =======================================================
(PID.TID 0000.0001) // End MONITOR EXF statistics
(PID.TID 0000.0001) // =======================================================
 SEAICE_LSR: Residual Initial Uice,Vice=  4.03773545E-02  1.85462073E-02
 SEAICE_LSR: Residual FrDrift U_fd,V_fd=  7.06394157E+00  8.89742987E-01
 SEAICE_LSR (ipass=   1) iters,dU,Resid=    32  8.03450991E-07  1.11445001E-05
 SEAICE_LSR (ipass=   1) iters,dV,Resid=    66  9.49257447E-07  1.59144375E-05
 SEAICE_LSR: Residual Initial Uice,Vice=  3.76195666E-02  1.89863014E-02
 SEAICE_LSR: Residual FrDrift U_fd,V_fd=  5.80464506E+00  7.82749267E-01
 SEAICE_LSR (ipass=   2) iters,dU,Resid=    30  8.89463876E-07  2.25941335E-05
 SEAICE_LSR (ipass=   2) iters,dV,Resid=    82  8.41230206E-07  1.08201617E-05
 cg2d: Sum(rhs),rhsMax =   2.92127433354494E-15  1.19272630614451E+00
(PID.TID 0000.0001)                    cg2d_init_res =    3.33401181865060E-01
(PID.TID 0000.0001)                       cg2d_iters =    45
(PID.TID 0000.0001)                         cg2d_res =    6.07881722664758E-14
(PID.TID 0000.0001) // =======================================================
(PID.TID 0000.0001) // Begin MONITOR dynamic field statistics
(PID.TID 0000.0001) // =======================================================
(PID.TID 0000.0001) %MON time_tsnumber                =                     2
(PID.TID 0000.0001) %MON time_secondsf                =   7.2000000000000E+03
(PID.TID 0000.0001) %MON dynstat_eta_max              =   2.8811747721491E-01
(PID.TID 0000.0001) %MON dynstat_eta_min              =  -1.2803863133414E-01
(PID.TID 0000.0001) %MON dynstat_eta_mean             =  -2.9061071443871E-16
(PID.TID 0000.0001) %MON dynstat_eta_sd               =   7.4440546114588E-02
(PID.TID 0000.0001) %MON dynstat_eta_del2             =   2.3355756839704E-03
(PID.TID 0000.0001) %MON dynstat_uvel_max             =   3.2507029189082E-02
(PID.TID 0000.0001) %MON dynstat_uvel_min             =  -4.0208347233551E-02
(PID.TID 0000.0001) %MON dynstat_uvel_mean            =  -7.7877964486473E-04
(PID.TID 0000.0001) %MON dynstat_uvel_sd              =   4.4558987516189E-03
(PID.TID 0000.0001) %MON dynstat_uvel_del2            =   2.2466506720480E-04
(PID.TID 0000.0001) %MON dynstat_vvel_max             =   4.2229040352822E-02
(PID.TID 0000.0001) %MON dynstat_vvel_min             =  -1.6484511748195E-02
(PID.TID 0000.0001) %MON dynstat_vvel_mean            =  -1.4721556809463E-03
(PID.TID 0000.0001) %MON dynstat_vvel_sd              =   6.8117874953530E-03
(PID.TID 0000.0001) %MON dynstat_vvel_del2            =   1.6579248114672E-04
(PID.TID 0000.0001) %MON dynstat_wvel_max             =   1.6874793195724E-04
(PID.TID 0000.0001) %MON dynstat_wvel_min             =  -6.5796925684237E-05
(PID.TID 0000.0001) %MON dynstat_wvel_mean            =   3.7999321778987E-22
(PID.TID 0000.0001) %MON dynstat_wvel_sd              =   3.1153942124877E-05
(PID.TID 0000.0001) %MON dynstat_wvel_del2            =   5.4512540520243E-07
(PID.TID 0000.0001) %MON dynstat_theta_max            =   1.3259599174186E+01
(PID.TID 0000.0001) %MON dynstat_theta_min            =  -1.8315600548062E+00
(PID.TID 0000.0001) %MON dynstat_theta_mean           =   3.0749856015788E+00
(PID.TID 0000.0001) %MON dynstat_theta_sd             =   1.4240718998209E+00
(PID.TID 0000.0001) %MON dynstat_theta_del2           =   9.9641330522452E-03
(PID.TID 0000.0001) %MON dynstat_salt_max             =   3.5450923374521E+01
(PID.TID 0000.0001) %MON dynstat_salt_min             =   2.7634600065951E+01
(PID.TID 0000.0001) %MON dynstat_salt_mean            =   3.4746768085838E+01
(PID.TID 0000.0001) %MON dynstat_salt_sd              =   5.0930561972603E-01
(PID.TID 0000.0001) %MON dynstat_salt_del2            =   3.6971558938742E-03
(PID.TID 0000.0001) %MON forcing_qnet_max             =   2.1573266965106E+04
(PID.TID 0000.0001) %MON forcing_qnet_min             =  -3.9975789645421E+01
(PID.TID 0000.0001) %MON forcing_qnet_mean            =   9.2363964518350E+03
(PID.TID 0000.0001) %MON forcing_qnet_sd              =   4.5562603126742E+03
(PID.TID 0000.0001) %MON forcing_qnet_del2            =   2.9938443945714E+02
(PID.TID 0000.0001) %MON forcing_qsw_max              =   0.0000000000000E+00
(PID.TID 0000.0001) %MON forcing_qsw_min              =  -5.6456912289291E+01
(PID.TID 0000.0001) %MON forcing_qsw_mean             =  -7.0417791832045E+00
(PID.TID 0000.0001) %MON forcing_qsw_sd               =   1.6384350026933E+01
(PID.TID 0000.0001) %MON forcing_qsw_del2             =   1.2462333221808E+00
(PID.TID 0000.0001) %MON forcing_empmr_max            =  -5.4213028894430E-05
(PID.TID 0000.0001) %MON forcing_empmr_min            =  -6.4527787338243E-02
(PID.TID 0000.0001) %MON forcing_empmr_mean           =  -2.7627308858113E-02
(PID.TID 0000.0001) %MON forcing_empmr_sd             =   1.3615346305133E-02
(PID.TID 0000.0001) %MON forcing_empmr_del2           =   8.9666848387582E-04
(PID.TID 0000.0001) %MON forcing_fu_max               =   7.4005074149885E-02
(PID.TID 0000.0001) %MON forcing_fu_min               =  -2.4036205847454E-03
(PID.TID 0000.0001) %MON forcing_fu_mean              =   1.6567118191952E-02
(PID.TID 0000.0001) %MON forcing_fu_sd                =   1.8810645142909E-02
(PID.TID 0000.0001) %MON forcing_fu_del2              =   8.2446534765481E-04
(PID.TID 0000.0001) %MON forcing_fv_max               =   1.1060803994216E-02
(PID.TID 0000.0001) %MON forcing_fv_min               =  -9.3587818348569E-03
(PID.TID 0000.0001) %MON forcing_fv_mean              =  -1.4291434496275E-03
(PID.TID 0000.0001) %MON forcing_fv_sd                =   4.6482902428143E-03
(PID.TID 0000.0001) %MON forcing_fv_del2              =   1.7422411199631E-04
(PID.TID 0000.0001) %MON advcfl_uvel_max              =   9.5437800941020E-04
(PID.TID 0000.0001) %MON advcfl_vvel_max              =   6.8359479095712E-04
(PID.TID 0000.0001) %MON advcfl_wvel_max              =   1.6351917458922E-02
(PID.TID 0000.0001) %MON advcfl_W_hf_max              =   9.6940327627713E-03
(PID.TID 0000.0001) %MON pe_b_mean                    =   1.8268039525096E-05
(PID.TID 0000.0001) %MON ke_max                       =   8.1593990938774E-04
(PID.TID 0000.0001) %MON ke_mean                      =   2.6989290752310E-05
(PID.TID 0000.0001) %MON ke_vol                       =   5.3036189546438E+15
(PID.TID 0000.0001) %MON vort_r_min                   =  -2.8379673710080E-07
(PID.TID 0000.0001) %MON vort_r_max                   =   1.7949015109174E-07
(PID.TID 0000.0001) %MON vort_a_mean                  =   1.2067277951546E-04
(PID.TID 0000.0001) %MON vort_a_sd                    =   8.8107502120920E-06
(PID.TID 0000.0001) %MON vort_p_mean                  =   1.7734843682583E-04
(PID.TID 0000.0001) %MON vort_p_sd                    =   1.1691469545859E-04
(PID.TID 0000.0001) %MON surfExpan_theta_mean         =   5.1453740403478E-06
(PID.TID 0000.0001) %MON surfExpan_salt_mean          =  -3.4493008577329E-06
(PID.TID 0000.0001) // =======================================================
(PID.TID 0000.0001) // End MONITOR dynamic field statistics
(PID.TID 0000.0001) // =======================================================
(PID.TID 0000.0001) // =======================================================
(PID.TID 0000.0001) // Begin MONITOR SEAICE statistics
(PID.TID 0000.0001) // =======================================================
(PID.TID 0000.0001) %MON seaice_tsnumber              =                     2
(PID.TID 0000.0001) %MON seaice_time_sec              =   7.2000000000000E+03
(PID.TID 0000.0001) %MON seaice_uice_max              =   1.8363642269335E-01
(PID.TID 0000.0001) %MON seaice_uice_min              =  -2.7249894998307E-03
(PID.TID 0000.0001) %MON seaice_uice_mean             =   5.6934450624356E-02
(PID.TID 0000.0001) %MON seaice_uice_sd               =   5.7273632805541E-02
(PID.TID 0000.0001) %MON seaice_uice_del2             =   2.2750273008396E-03
(PID.TID 0000.0001) %MON seaice_vice_max              =   6.2586657718398E-02
(PID.TID 0000.0001) %MON seaice_vice_min              =  -3.1505781603136E-02
(PID.TID 0000.0001) %MON seaice_vice_mean             =  -4.9701294400407E-03
(PID.TID 0000.0001) %MON seaice_vice_sd               =   1.9906713381765E-02
(PID.TID 0000.0001) %MON seaice_vice_del2             =   8.5359446773528E-04
(PID.TID 0000.0001) %MON seaice_area_max              =   1.0000000000000E+00
(PID.TID 0000.0001) %MON seaice_area_min              =   0.0000000000000E+00
(PID.TID 0000.0001) %MON seaice_area_mean             =   7.5483073302981E-01
(PID.TID 0000.0001) %MON seaice_area_sd               =   4.1725859820050E-01
(PID.TID 0000.0001) %MON seaice_area_del2             =   3.3297148267013E-02
(PID.TID 0000.0001) %MON seaice_heff_max              =   5.8895103308570E-01
(PID.TID 0000.0001) %MON seaice_heff_min              =   0.0000000000000E+00
(PID.TID 0000.0001) %MON seaice_heff_mean             =   1.9948603349644E-01
(PID.TID 0000.0001) %MON seaice_heff_sd               =   1.8729904899876E-01
(PID.TID 0000.0001) %MON seaice_heff_del2             =   3.6461818058738E-03
(PID.TID 0000.0001) %MON seaice_hsnow_max             =   2.0023558197220E-01
(PID.TID 0000.0001) %MON seaice_hsnow_min             =   0.0000000000000E+00
(PID.TID 0000.0001) %MON seaice_hsnow_mean            =   7.0679673779694E-02
(PID.TID 0000.0001) %MON seaice_hsnow_sd              =   6.6311384959455E-02
(PID.TID 0000.0001) %MON seaice_hsnow_del2            =   1.2907604337644E-03
(PID.TID 0000.0001) %MON seaice_hsalt_max             =   5.1951830081039E+03
(PID.TID 0000.0001) %MON seaice_hsalt_min             =   0.0000000000000E+00
(PID.TID 0000.0001) %MON seaice_hsalt_mean            =   1.6198889108821E+03
(PID.TID 0000.0001) %MON seaice_hsalt_sd              =   1.6616309395111E+03
(PID.TID 0000.0001) %MON seaice_hsalt_del2            =   3.4259741475019E+01
(PID.TID 0000.0001) // =======================================================
(PID.TID 0000.0001) // End MONITOR SEAICE statistics
(PID.TID 0000.0001) // =======================================================
(PID.TID 0000.0001) // =======================================================
(PID.TID 0000.0001) // Begin MONITOR EXF statistics
(PID.TID 0000.0001) // =======================================================
(PID.TID 0000.0001) %MON exf_tsnumber                 =                     2
(PID.TID 0000.0001) %MON exf_time_sec                 =   7.2000000000000E+03
(PID.TID 0000.0001) %MON exf_ustress_max              =   5.2373920462999E-02
(PID.TID 0000.0001) %MON exf_ustress_min              =  -9.3848321969302E-02
(PID.TID 0000.0001) %MON exf_ustress_mean             =   1.8057039158214E-02
(PID.TID 0000.0001) %MON exf_ustress_sd               =   2.3806910352080E-02
(PID.TID 0000.0001) %MON exf_ustress_del2             =   7.1336454963083E-04
(PID.TID 0000.0001) %MON exf_vstress_max              =   5.3862391928914E-02
(PID.TID 0000.0001) %MON exf_vstress_min              =  -5.8693738594595E-02
(PID.TID 0000.0001) %MON exf_vstress_mean             =  -5.4788917357553E-03
(PID.TID 0000.0001) %MON exf_vstress_sd               =   1.4449002061915E-02
(PID.TID 0000.0001) %MON exf_vstress_del2             =   5.1432618517384E-04
(PID.TID 0000.0001) %MON exf_hflux_max                =   6.3300323325431E+02
(PID.TID 0000.0001) %MON exf_hflux_min                =  -3.9107039002518E+01
(PID.TID 0000.0001) %MON exf_hflux_mean               =   1.5561954566948E+02
(PID.TID 0000.0001) %MON exf_hflux_sd                 =   1.7973225302371E+02
(PID.TID 0000.0001) %MON exf_hflux_del2               =   5.3940540491115E+00
(PID.TID 0000.0001) %MON exf_sflux_max                =   4.0782227570716E-08
(PID.TID 0000.0001) %MON exf_sflux_min                =  -8.7527615743532E-08
(PID.TID 0000.0001) %MON exf_sflux_mean               =  -2.5330608363110E-08
(PID.TID 0000.0001) %MON exf_sflux_sd                 =   3.0712761579954E-08
(PID.TID 0000.0001) %MON exf_sflux_del2               =   9.6107940547243E-10
(PID.TID 0000.0001) %MON exf_uwind_max                =   6.4653894471340E+00
(PID.TID 0000.0001) %MON exf_uwind_min                =  -6.8372916367536E+00
(PID.TID 0000.0001) %MON exf_uwind_mean               =   2.7699878382919E+00
(PID.TID 0000.0001) %MON exf_uwind_sd                 =   2.9905922217476E+00
(PID.TID 0000.0001) %MON exf_uwind_del2               =   8.0271529751792E-02
(PID.TID 0000.0001) %MON exf_vwind_max                =   3.9241285741003E+00
(PID.TID 0000.0001) %MON exf_vwind_min                =  -6.0178915685643E+00
(PID.TID 0000.0001) %MON exf_vwind_mean               =  -7.5966313506940E-01
(PID.TID 0000.0001) %MON exf_vwind_sd                 =   1.7295599554900E+00
(PID.TID 0000.0001) %MON exf_vwind_del2               =   4.8609699266683E-02
(PID.TID 0000.0001) %MON exf_wspeed_max               =   7.8833585477315E+00
(PID.TID 0000.0001) %MON exf_wspeed_min               =   4.5986651533145E-01
(PID.TID 0000.0001) %MON exf_wspeed_mean              =   4.1983267266652E+00
(PID.TID 0000.0001) %MON exf_wspeed_sd                =   1.5996852426804E+00
(PID.TID 0000.0001) %MON exf_wspeed_del2              =   2.3646299926724E-01
(PID.TID 0000.0001) %MON exf_atemp_max                =   2.8187938819427E+02
(PID.TID 0000.0001) %MON exf_atemp_min                =   2.3645283916869E+02
(PID.TID 0000.0001) %MON exf_atemp_mean               =   2.6393676967070E+02
(PID.TID 0000.0001) %MON exf_atemp_sd                 =   1.1986339246462E+01
(PID.TID 0000.0001) %MON exf_atemp_del2               =   7.0585416752362E-01
(PID.TID 0000.0001) %MON exf_aqh_max                  =   6.3217798619445E-03
(PID.TID 0000.0001) %MON exf_aqh_min                  =   1.6350454117726E-04
(PID.TID 0000.0001) %MON exf_aqh_mean                 =   2.4792421973794E-03
(PID.TID 0000.0001) %MON exf_aqh_sd                   =   1.4263013062694E-03
(PID.TID 0000.0001) %MON exf_aqh_del2                 =   7.6471629231506E-05
(PID.TID 0000.0001) %MON exf_lwflux_max               =   1.8572616855190E+02
(PID.TID 0000.0001) %MON exf_lwflux_min               =   3.6285680481959E+01
(PID.TID 0000.0001) %MON exf_lwflux_mean              =   8.2618888894026E+01
(PID.TID 0000.0001) %MON exf_lwflux_sd                =   4.1544187816699E+01
(PID.TID 0000.0001) %MON exf_lwflux_del2              =   4.5270303209247E+00
(PID.TID 0000.0001) %MON exf_precip_max               =   1.0499042589295E-07
(PID.TID 0000.0001) %MON exf_precip_min               =   2.7332713399833E-10
(PID.TID 0000.0001) %MON exf_precip_mean              =   3.6390058855016E-08
(PID.TID 0000.0001) %MON exf_precip_sd                =   2.0579049691733E-08
(PID.TID 0000.0001) %MON exf_precip_del2              =   1.6840584643800E-09
(PID.TID 0000.0001) %MON exf_snowprecip_max           =   0.0000000000000E+00
(PID.TID 0000.0001) %MON exf_snowprecip_min           =   0.0000000000000E+00
(PID.TID 0000.0001) %MON exf_snowprecip_mean          =   0.0000000000000E+00
(PID.TID 0000.0001) %MON exf_snowprecip_sd            =   0.0000000000000E+00
(PID.TID 0000.0001) %MON exf_snowprecip_del2          =   0.0000000000000E+00
(PID.TID 0000.0001) %MON exf_swflux_max               =  -8.1206321227746E-02
(PID.TID 0000.0001) %MON exf_swflux_min               =  -6.4010854714816E+01
(PID.TID 0000.0001) %MON exf_swflux_mean              =  -2.6474287454698E+01
(PID.TID 0000.0001) %MON exf_swflux_sd                =   1.9633572905820E+01
(PID.TID 0000.0001) %MON exf_swflux_del2              =   8.9626632554875E-02
(PID.TID 0000.0001) %MON exf_evap_max                 =   4.7105109972948E-08
(PID.TID 0000.0001) %MON exf_evap_min                 =  -3.7467601954699E-09
(PID.TID 0000.0001) %MON exf_evap_mean                =   1.1059450491906E-08
(PID.TID 0000.0001) %MON exf_evap_sd                  =   1.1501344425631E-08
(PID.TID 0000.0001) %MON exf_evap_del2                =   1.0249160936240E-09
(PID.TID 0000.0001) %MON exf_swdown_max               =   7.1123171905351E+01
(PID.TID 0000.0001) %MON exf_swdown_min               =   9.0229245808607E-02
(PID.TID 0000.0001) %MON exf_swdown_mean              =   2.9415874949665E+01
(PID.TID 0000.0001) %MON exf_swdown_sd                =   2.1815081006466E+01
(PID.TID 0000.0001) %MON exf_swdown_del2              =   8.5711310244864E-01
(PID.TID 0000.0001) %MON exf_lwdown_max               =   3.0566206584993E+02
(PID.TID 0000.0001) %MON exf_lwdown_min               =   1.1596747835086E+02
(PID.TID 0000.0001) %MON exf_lwdown_mean              =   2.2591790230100E+02
(PID.TID 0000.0001) %MON exf_lwdown_sd                =   4.6285369157135E+01
(PID.TID 0000.0001) %MON exf_lwdown_del2              =   8.1722892696108E+00
(PID.TID 0000.0001) %MON exf_apressure_max            =   0.0000000000000E+00
(PID.TID 0000.0001) %MON exf_apressure_min            =   0.0000000000000E+00
(PID.TID 0000.0001) %MON exf_apressure_mean           =   0.0000000000000E+00
(PID.TID 0000.0001) %MON exf_apressure_sd             =   0.0000000000000E+00
(PID.TID 0000.0001) %MON exf_apressure_del2           =   0.0000000000000E+00
(PID.TID 0000.0001) %MON exf_runoff_max               =   0.0000000000000E+00
(PID.TID 0000.0001) %MON exf_runoff_min               =   0.0000000000000E+00
(PID.TID 0000.0001) %MON exf_runoff_mean              =   0.0000000000000E+00
(PID.TID 0000.0001) %MON exf_runoff_sd                =   0.0000000000000E+00
(PID.TID 0000.0001) %MON exf_runoff_del2              =   0.0000000000000E+00
(PID.TID 0000.0001) %MON exf_climsst_max              =   0.0000000000000E+00
(PID.TID 0000.0001) %MON exf_climsst_min              =   0.0000000000000E+00
(PID.TID 0000.0001) %MON exf_climsst_mean             =   0.0000000000000E+00
(PID.TID 0000.0001) %MON exf_climsst_sd               =   0.0000000000000E+00
(PID.TID 0000.0001) %MON exf_climsst_del2             =   0.0000000000000E+00
(PID.TID 0000.0001) %MON exf_climsss_max              =   3.5040700380919E+01
(PID.TID 0000.0001) %MON exf_climsss_min              =   3.0667831827383E+01
(PID.TID 0000.0001) %MON exf_climsss_mean             =   3.3460362267948E+01
(PID.TID 0000.0001) %MON exf_climsss_sd               =   1.0318117788237E+00
(PID.TID 0000.0001) %MON exf_climsss_del2             =   2.6973864151273E-02
(PID.TID 0000.0001) // =======================================================
(PID.TID 0000.0001) // End MONITOR EXF statistics
(PID.TID 0000.0001) // =======================================================
 SEAICE_LSR: Residual Initial Uice,Vice=  3.12474919E-02  1.94671331E-02
 SEAICE_LSR: Residual FrDrift U_fd,V_fd=  4.34504410E+00  5.40523479E-01
 SEAICE_LSR (ipass=   1) iters,dU,Resid=    36  7.94443631E-07  1.80878727E-05
 SEAICE_LSR (ipass=   1) iters,dV,Resid=    76  9.59810256E-07  5.33239190E-06
 SEAICE_LSR: Residual Initial Uice,Vice=  2.49349122E-02  1.56882700E-02
 SEAICE_LSR: Residual FrDrift U_fd,V_fd=  4.17804063E+00  4.89574234E-01
 SEAICE_LSR (ipass=   2) iters,dU,Resid=    36  9.85758593E-07  4.19605097E-05
 SEAICE_LSR (ipass=   2) iters,dV,Resid=    60  9.94714278E-07  3.40605965E-06
 cg2d: Sum(rhs),rhsMax =   1.03667074924374E-14  1.21118111273372E+00
(PID.TID 0000.0001)                    cg2d_init_res =    1.65924310896302E-01
(PID.TID 0000.0001)                       cg2d_iters =    44
(PID.TID 0000.0001)                         cg2d_res =    8.81767170825750E-14
(PID.TID 0000.0001) // =======================================================
(PID.TID 0000.0001) // Begin MONITOR dynamic field statistics
(PID.TID 0000.0001) // =======================================================
(PID.TID 0000.0001) %MON time_tsnumber                =                     3
(PID.TID 0000.0001) %MON time_secondsf                =   1.0800000000000E+04
(PID.TID 0000.0001) %MON dynstat_eta_max              =   3.1106046969854E-01
(PID.TID 0000.0001) %MON dynstat_eta_min              =  -1.4150486162744E-01
(PID.TID 0000.0001) %MON dynstat_eta_mean             =  -1.1157566855016E-16
(PID.TID 0000.0001) %MON dynstat_eta_sd               =   8.4202166868568E-02
(PID.TID 0000.0001) %MON dynstat_eta_del2             =   2.1984201252546E-03
(PID.TID 0000.0001) %MON dynstat_uvel_max             =   6.4749811481338E-02
(PID.TID 0000.0001) %MON dynstat_uvel_min             =  -4.8566993722471E-02
(PID.TID 0000.0001) %MON dynstat_uvel_mean            =  -2.1056069476973E-04
(PID.TID 0000.0001) %MON dynstat_uvel_sd              =   5.7064562376360E-03
(PID.TID 0000.0001) %MON dynstat_uvel_del2            =   2.7323906762450E-04
(PID.TID 0000.0001) %MON dynstat_vvel_max             =   5.5108118877376E-02
(PID.TID 0000.0001) %MON dynstat_vvel_min             =  -2.9381407991799E-02
(PID.TID 0000.0001) %MON dynstat_vvel_mean            =  -9.2659125370852E-04
(PID.TID 0000.0001) %MON dynstat_vvel_sd              =   8.4386128633942E-03
(PID.TID 0000.0001) %MON dynstat_vvel_del2            =   1.8519494244614E-04
(PID.TID 0000.0001) %MON dynstat_wvel_max             =   2.1843818876320E-04
(PID.TID 0000.0001) %MON dynstat_wvel_min             =  -1.0197483293260E-04
(PID.TID 0000.0001) %MON dynstat_wvel_mean            =   1.4334703500366E-21
(PID.TID 0000.0001) %MON dynstat_wvel_sd              =   3.7275281839035E-05
(PID.TID 0000.0001) %MON dynstat_wvel_del2            =   6.6784260584784E-07
(PID.TID 0000.0001) %MON dynstat_theta_max            =   1.3261684077869E+01
(PID.TID 0000.0001) %MON dynstat_theta_min            =  -1.9324995461133E+00
(PID.TID 0000.0001) %MON dynstat_theta_mean           =   3.0740297899290E+00
(PID.TID 0000.0001) %MON dynstat_theta_sd             =   1.4271395861210E+00
(PID.TID 0000.0001) %MON dynstat_theta_del2           =   9.9542680507935E-03
(PID.TID 0000.0001) %MON dynstat_salt_max             =   3.5451057114380E+01
(PID.TID 0000.0001) %MON dynstat_salt_min             =   2.7615178329526E+01
(PID.TID 0000.0001) %MON dynstat_salt_mean            =   3.4746465276315E+01
(PID.TID 0000.0001) %MON dynstat_salt_sd              =   5.1132476365577E-01
(PID.TID 0000.0001) %MON dynstat_salt_del2            =   3.6888711933995E-03
(PID.TID 0000.0001) %MON forcing_qnet_max             =   4.3296409659437E+03
(PID.TID 0000.0001) %MON forcing_qnet_min             =  -3.9107039002518E+01
(PID.TID 0000.0001) %MON forcing_qnet_mean            =   1.6068616204824E+03
(PID.TID 0000.0001) %MON forcing_qnet_sd              =   1.0263969661809E+03
(PID.TID 0000.0001) %MON forcing_qnet_del2            =   8.2974440115751E+01
(PID.TID 0000.0001) %MON forcing_qsw_max              =   0.0000000000000E+00
(PID.TID 0000.0001) %MON forcing_qsw_min              =  -5.6896544903614E+01
(PID.TID 0000.0001) %MON forcing_qsw_mean             =  -1.0904067652121E+01
(PID.TID 0000.0001) %MON forcing_qsw_sd               =   1.9072472904519E+01
(PID.TID 0000.0001) %MON forcing_qsw_del2             =   1.4974990493128E+00
(PID.TID 0000.0001) %MON forcing_empmr_max            =  -3.7283133727644E-05
(PID.TID 0000.0001) %MON forcing_empmr_min            =  -1.2854963594168E-02
(PID.TID 0000.0001) %MON forcing_empmr_mean           =  -4.7690039001361E-03
(PID.TID 0000.0001) %MON forcing_empmr_sd             =   3.0294788897199E-03
(PID.TID 0000.0001) %MON forcing_empmr_del2           =   2.4738277687102E-04
(PID.TID 0000.0001) %MON forcing_fu_max               =   9.3807860386923E-02
(PID.TID 0000.0001) %MON forcing_fu_min               =  -3.6576004954334E-03
(PID.TID 0000.0001) %MON forcing_fu_mean              =   2.4255040830004E-02
(PID.TID 0000.0001) %MON forcing_fu_sd                =   2.4515300493736E-02
(PID.TID 0000.0001) %MON forcing_fu_del2              =   1.1843159828961E-03
(PID.TID 0000.0001) %MON forcing_fv_max               =   1.1094886757801E-02
(PID.TID 0000.0001) %MON forcing_fv_min               =  -4.4114542176002E-02
(PID.TID 0000.0001) %MON forcing_fv_mean              =  -6.2866252037216E-03
(PID.TID 0000.0001) %MON forcing_fv_sd                =   1.1529427615820E-02
(PID.TID 0000.0001) %MON forcing_fv_del2              =   6.2108838605464E-04
(PID.TID 0000.0001) %MON advcfl_uvel_max              =   1.7057211217293E-03
(PID.TID 0000.0001) %MON advcfl_vvel_max              =   8.9207859542332E-04
(PID.TID 0000.0001) %MON advcfl_wvel_max              =   8.4465767256564E-03
(PID.TID 0000.0001) %MON advcfl_W_hf_max              =   6.0688366451709E-03
(PID.TID 0000.0001) %MON pe_b_mean                    =   2.3373264682477E-05
(PID.TID 0000.0001) %MON ke_max                       =   2.0855435727594E-03
(PID.TID 0000.0001) %MON ke_mean                      =   4.0935515671327E-05
(PID.TID 0000.0001) %MON ke_vol                       =   5.3036189546438E+15
(PID.TID 0000.0001) %MON vort_r_min                   =  -3.7034950817009E-07
(PID.TID 0000.0001) %MON vort_r_max                   =   2.1901316216965E-07
(PID.TID 0000.0001) %MON vort_a_mean                  =   1.2067277963971E-04
(PID.TID 0000.0001) %MON vort_a_sd                    =   8.8112944375087E-06
(PID.TID 0000.0001) %MON vort_p_mean                  =   1.7734843700843E-04
(PID.TID 0000.0001) %MON vort_p_sd                    =   1.1691163662617E-04
(PID.TID 0000.0001) %MON surfExpan_theta_mean         =   2.9291898110028E-06
(PID.TID 0000.0001) %MON surfExpan_salt_mean          =  -1.5095029017237E-06
(PID.TID 0000.0001) // =======================================================
(PID.TID 0000.0001) // End MONITOR dynamic field statistics
(PID.TID 0000.0001) // =======================================================
(PID.TID 0000.0001) // =======================================================
(PID.TID 0000.0001) // Begin MONITOR SEAICE statistics
(PID.TID 0000.0001) // =======================================================
(PID.TID 0000.0001) %MON seaice_tsnumber              =                     3
(PID.TID 0000.0001) %MON seaice_time_sec              =   1.0800000000000E+04
(PID.TID 0000.0001) %MON seaice_uice_max              =   1.6170653536418E-01
(PID.TID 0000.0001) %MON seaice_uice_min              =  -4.8896853791629E-03
(PID.TID 0000.0001) %MON seaice_uice_mean             =   7.0577281926521E-02
(PID.TID 0000.0001) %MON seaice_uice_sd               =   5.7063413774553E-02
(PID.TID 0000.0001) %MON seaice_uice_del2             =   1.6422119677247E-03
(PID.TID 0000.0001) %MON seaice_vice_max              =   8.8584213787961E-02
(PID.TID 0000.0001) %MON seaice_vice_min              =  -1.4993304428866E-01
(PID.TID 0000.0001) %MON seaice_vice_mean             =  -1.8096875586162E-02
(PID.TID 0000.0001) %MON seaice_vice_sd               =   4.1496837391427E-02
(PID.TID 0000.0001) %MON seaice_vice_del2             =   1.3851021947572E-03
(PID.TID 0000.0001) %MON seaice_area_max              =   1.0000000000000E+00
(PID.TID 0000.0001) %MON seaice_area_min              =   0.0000000000000E+00
(PID.TID 0000.0001) %MON seaice_area_mean             =   7.2738000367392E-01
(PID.TID 0000.0001) %MON seaice_area_sd               =   4.3094027039802E-01
(PID.TID 0000.0001) %MON seaice_area_del2             =   3.2036958857635E-02
(PID.TID 0000.0001) %MON seaice_heff_max              =   5.7530296368751E-01
(PID.TID 0000.0001) %MON seaice_heff_min              =   0.0000000000000E+00
(PID.TID 0000.0001) %MON seaice_heff_mean             =   1.8178721995617E-01
(PID.TID 0000.0001) %MON seaice_heff_sd               =   1.8468066721540E-01
(PID.TID 0000.0001) %MON seaice_heff_del2             =   3.9186031382649E-03
(PID.TID 0000.0001) %MON seaice_hsnow_max             =   2.0012995213184E-01
(PID.TID 0000.0001) %MON seaice_hsnow_min             =   0.0000000000000E+00
(PID.TID 0000.0001) %MON seaice_hsnow_mean            =   6.4438031824752E-02
(PID.TID 0000.0001) %MON seaice_hsnow_sd              =   6.5448681609969E-02
(PID.TID 0000.0001) %MON seaice_hsnow_del2            =   1.3888960283586E-03
(PID.TID 0000.0001) %MON seaice_hsalt_max             =   5.0759507567813E+03
(PID.TID 0000.0001) %MON seaice_hsalt_min             =   0.0000000000000E+00
(PID.TID 0000.0001) %MON seaice_hsalt_mean            =   1.4935968976573E+03
(PID.TID 0000.0001) %MON seaice_hsalt_sd              =   1.6045663669374E+03
(PID.TID 0000.0001) %MON seaice_hsalt_del2            =   3.5792556483706E+01
(PID.TID 0000.0001) // =======================================================
(PID.TID 0000.0001) // End MONITOR SEAICE statistics
(PID.TID 0000.0001) // =======================================================
(PID.TID 0000.0001) %CHECKPOINT         3 ckptA
(PID.TID 0000.0001)  cost_ssh: offset_sum =  0.115000000000000D+03
(PID.TID 0000.0001) ph-cost call cost_sst
(PID.TID 0000.0001) ph-cost call cost_theta0
(PID.TID 0000.0001) ph-cost call cost_salt0
(PID.TID 0000.0001) ph-cost call cost_theta
(PID.TID 0000.0001) ph-cost call cost_salt
(PID.TID 0000.0001) ph-cost call cost_smrarea
  SICD cost smrarea/sst/sss    0.0000000000000000        0.0000000000000000        0.0000000000000000        0.0000000000000000        0.0000000000000000        0.0000000000000000        0.0000000000000000        0.0000000000000000        0.0000000000000000        0.0000000000000000        0.0000000000000000        0.0000000000000000     
  SICD num points smrarea/sst/sss    0.0000000000000000        0.0000000000000000        0.0000000000000000        0.0000000000000000        0.0000000000000000        0.0000000000000000        0.0000000000000000        0.0000000000000000        0.0000000000000000        0.0000000000000000        0.0000000000000000        0.0000000000000000     
 --> f_ice     = 0.000000000000000D+00
 --> f_smrarea = 0.000000000000000D+00
 --> f_smrarea = 0.000000000000000D+00
 --> f_smrarea = 0.000000000000000D+00
 --> f_temp    = 0.256153171017923D+04
 --> f_salt    = 0.875603850046287D+03
 --> f_temp0   = 0.000000000000000D+00
 --> f_salt0   = 0.000000000000000D+00
 --> f_temp0smoo = 0.000000000000000D+00
 --> f_salt0smoo = 0.000000000000000D+00
 --> f_etan0   = 0.000000000000000D+00
 --> f_uvel0   = 0.000000000000000D+00
 --> f_vvel0   = 0.000000000000000D+00
 --> f_sst     = 0.255501749388890D+04
 --> f_tmi     = 0.000000000000000D+00
 --> f_sss     = 0.000000000000000D+00
 --> f_bp      = 0.000000000000000D+00
 --> f_ies      = 0.000000000000000D+00
 --> f_ssh       = 0.000000000000000D+00
 --> f_tp        = 0.000000000000000D+00
 --> f_ers       = 0.000000000000000D+00
 --> f_gfo       = 0.000000000000000D+00
 --> f_tauu    = 0.000000000000000D+00
 --> f_tauum   = 0.000000000000000D+00
 --> f_tauusmoo = 0.000000000000000D+00
 --> f_tauv    = 0.000000000000000D+00
 --> f_tauvm   = 0.000000000000000D+00
 --> f_tauvsmoo = 0.000000000000000D+00
 --> f_hflux   = 0.000000000000000D+00
 --> f_hfluxmm = 0.000000000000000D+00
 --> f_hfluxsmoo = 0.000000000000000D+00
 --> f_sflux   = 0.000000000000000D+00
 --> f_sfluxmm = 0.000000000000000D+00
 --> f_sfluxsmoo = 0.000000000000000D+00
 --> f_uwind     = 0.000000000000000D+00
 --> f_vwind     = 0.000000000000000D+00
 --> f_atemp     = 0.000000000000000D+00
 --> f_aqh     = 0.000000000000000D+00
 --> f_precip  = 0.000000000000000D+00
 --> f_swflux  = 0.000000000000000D+00
 --> f_swdown  = 0.000000000000000D+00
 --> f_uwindm     = 0.000000000000000D+00
 --> f_vwindm     = 0.000000000000000D+00
 --> f_atempm     = 0.000000000000000D+00
 --> f_aqhm     = 0.000000000000000D+00
 --> f_precipm  = 0.000000000000000D+00
 --> f_swfluxm  = 0.000000000000000D+00
 --> f_swdownm  = 0.000000000000000D+00
 --> f_uwindsmoo     = 0.000000000000000D+00
 --> f_vwindsmoo     = 0.000000000000000D+00
 --> f_atempsmoo     = 0.000000000000000D+00
 --> f_aqhsmoo     = 0.000000000000000D+00
 --> f_precipsmoo  = 0.000000000000000D+00
 --> f_swfluxsmoo  = 0.000000000000000D+00
 --> f_swdownsmoo  = 0.000000000000000D+00
 --> f_atl     = 0.000000000000000D+00
 --> f_ctdt    = 0.000000000000000D+00
 --> f_ctds    = 0.000000000000000D+00
 --> f_ctdtclim= 0.000000000000000D+00
 --> f_ctdsclim= 0.000000000000000D+00
 --> f_xbt     = 0.000000000000000D+00
 --> f_argot   = 0.000000000000000D+00
 --> f_argos   = 0.000000000000000D+00
 --> f_drifter   = 0.000000000000000D+00
 --> f_tdrift  = 0.000000000000000D+00
 --> f_sdrift  = 0.000000000000000D+00
 --> f_wdrift  = 0.000000000000000D+00
 --> f_scatx   = 0.000000000000000D+00
 --> f_scaty   = 0.000000000000000D+00
 --> f_scatxm  = 0.000000000000000D+00
 --> f_scatym  = 0.000000000000000D+00
 --> f_obcsn   = 0.000000000000000D+00
 --> f_obcss   = 0.000000000000000D+00
 --> f_obcsw   = 0.000000000000000D+00
 --> f_obcse   = 0.000000000000000D+00
 --> f_ageos   = 0.000000000000000D+00
 --> f_curmtr  = 0.000000000000000D+00
 --> f_kapgm   = 0.000000000000000D+00
 --> f_kapredi   = 0.000000000000000D+00
 --> f_diffkr  = 0.000000000000000D+00
 --> f_eddytau = 0.000000000000000D+00
 --> f_bottomdrag = 0.000000000000000D+00
 --> f_hfluxmm2           = 0.000000000000000D+00
 --> f_sfluxmm2           = 0.000000000000000D+00
 --> f_transp             = 0.000000000000000D+00
 --> objf_hmean           = 0.716917227381126D-01
 --> fc               = 0.599222474583716D+04
(PID.TID 0000.0001) Did not write pickup because writePickupAtEnd = FALSE
(PID.TID 0000.0001) SOLVE_FOR_PRESSURE: putPmEinXvector =    F
 cg2d: Sum(rhs),rhsMax =   5.03069808033274E-16  9.91122157852920E-01
 cg2d: Sum(rhs),rhsMax =   2.92127433354494E-15  1.19272630614451E+00
 cg2d: Sum(rhs),rhsMax =   1.03667074924374E-14  1.21118111273372E+00
(PID.TID 0000.0001) Did not write pickup because writePickupAtEnd = FALSE
(PID.TID 0000.0001) SOLVE_FOR_PRESSURE: putPmEinXvector =    F
 cg2d: Sum(rhs),rhsMax =   5.03069808033274E-16  9.91122157852920E-01
 cg2d: Sum(rhs),rhsMax =   2.92127433354494E-15  1.19272630614451E+00
 cg2d: Sum(rhs),rhsMax =   1.04465047723323E-14  1.21118111273372E+00
(PID.TID 0000.0001) Did not write pickup because writePickupAtEnd = FALSE
(PID.TID 0000.0001) // =======================================================
(PID.TID 0000.0001) // Begin MONITOR dynamic field statistics
(PID.TID 0000.0001) // =======================================================
(PID.TID 0000.0001) %MON ad_time_tsnumber             =                     3
(PID.TID 0000.0001) %MON ad_time_secondsf             =   1.0800000000000E+04
(PID.TID 0000.0001) %MON ad_dynstat_adeta_max         =   2.7547054966619E-02
(PID.TID 0000.0001) %MON ad_dynstat_adeta_min         =  -4.9576234847647E-02
(PID.TID 0000.0001) %MON ad_dynstat_adeta_mean        =  -9.5156877711315E-04
(PID.TID 0000.0001) %MON ad_dynstat_adeta_sd          =   1.2260805249092E-02
(PID.TID 0000.0001) %MON ad_dynstat_adeta_del2        =   1.6602709767094E-03
(PID.TID 0000.0001) %MON ad_dynstat_aduvel_max        =   0.0000000000000E+00
(PID.TID 0000.0001) %MON ad_dynstat_aduvel_min        =   0.0000000000000E+00
(PID.TID 0000.0001) %MON ad_dynstat_aduvel_mean       =   0.0000000000000E+00
(PID.TID 0000.0001) %MON ad_dynstat_aduvel_sd         =   0.0000000000000E+00
(PID.TID 0000.0001) %MON ad_dynstat_aduvel_del2       =   0.0000000000000E+00
(PID.TID 0000.0001) %MON ad_dynstat_advvel_max        =   0.0000000000000E+00
(PID.TID 0000.0001) %MON ad_dynstat_advvel_min        =   0.0000000000000E+00
(PID.TID 0000.0001) %MON ad_dynstat_advvel_mean       =   0.0000000000000E+00
(PID.TID 0000.0001) %MON ad_dynstat_advvel_sd         =   0.0000000000000E+00
(PID.TID 0000.0001) %MON ad_dynstat_advvel_del2       =   0.0000000000000E+00
(PID.TID 0000.0001) %MON ad_dynstat_adwvel_max        =   0.0000000000000E+00
(PID.TID 0000.0001) %MON ad_dynstat_adwvel_min        =   0.0000000000000E+00
(PID.TID 0000.0001) %MON ad_dynstat_adwvel_mean       =   0.0000000000000E+00
(PID.TID 0000.0001) %MON ad_dynstat_adwvel_sd         =   0.0000000000000E+00
(PID.TID 0000.0001) %MON ad_dynstat_adwvel_del2       =   0.0000000000000E+00
(PID.TID 0000.0001) %MON ad_dynstat_adtheta_max       =   9.7364982856101E-03
(PID.TID 0000.0001) %MON ad_dynstat_adtheta_min       =  -5.3772887411840E+00
(PID.TID 0000.0001) %MON ad_dynstat_adtheta_mean      =  -2.8162714161915E-02
(PID.TID 0000.0001) %MON ad_dynstat_adtheta_sd        =   3.4620621269204E-01
(PID.TID 0000.0001) %MON ad_dynstat_adtheta_del2      =   1.1850965795627E-02
(PID.TID 0000.0001) %MON ad_dynstat_adsalt_max        =   1.5788994889315E-02
(PID.TID 0000.0001) %MON ad_dynstat_adsalt_min        =  -3.1883351066016E+00
(PID.TID 0000.0001) %MON ad_dynstat_adsalt_mean       =  -1.5843562590613E-02
(PID.TID 0000.0001) %MON ad_dynstat_adsalt_sd         =   1.9707227480969E-01
(PID.TID 0000.0001) %MON ad_dynstat_adsalt_del2       =   6.8912226806401E-03
(PID.TID 0000.0001) %MON ad_forcing_adqnet_max        =   0.0000000000000E+00
(PID.TID 0000.0001) %MON ad_forcing_adqnet_min        =   0.0000000000000E+00
(PID.TID 0000.0001) %MON ad_forcing_adqnet_mean       =   0.0000000000000E+00
(PID.TID 0000.0001) %MON ad_forcing_adqnet_sd         =   0.0000000000000E+00
(PID.TID 0000.0001) %MON ad_forcing_adqnet_del2       =   0.0000000000000E+00
(PID.TID 0000.0001) %MON ad_forcing_adqsw_max         =   0.0000000000000E+00
(PID.TID 0000.0001) %MON ad_forcing_adqsw_min         =   0.0000000000000E+00
(PID.TID 0000.0001) %MON ad_forcing_adqsw_mean        =   0.0000000000000E+00
(PID.TID 0000.0001) %MON ad_forcing_adqsw_sd          =   0.0000000000000E+00
(PID.TID 0000.0001) %MON ad_forcing_adqsw_del2        =   0.0000000000000E+00
(PID.TID 0000.0001) %MON ad_forcing_adempmr_max       =   0.0000000000000E+00
(PID.TID 0000.0001) %MON ad_forcing_adempmr_min       =   0.0000000000000E+00
(PID.TID 0000.0001) %MON ad_forcing_adempmr_mean      =   0.0000000000000E+00
(PID.TID 0000.0001) %MON ad_forcing_adempmr_sd        =   0.0000000000000E+00
(PID.TID 0000.0001) %MON ad_forcing_adempmr_del2      =   0.0000000000000E+00
(PID.TID 0000.0001) %MON ad_forcing_adfu_max          =   0.0000000000000E+00
(PID.TID 0000.0001) %MON ad_forcing_adfu_min          =   0.0000000000000E+00
(PID.TID 0000.0001) %MON ad_forcing_adfu_mean         =   0.0000000000000E+00
(PID.TID 0000.0001) %MON ad_forcing_adfu_sd           =   0.0000000000000E+00
(PID.TID 0000.0001) %MON ad_forcing_adfu_del2         =   0.0000000000000E+00
(PID.TID 0000.0001) %MON ad_forcing_adfv_max          =   0.0000000000000E+00
(PID.TID 0000.0001) %MON ad_forcing_adfv_min          =   0.0000000000000E+00
(PID.TID 0000.0001) %MON ad_forcing_adfv_mean         =   0.0000000000000E+00
(PID.TID 0000.0001) %MON ad_forcing_adfv_sd           =   0.0000000000000E+00
(PID.TID 0000.0001) %MON ad_forcing_adfv_del2         =   0.0000000000000E+00
(PID.TID 0000.0001) %MON ad_advcfl_aduvel_max         =   0.0000000000000E+00
(PID.TID 0000.0001) %MON ad_advcfl_advvel_max         =   0.0000000000000E+00
(PID.TID 0000.0001) %MON ad_advcfl_adwvel_max         =   0.0000000000000E+00
(PID.TID 0000.0001) %MON ad_advcfl_adW_hf_max         =   0.0000000000000E+00
(PID.TID 0000.0001) // =======================================================
(PID.TID 0000.0001) // End MONITOR dynamic field statistics
(PID.TID 0000.0001) // =======================================================
(PID.TID 0000.0001) // =======================================================
(PID.TID 0000.0001) // Begin AD_MONITOR SEAICE statistics
(PID.TID 0000.0001) // =======================================================
(PID.TID 0000.0001) %MON ad_seaice_tsnumber           =                     3
(PID.TID 0000.0001) %MON ad_seaice_time_sec           =   1.0800000000000E+04
(PID.TID 0000.0001) %MON ad_seaice_aduice_max         =   0.0000000000000E+00
(PID.TID 0000.0001) %MON ad_seaice_aduice_min         =   0.0000000000000E+00
(PID.TID 0000.0001) %MON ad_seaice_aduice_mean        =   0.0000000000000E+00
(PID.TID 0000.0001) %MON ad_seaice_aduice_sd          =   0.0000000000000E+00
(PID.TID 0000.0001) %MON ad_seaice_aduice_del2        =   0.0000000000000E+00
(PID.TID 0000.0001) %MON ad_seaice_advice_max         =   0.0000000000000E+00
(PID.TID 0000.0001) %MON ad_seaice_advice_min         =   0.0000000000000E+00
(PID.TID 0000.0001) %MON ad_seaice_advice_mean        =   0.0000000000000E+00
(PID.TID 0000.0001) %MON ad_seaice_advice_sd          =   0.0000000000000E+00
(PID.TID 0000.0001) %MON ad_seaice_advice_del2        =   0.0000000000000E+00
(PID.TID 0000.0001) %MON ad_seaice_adarea_max         =   0.0000000000000E+00
(PID.TID 0000.0001) %MON ad_seaice_adarea_min         =   0.0000000000000E+00
(PID.TID 0000.0001) %MON ad_seaice_adarea_mean        =   0.0000000000000E+00
(PID.TID 0000.0001) %MON ad_seaice_adarea_sd          =   0.0000000000000E+00
(PID.TID 0000.0001) %MON ad_seaice_adarea_del2        =   0.0000000000000E+00
(PID.TID 0000.0001) %MON ad_seaice_adheff_max         =   0.0000000000000E+00
(PID.TID 0000.0001) %MON ad_seaice_adheff_min         =   0.0000000000000E+00
(PID.TID 0000.0001) %MON ad_seaice_adheff_mean        =   0.0000000000000E+00
(PID.TID 0000.0001) %MON ad_seaice_adheff_sd          =   0.0000000000000E+00
(PID.TID 0000.0001) %MON ad_seaice_adheff_del2        =   0.0000000000000E+00
(PID.TID 0000.0001) %MON ad_seaice_adhsnow_max        =   0.0000000000000E+00
(PID.TID 0000.0001) %MON ad_seaice_adhsnow_min        =   0.0000000000000E+00
(PID.TID 0000.0001) %MON ad_seaice_adhsnow_mean       =   0.0000000000000E+00
(PID.TID 0000.0001) %MON ad_seaice_adhsnow_sd         =   0.0000000000000E+00
(PID.TID 0000.0001) %MON ad_seaice_adhsnow_del2       =   0.0000000000000E+00
(PID.TID 0000.0001) %MON ad_seaice_adhsalt_max        =   0.0000000000000E+00
(PID.TID 0000.0001) %MON ad_seaice_adhsalt_min        =   0.0000000000000E+00
(PID.TID 0000.0001) %MON ad_seaice_adhsalt_mean       =   0.0000000000000E+00
(PID.TID 0000.0001) %MON ad_seaice_adhsalt_sd         =   0.0000000000000E+00
(PID.TID 0000.0001) %MON ad_seaice_adhsalt_del2       =   0.0000000000000E+00
(PID.TID 0000.0001) // =======================================================
(PID.TID 0000.0001) // End AD_MONITOR SEAICE statistics
(PID.TID 0000.0001) // =======================================================
 cg2d: Sum(rhs),rhsMax =  -1.52655665885959E-16  5.20769380764404E-04
(PID.TID 0000.0001) // =======================================================
(PID.TID 0000.0001) // Begin AD_MONITOR EXF statistics for iwhen =  3
(PID.TID 0000.0001) // =======================================================
(PID.TID 0000.0001) %MON ad_exf_tsnumber              =                     2
(PID.TID 0000.0001) %MON ad_exf_time_sec              =   7.2000000000000E+03
(PID.TID 0000.0001) %MON ad_exf_adfu_max              =   1.4933041838036E-01
(PID.TID 0000.0001) %MON ad_exf_adfu_min              =  -6.8939195622946E-02
(PID.TID 0000.0001) %MON ad_exf_adfu_mean             =   1.3484765528554E-02
(PID.TID 0000.0001) %MON ad_exf_adfu_sd               =   3.3020041870408E-02
(PID.TID 0000.0001) %MON ad_exf_adfu_del2             =   5.1540062818016E-03
(PID.TID 0000.0001) %MON ad_exf_adfv_max              =   5.2564581832127E-02
(PID.TID 0000.0001) %MON ad_exf_adfv_min              =  -7.9305846724210E-02
(PID.TID 0000.0001) %MON ad_exf_adfv_mean             =  -2.8290090124329E-04
(PID.TID 0000.0001) %MON ad_exf_adfv_sd               =   2.0894234301843E-02
(PID.TID 0000.0001) %MON ad_exf_adfv_del2             =   3.6689494081159E-03
(PID.TID 0000.0001) %MON ad_exf_adqnet_max            =   4.7263685579085E-04
(PID.TID 0000.0001) %MON ad_exf_adqnet_min            =   1.3903634914495E-04
(PID.TID 0000.0001) %MON ad_exf_adqnet_mean           =   3.5965188916165E-04
(PID.TID 0000.0001) %MON ad_exf_adqnet_sd             =   9.1928097923595E-05
(PID.TID 0000.0001) %MON ad_exf_adqnet_del2           =   1.2883210313831E-05
(PID.TID 0000.0001) %MON ad_exf_adempmr_max           =  -1.0828882938793E+01
(PID.TID 0000.0001) %MON ad_exf_adempmr_min           =  -5.1264287690408E+01
(PID.TID 0000.0001) %MON ad_exf_adempmr_mean          =  -3.0247468535718E+01
(PID.TID 0000.0001) %MON ad_exf_adempmr_sd            =   9.4216907244975E+00
(PID.TID 0000.0001) %MON ad_exf_adempmr_del2          =   1.0506093001581E+00
(PID.TID 0000.0001) // =======================================================
(PID.TID 0000.0001) // End AD_MONITOR EXF statistics for iwhen =  3
(PID.TID 0000.0001) // =======================================================
(PID.TID 0000.0001) // =======================================================
(PID.TID 0000.0001) // Begin AD_MONITOR EXF statistics for iwhen =  1
(PID.TID 0000.0001) // =======================================================
(PID.TID 0000.0001) %MON ad_exf_tsnumber              =                     2
(PID.TID 0000.0001) %MON ad_exf_time_sec              =   7.2000000000000E+03
(PID.TID 0000.0001) %MON ad_exf_adustress_max         =   1.0165687563696E-01
(PID.TID 0000.0001) %MON ad_exf_adustress_min         =  -2.3752612352238E-02
(PID.TID 0000.0001) %MON ad_exf_adustress_mean        =   1.0909588257671E-02
(PID.TID 0000.0001) %MON ad_exf_adustress_sd          =   2.3631125780811E-02
(PID.TID 0000.0001) %MON ad_exf_adustress_del2        =   1.8461898176116E-03
(PID.TID 0000.0001) %MON ad_exf_advstress_max         =   4.3371106347731E-02
(PID.TID 0000.0001) %MON ad_exf_advstress_min         =  -5.5488462352940E-02
(PID.TID 0000.0001) %MON ad_exf_advstress_mean        =  -1.3045120896462E-03
(PID.TID 0000.0001) %MON ad_exf_advstress_sd          =   1.1853760881281E-02
(PID.TID 0000.0001) %MON ad_exf_advstress_del2        =   1.2539522372907E-03
(PID.TID 0000.0001) %MON ad_exf_adhflux_max           =   4.6740523672629E-04
(PID.TID 0000.0001) %MON ad_exf_adhflux_min           =   0.0000000000000E+00
(PID.TID 0000.0001) %MON ad_exf_adhflux_mean          =   1.0889123371586E-04
(PID.TID 0000.0001) %MON ad_exf_adhflux_sd            =   1.8497461762142E-04
(PID.TID 0000.0001) %MON ad_exf_adhflux_del2          =   1.6659471152690E-05
(PID.TID 0000.0001) %MON ad_exf_adsflux_max           =   0.0000000000000E+00
(PID.TID 0000.0001) %MON ad_exf_adsflux_min           =   0.0000000000000E+00
(PID.TID 0000.0001) %MON ad_exf_adsflux_mean          =   0.0000000000000E+00
(PID.TID 0000.0001) %MON ad_exf_adsflux_sd            =   0.0000000000000E+00
(PID.TID 0000.0001) %MON ad_exf_adsflux_del2          =   0.0000000000000E+00
(PID.TID 0000.0001) %MON ad_exf_adwspeed_max          =   1.0524074607175E-03
(PID.TID 0000.0001) %MON ad_exf_adwspeed_min          =  -1.5056133755320E-03
(PID.TID 0000.0001) %MON ad_exf_adwspeed_mean         =   9.1919876023816E-06
(PID.TID 0000.0001) %MON ad_exf_adwspeed_sd           =   2.7643066626941E-04
(PID.TID 0000.0001) %MON ad_exf_adwspeed_del2         =   4.8471811787610E-05
(PID.TID 0000.0001) // =======================================================
(PID.TID 0000.0001) // End AD_MONITOR EXF statistics for iwhen =  1
(PID.TID 0000.0001) // =======================================================
(PID.TID 0000.0001) // =======================================================
(PID.TID 0000.0001) // Begin AD_MONITOR EXF statistics for iwhen =  2
(PID.TID 0000.0001) // =======================================================
(PID.TID 0000.0001) %MON ad_exf_tsnumber              =                     2
(PID.TID 0000.0001) %MON ad_exf_time_sec              =   7.2000000000000E+03
(PID.TID 0000.0001) %MON ad_exf_aduwind_max           =   2.6433351306951E-03
(PID.TID 0000.0001) %MON ad_exf_aduwind_min           =  -4.7368520730174E-03
(PID.TID 0000.0001) %MON ad_exf_aduwind_mean          =   1.4175504136804E-04
(PID.TID 0000.0001) %MON ad_exf_aduwind_sd            =   8.8357055840443E-04
(PID.TID 0000.0001) %MON ad_exf_aduwind_del2          =   1.3368574374457E-04
(PID.TID 0000.0001) %MON ad_exf_advwind_max           =   3.1634669750754E-03
(PID.TID 0000.0001) %MON ad_exf_advwind_min           =  -5.5032903227646E-03
(PID.TID 0000.0001) %MON ad_exf_advwind_mean          =  -1.0535270814214E-04
(PID.TID 0000.0001) %MON ad_exf_advwind_sd            =   6.6010098017275E-04
(PID.TID 0000.0001) %MON ad_exf_advwind_del2          =   1.2762673145950E-04
(PID.TID 0000.0001) %MON ad_exf_adatemp_max           =   5.5631987117092E-04
(PID.TID 0000.0001) %MON ad_exf_adatemp_min           =  -3.2473371788999E-03
(PID.TID 0000.0001) %MON ad_exf_adatemp_mean          =  -4.1346892699933E-04
(PID.TID 0000.0001) %MON ad_exf_adatemp_sd            =   9.0131589265578E-04
(PID.TID 0000.0001) %MON ad_exf_adatemp_del2          =   1.0390557376702E-04
(PID.TID 0000.0001) %MON ad_exf_adaqh_max             =   1.6801611333040E+00
(PID.TID 0000.0001) %MON ad_exf_adaqh_min             =  -1.0652959445226E+01
(PID.TID 0000.0001) %MON ad_exf_adaqh_mean            =  -1.8860052866636E+00
(PID.TID 0000.0001) %MON ad_exf_adaqh_sd              =   3.7447851232209E+00
(PID.TID 0000.0001) %MON ad_exf_adaqh_del2            =   3.2329795147169E-01
(PID.TID 0000.0001) %MON ad_exf_adlwflux_max          =   0.0000000000000E+00
(PID.TID 0000.0001) %MON ad_exf_adlwflux_min          =   0.0000000000000E+00
(PID.TID 0000.0001) %MON ad_exf_adlwflux_mean         =   0.0000000000000E+00
(PID.TID 0000.0001) %MON ad_exf_adlwflux_sd           =   0.0000000000000E+00
(PID.TID 0000.0001) %MON ad_exf_adlwflux_del2         =   0.0000000000000E+00
(PID.TID 0000.0001) %MON ad_exf_adprecip_max          =   5.1254034832870E+04
(PID.TID 0000.0001) %MON ad_exf_adprecip_min          =   0.0000000000000E+00
(PID.TID 0000.0001) %MON ad_exf_adprecip_mean         =   1.1252610153825E+04
(PID.TID 0000.0001) %MON ad_exf_adprecip_sd           =   1.8122467782434E+04
(PID.TID 0000.0001) %MON ad_exf_adprecip_del2         =   1.4233657977036E+03
(PID.TID 0000.0001) %MON ad_exf_adswflux_max          =   0.0000000000000E+00
(PID.TID 0000.0001) %MON ad_exf_adswflux_min          =   0.0000000000000E+00
(PID.TID 0000.0001) %MON ad_exf_adswflux_mean         =   0.0000000000000E+00
(PID.TID 0000.0001) %MON ad_exf_adswflux_sd           =   0.0000000000000E+00
(PID.TID 0000.0001) %MON ad_exf_adswflux_del2         =   0.0000000000000E+00
(PID.TID 0000.0001) %MON ad_exf_adswdown_max          =   2.1159815191959E-05
(PID.TID 0000.0001) %MON ad_exf_adswdown_min          =  -3.2373498607969E-04
(PID.TID 0000.0001) %MON ad_exf_adswdown_mean         =  -7.3693780600995E-05
(PID.TID 0000.0001) %MON ad_exf_adswdown_sd           =   1.2936264797666E-04
(PID.TID 0000.0001) %MON ad_exf_adswdown_del2         =   1.1487709207763E-05
(PID.TID 0000.0001) %MON ad_exf_adlwdown_max          =   8.1129801154184E-05
(PID.TID 0000.0001) %MON ad_exf_adlwdown_min          =  -4.5339132310311E-04
(PID.TID 0000.0001) %MON ad_exf_adlwdown_mean         =  -9.7763627224993E-05
(PID.TID 0000.0001) %MON ad_exf_adlwdown_sd           =   1.8682617621079E-04
(PID.TID 0000.0001) %MON ad_exf_adlwdown_del2         =   1.7148270499906E-05
(PID.TID 0000.0001) // =======================================================
(PID.TID 0000.0001) // End AD_MONITOR EXF statistics for iwhen =  2
(PID.TID 0000.0001) // =======================================================
(PID.TID 0000.0001) // =======================================================
(PID.TID 0000.0001) // Begin MONITOR dynamic field statistics
(PID.TID 0000.0001) // =======================================================
(PID.TID 0000.0001) %MON ad_time_tsnumber             =                     2
(PID.TID 0000.0001) %MON ad_time_secondsf             =   7.2000000000000E+03
(PID.TID 0000.0001) %MON ad_dynstat_adeta_max         =   2.0502387758149E+00
(PID.TID 0000.0001) %MON ad_dynstat_adeta_min         =  -1.7358029244031E+00
(PID.TID 0000.0001) %MON ad_dynstat_adeta_mean        =   9.2275109612083E-03
(PID.TID 0000.0001) %MON ad_dynstat_adeta_sd          =   4.6091912490119E-01
(PID.TID 0000.0001) %MON ad_dynstat_adeta_del2        =   5.8441839164787E-02
(PID.TID 0000.0001) %MON ad_dynstat_aduvel_max        =   4.3553498002416E-01
(PID.TID 0000.0001) %MON ad_dynstat_aduvel_min        =  -6.2614769617952E-01
(PID.TID 0000.0001) %MON ad_dynstat_aduvel_mean       =  -1.9410374272846E-01
(PID.TID 0000.0001) %MON ad_dynstat_aduvel_sd         =   1.8166874575839E-01
(PID.TID 0000.0001) %MON ad_dynstat_aduvel_del2       =   1.8069376870189E-03
(PID.TID 0000.0001) %MON ad_dynstat_advvel_max        =   1.3893131172463E+00
(PID.TID 0000.0001) %MON ad_dynstat_advvel_min        =  -2.2562879725729E-01
(PID.TID 0000.0001) %MON ad_dynstat_advvel_mean       =   3.8212747878194E-01
(PID.TID 0000.0001) %MON ad_dynstat_advvel_sd         =   3.0214653120994E-01
(PID.TID 0000.0001) %MON ad_dynstat_advvel_del2       =   3.0081655211277E-03
(PID.TID 0000.0001) %MON ad_dynstat_adwvel_max        =   3.2288159946204E+00
(PID.TID 0000.0001) %MON ad_dynstat_adwvel_min        =  -4.7667179811865E+00
(PID.TID 0000.0001) %MON ad_dynstat_adwvel_mean       =   1.2733438630184E-04
(PID.TID 0000.0001) %MON ad_dynstat_adwvel_sd         =   9.4048065188914E-02
(PID.TID 0000.0001) %MON ad_dynstat_adwvel_del2       =   1.0134181133225E-02
(PID.TID 0000.0001) %MON ad_dynstat_adtheta_max       =   3.7856374816666E-02
(PID.TID 0000.0001) %MON ad_dynstat_adtheta_min       =  -1.0750207599569E+01
(PID.TID 0000.0001) %MON ad_dynstat_adtheta_mean      =  -4.2233956767095E-02
(PID.TID 0000.0001) %MON ad_dynstat_adtheta_sd        =   5.5836699543461E-01
(PID.TID 0000.0001) %MON ad_dynstat_adtheta_del2      =   2.0677187945131E-02
(PID.TID 0000.0001) %MON ad_dynstat_adsalt_max        =   2.7011371001709E-01
(PID.TID 0000.0001) %MON ad_dynstat_adsalt_min        =  -6.3742846631496E+00
(PID.TID 0000.0001) %MON ad_dynstat_adsalt_mean       =  -2.9340344973445E-02
(PID.TID 0000.0001) %MON ad_dynstat_adsalt_sd         =   3.9951730992444E-01
(PID.TID 0000.0001) %MON ad_dynstat_adsalt_del2       =   1.3840204462768E-02
(PID.TID 0000.0001) %MON ad_forcing_adqnet_max        =   0.0000000000000E+00
(PID.TID 0000.0001) %MON ad_forcing_adqnet_min        =   0.0000000000000E+00
(PID.TID 0000.0001) %MON ad_forcing_adqnet_mean       =   0.0000000000000E+00
(PID.TID 0000.0001) %MON ad_forcing_adqnet_sd         =   0.0000000000000E+00
(PID.TID 0000.0001) %MON ad_forcing_adqnet_del2       =   0.0000000000000E+00
(PID.TID 0000.0001) %MON ad_forcing_adqsw_max         =   0.0000000000000E+00
(PID.TID 0000.0001) %MON ad_forcing_adqsw_min         =   0.0000000000000E+00
(PID.TID 0000.0001) %MON ad_forcing_adqsw_mean        =   0.0000000000000E+00
(PID.TID 0000.0001) %MON ad_forcing_adqsw_sd          =   0.0000000000000E+00
(PID.TID 0000.0001) %MON ad_forcing_adqsw_del2        =   0.0000000000000E+00
(PID.TID 0000.0001) %MON ad_forcing_adempmr_max       =   0.0000000000000E+00
(PID.TID 0000.0001) %MON ad_forcing_adempmr_min       =   0.0000000000000E+00
(PID.TID 0000.0001) %MON ad_forcing_adempmr_mean      =   0.0000000000000E+00
(PID.TID 0000.0001) %MON ad_forcing_adempmr_sd        =   0.0000000000000E+00
(PID.TID 0000.0001) %MON ad_forcing_adempmr_del2      =   0.0000000000000E+00
(PID.TID 0000.0001) %MON ad_forcing_adfu_max          =   0.0000000000000E+00
(PID.TID 0000.0001) %MON ad_forcing_adfu_min          =   0.0000000000000E+00
(PID.TID 0000.0001) %MON ad_forcing_adfu_mean         =   0.0000000000000E+00
(PID.TID 0000.0001) %MON ad_forcing_adfu_sd           =   0.0000000000000E+00
(PID.TID 0000.0001) %MON ad_forcing_adfu_del2         =   0.0000000000000E+00
(PID.TID 0000.0001) %MON ad_forcing_adfv_max          =   0.0000000000000E+00
(PID.TID 0000.0001) %MON ad_forcing_adfv_min          =   0.0000000000000E+00
(PID.TID 0000.0001) %MON ad_forcing_adfv_mean         =   0.0000000000000E+00
(PID.TID 0000.0001) %MON ad_forcing_adfv_sd           =   0.0000000000000E+00
(PID.TID 0000.0001) %MON ad_forcing_adfv_del2         =   0.0000000000000E+00
(PID.TID 0000.0001) %MON ad_advcfl_aduvel_max         =   1.7671483847124E-02
(PID.TID 0000.0001) %MON ad_advcfl_advvel_max         =   2.2489907467066E-02
(PID.TID 0000.0001) %MON ad_advcfl_adwvel_max         =   3.4320369464542E+03
(PID.TID 0000.0001) %MON ad_advcfl_adW_hf_max         =   1.1623737580634E+03
(PID.TID 0000.0001) // =======================================================
(PID.TID 0000.0001) // End MONITOR dynamic field statistics
(PID.TID 0000.0001) // =======================================================
(PID.TID 0000.0001) // =======================================================
(PID.TID 0000.0001) // Begin AD_MONITOR SEAICE statistics
(PID.TID 0000.0001) // =======================================================
(PID.TID 0000.0001) %MON ad_seaice_tsnumber           =                     2
(PID.TID 0000.0001) %MON ad_seaice_time_sec           =   7.2000000000000E+03
(PID.TID 0000.0001) %MON ad_seaice_aduice_max         =   3.2304701904840E+00
(PID.TID 0000.0001) %MON ad_seaice_aduice_min         =  -3.0672534467111E+00
(PID.TID 0000.0001) %MON ad_seaice_aduice_mean        =   1.4891434653799E-02
(PID.TID 0000.0001) %MON ad_seaice_aduice_sd          =   5.8214178773101E-01
(PID.TID 0000.0001) %MON ad_seaice_aduice_del2        =   1.7396826284580E-01
(PID.TID 0000.0001) %MON ad_seaice_advice_max         =   1.7724730342105E+00
(PID.TID 0000.0001) %MON ad_seaice_advice_min         =  -2.1879493670207E+00
(PID.TID 0000.0001) %MON ad_seaice_advice_mean        =   7.7694385022155E-03
(PID.TID 0000.0001) %MON ad_seaice_advice_sd          =   4.3234665114133E-01
(PID.TID 0000.0001) %MON ad_seaice_advice_del2        =   1.4365723693253E-01
(PID.TID 0000.0001) %MON ad_seaice_adarea_max         =   6.2143653385021E-01
(PID.TID 0000.0001) %MON ad_seaice_adarea_min         =  -1.9433875457001E-01
(PID.TID 0000.0001) %MON ad_seaice_adarea_mean        =  -2.7726614436518E-02
(PID.TID 0000.0001) %MON ad_seaice_adarea_sd          =   8.7405171234565E-02
(PID.TID 0000.0001) %MON ad_seaice_adarea_del2        =   1.6546762395497E-02
(PID.TID 0000.0001) %MON ad_seaice_adheff_max         =   4.9769935867720E+01
(PID.TID 0000.0001) %MON ad_seaice_adheff_min         =   0.0000000000000E+00
(PID.TID 0000.0001) %MON ad_seaice_adheff_mean        =   7.0365230766047E+00
(PID.TID 0000.0001) %MON ad_seaice_adheff_sd          =   1.6836956475402E+01
(PID.TID 0000.0001) %MON ad_seaice_adheff_del2        =   2.2448916292956E+00
(PID.TID 0000.0001) %MON ad_seaice_adhsnow_max        =   3.2489254672733E-01
(PID.TID 0000.0001) %MON ad_seaice_adhsnow_min        =  -1.2992318997759E-01
(PID.TID 0000.0001) %MON ad_seaice_adhsnow_mean       =   1.8038579795466E-02
(PID.TID 0000.0001) %MON ad_seaice_adhsnow_sd         =   5.1567720850645E-02
(PID.TID 0000.0001) %MON ad_seaice_adhsnow_del2       =   3.7351793190102E-03
(PID.TID 0000.0001) %MON ad_seaice_adhsalt_max        =   0.0000000000000E+00
(PID.TID 0000.0001) %MON ad_seaice_adhsalt_min        =   0.0000000000000E+00
(PID.TID 0000.0001) %MON ad_seaice_adhsalt_mean       =   0.0000000000000E+00
(PID.TID 0000.0001) %MON ad_seaice_adhsalt_sd         =   0.0000000000000E+00
(PID.TID 0000.0001) %MON ad_seaice_adhsalt_del2       =   0.0000000000000E+00
(PID.TID 0000.0001) // =======================================================
(PID.TID 0000.0001) // End AD_MONITOR SEAICE statistics
(PID.TID 0000.0001) // =======================================================
 cg2d: Sum(rhs),rhsMax =   1.57165946923499E-15  8.21399619188048E-04
(PID.TID 0000.0001) // =======================================================
(PID.TID 0000.0001) // Begin AD_MONITOR EXF statistics for iwhen =  3
(PID.TID 0000.0001) // =======================================================
(PID.TID 0000.0001) %MON ad_exf_tsnumber              =                     1
(PID.TID 0000.0001) %MON ad_exf_time_sec              =   3.6000000000000E+03
(PID.TID 0000.0001) %MON ad_exf_adfu_max              =   2.9650076125884E-01
(PID.TID 0000.0001) %MON ad_exf_adfu_min              =  -1.6062314865536E-01
(PID.TID 0000.0001) %MON ad_exf_adfu_mean             =   3.9103110523468E-02
(PID.TID 0000.0001) %MON ad_exf_adfu_sd               =   8.3073267771486E-02
(PID.TID 0000.0001) %MON ad_exf_adfu_del2             =   1.0786001939109E-02
(PID.TID 0000.0001) %MON ad_exf_adfv_max              =   1.6509911355091E-01
(PID.TID 0000.0001) %MON ad_exf_adfv_min              =  -2.2946772802602E-01
(PID.TID 0000.0001) %MON ad_exf_adfv_mean             =   1.4158496086385E-04
(PID.TID 0000.0001) %MON ad_exf_adfv_sd               =   5.8843052821477E-02
(PID.TID 0000.0001) %MON ad_exf_adfv_del2             =   1.0304108811365E-02
(PID.TID 0000.0001) %MON ad_exf_adqnet_max            =   9.4489460943965E-04
(PID.TID 0000.0001) %MON ad_exf_adqnet_min            =   1.4251620558885E-04
(PID.TID 0000.0001) %MON ad_exf_adqnet_mean           =   5.2827023884156E-04
(PID.TID 0000.0001) %MON ad_exf_adqnet_sd             =   2.7999640103458E-04
(PID.TID 0000.0001) %MON ad_exf_adqnet_del2           =   2.2464233093036E-05
(PID.TID 0000.0001) %MON ad_exf_adempmr_max           =  -2.1405701313424E+01
(PID.TID 0000.0001) %MON ad_exf_adempmr_min           =  -9.9885952414426E+01
(PID.TID 0000.0001) %MON ad_exf_adempmr_mean          =  -5.9097708217186E+01
(PID.TID 0000.0001) %MON ad_exf_adempmr_sd            =   1.7289928781280E+01
(PID.TID 0000.0001) %MON ad_exf_adempmr_del2          =   2.0460197064187E+00
(PID.TID 0000.0001) // =======================================================
(PID.TID 0000.0001) // End AD_MONITOR EXF statistics for iwhen =  3
(PID.TID 0000.0001) // =======================================================
(PID.TID 0000.0001) // =======================================================
(PID.TID 0000.0001) // Begin AD_MONITOR EXF statistics for iwhen =  1
(PID.TID 0000.0001) // =======================================================
(PID.TID 0000.0001) %MON ad_exf_tsnumber              =                     1
(PID.TID 0000.0001) %MON ad_exf_time_sec              =   3.6000000000000E+03
(PID.TID 0000.0001) %MON ad_exf_adustress_max         =   2.4588372268298E-01
(PID.TID 0000.0001) %MON ad_exf_adustress_min         =  -3.4508099860936E-02
(PID.TID 0000.0001) %MON ad_exf_adustress_mean        =   1.7986110600516E-02
(PID.TID 0000.0001) %MON ad_exf_adustress_sd          =   5.0251485925319E-02
(PID.TID 0000.0001) %MON ad_exf_adustress_del2        =   2.8616687402942E-03
(PID.TID 0000.0001) %MON ad_exf_advstress_max         =   1.1654156190718E-01
(PID.TID 0000.0001) %MON ad_exf_advstress_min         =  -1.6099564585453E-01
(PID.TID 0000.0001) %MON ad_exf_advstress_mean        =  -3.4675227038651E-03
(PID.TID 0000.0001) %MON ad_exf_advstress_sd          =   2.8186738302134E-02
(PID.TID 0000.0001) %MON ad_exf_advstress_del2        =   2.7635599410368E-03
(PID.TID 0000.0001) %MON ad_exf_adhflux_max           =   8.9461308758870E-04
(PID.TID 0000.0001) %MON ad_exf_adhflux_min           =   0.0000000000000E+00
(PID.TID 0000.0001) %MON ad_exf_adhflux_mean          =   1.3047888788104E-04
(PID.TID 0000.0001) %MON ad_exf_adhflux_sd            =   3.0116508967139E-04
(PID.TID 0000.0001) %MON ad_exf_adhflux_del2          =   2.6536368293189E-05
(PID.TID 0000.0001) %MON ad_exf_adsflux_max           =   0.0000000000000E+00
(PID.TID 0000.0001) %MON ad_exf_adsflux_min           =   0.0000000000000E+00
(PID.TID 0000.0001) %MON ad_exf_adsflux_mean          =   0.0000000000000E+00
(PID.TID 0000.0001) %MON ad_exf_adsflux_sd            =   0.0000000000000E+00
(PID.TID 0000.0001) %MON ad_exf_adsflux_del2          =   0.0000000000000E+00
(PID.TID 0000.0001) %MON ad_exf_adwspeed_max          =   7.6332805909631E-04
(PID.TID 0000.0001) %MON ad_exf_adwspeed_min          =  -2.0292176619810E-03
(PID.TID 0000.0001) %MON ad_exf_adwspeed_mean         =   3.8137794972992E-05
(PID.TID 0000.0001) %MON ad_exf_adwspeed_sd           =   3.2507131440664E-04
(PID.TID 0000.0001) %MON ad_exf_adwspeed_del2         =   6.1256456086952E-05
(PID.TID 0000.0001) // =======================================================
(PID.TID 0000.0001) // End AD_MONITOR EXF statistics for iwhen =  1
(PID.TID 0000.0001) // =======================================================
(PID.TID 0000.0001) // =======================================================
(PID.TID 0000.0001) // Begin AD_MONITOR EXF statistics for iwhen =  2
(PID.TID 0000.0001) // =======================================================
(PID.TID 0000.0001) %MON ad_exf_tsnumber              =                     1
(PID.TID 0000.0001) %MON ad_exf_time_sec              =   3.6000000000000E+03
(PID.TID 0000.0001) %MON ad_exf_aduwind_max           =   1.5117470067769E-02
(PID.TID 0000.0001) %MON ad_exf_aduwind_min           =  -4.0543393399204E-02
(PID.TID 0000.0001) %MON ad_exf_aduwind_mean          =  -3.3503159833764E-03
(PID.TID 0000.0001) %MON ad_exf_aduwind_sd            =   9.1569445922727E-03
(PID.TID 0000.0001) %MON ad_exf_aduwind_del2          =   9.3008643219539E-04
(PID.TID 0000.0001) %MON ad_exf_advwind_max           =   4.4515627351044E-03
(PID.TID 0000.0001) %MON ad_exf_advwind_min           =  -3.6439423147524E-03
(PID.TID 0000.0001) %MON ad_exf_advwind_mean          =  -3.0047050822755E-05
(PID.TID 0000.0001) %MON ad_exf_advwind_sd            =   1.4703281983984E-03
(PID.TID 0000.0001) %MON ad_exf_advwind_del2          =   2.1500296277079E-04
(PID.TID 0000.0001) %MON ad_exf_adatemp_max           =   6.0352380290659E-04
(PID.TID 0000.0001) %MON ad_exf_adatemp_min           =  -5.8388404066320E-03
(PID.TID 0000.0001) %MON ad_exf_adatemp_mean          =  -6.1253228366827E-04
(PID.TID 0000.0001) %MON ad_exf_adatemp_sd            =   1.5301298432550E-03
(PID.TID 0000.0001) %MON ad_exf_adatemp_del2          =   1.5823518691817E-04
(PID.TID 0000.0001) %MON ad_exf_adaqh_max             =   2.0239167736561E+00
(PID.TID 0000.0001) %MON ad_exf_adaqh_min             =  -2.1357425623656E+01
(PID.TID 0000.0001) %MON ad_exf_adaqh_mean            =  -2.5552851418399E+00
(PID.TID 0000.0001) %MON ad_exf_adaqh_sd              =   6.2802653543137E+00
(PID.TID 0000.0001) %MON ad_exf_adaqh_del2            =   5.6688161999894E-01
(PID.TID 0000.0001) %MON ad_exf_adlwflux_max          =   0.0000000000000E+00
(PID.TID 0000.0001) %MON ad_exf_adlwflux_min          =   0.0000000000000E+00
(PID.TID 0000.0001) %MON ad_exf_adlwflux_mean         =   0.0000000000000E+00
(PID.TID 0000.0001) %MON ad_exf_adlwflux_sd           =   0.0000000000000E+00
(PID.TID 0000.0001) %MON ad_exf_adlwflux_del2         =   0.0000000000000E+00
(PID.TID 0000.0001) %MON ad_exf_adprecip_max          =   1.7478432016625E+05
(PID.TID 0000.0001) %MON ad_exf_adprecip_min          =   3.2399684684954E+01
(PID.TID 0000.0001) %MON ad_exf_adprecip_mean         =   3.7243809775326E+04
(PID.TID 0000.0001) %MON ad_exf_adprecip_sd           =   5.4628784920667E+04
(PID.TID 0000.0001) %MON ad_exf_adprecip_del2         =   5.5497749876491E+03
(PID.TID 0000.0001) %MON ad_exf_adswflux_max          =   0.0000000000000E+00
(PID.TID 0000.0001) %MON ad_exf_adswflux_min          =   0.0000000000000E+00
(PID.TID 0000.0001) %MON ad_exf_adswflux_mean         =   0.0000000000000E+00
(PID.TID 0000.0001) %MON ad_exf_adswflux_sd           =   0.0000000000000E+00
(PID.TID 0000.0001) %MON ad_exf_adswflux_del2         =   0.0000000000000E+00
(PID.TID 0000.0001) %MON ad_exf_adswdown_max          =   1.3155445453374E-05
(PID.TID 0000.0001) %MON ad_exf_adswdown_min          =  -6.1968726926342E-04
(PID.TID 0000.0001) %MON ad_exf_adswdown_mean         =  -9.0730859131053E-05
(PID.TID 0000.0001) %MON ad_exf_adswdown_sd           =   2.0924604527541E-04
(PID.TID 0000.0001) %MON ad_exf_adswdown_del2         =   1.8876564859832E-05
(PID.TID 0000.0001) %MON ad_exf_adlwdown_max          =   5.3294019881358E-05
(PID.TID 0000.0001) %MON ad_exf_adlwdown_min          =  -8.6779047296964E-04
(PID.TID 0000.0001) %MON ad_exf_adlwdown_mean         =  -1.2640149579787E-04
(PID.TID 0000.0001) %MON ad_exf_adlwdown_sd           =   2.9740899991698E-04
(PID.TID 0000.0001) %MON ad_exf_adlwdown_del2         =   2.8117070833265E-05
(PID.TID 0000.0001) // =======================================================
(PID.TID 0000.0001) // End AD_MONITOR EXF statistics for iwhen =  2
(PID.TID 0000.0001) // =======================================================
(PID.TID 0000.0001) // =======================================================
(PID.TID 0000.0001) // Begin MONITOR dynamic field statistics
(PID.TID 0000.0001) // =======================================================
(PID.TID 0000.0001) %MON ad_time_tsnumber             =                     1
(PID.TID 0000.0001) %MON ad_time_secondsf             =   3.6000000000000E+03
(PID.TID 0000.0001) %MON ad_dynstat_adeta_max         =   6.8661596313587E+00
(PID.TID 0000.0001) %MON ad_dynstat_adeta_min         =  -4.5570928144360E+00
(PID.TID 0000.0001) %MON ad_dynstat_adeta_mean        =   3.9514466310357E-02
(PID.TID 0000.0001) %MON ad_dynstat_adeta_sd          =   1.4413889315890E+00
(PID.TID 0000.0001) %MON ad_dynstat_adeta_del2        =   1.4941233100294E-01
(PID.TID 0000.0001) %MON ad_dynstat_aduvel_max        =   9.2620346180606E-01
(PID.TID 0000.0001) %MON ad_dynstat_aduvel_min        =  -1.2398912112920E+00
(PID.TID 0000.0001) %MON ad_dynstat_aduvel_mean       =  -2.7041126409804E-01
(PID.TID 0000.0001) %MON ad_dynstat_aduvel_sd         =   3.4301171206401E-01
(PID.TID 0000.0001) %MON ad_dynstat_aduvel_del2       =   3.6701965379747E-03
(PID.TID 0000.0001) %MON ad_dynstat_advvel_max        =   2.8308275861281E+00
(PID.TID 0000.0001) %MON ad_dynstat_advvel_min        =  -5.0639130477757E-01
(PID.TID 0000.0001) %MON ad_dynstat_advvel_mean       =   9.4910717937399E-01
(PID.TID 0000.0001) %MON ad_dynstat_advvel_sd         =   7.0456227423602E-01
(PID.TID 0000.0001) %MON ad_dynstat_advvel_del2       =   6.0184007127797E-03
(PID.TID 0000.0001) %MON ad_dynstat_adwvel_max        =   3.7427076853309E+00
(PID.TID 0000.0001) %MON ad_dynstat_adwvel_min        =  -3.7435834907192E+00
(PID.TID 0000.0001) %MON ad_dynstat_adwvel_mean       =  -2.3842740401959E-05
(PID.TID 0000.0001) %MON ad_dynstat_adwvel_sd         =   8.4789833001496E-02
(PID.TID 0000.0001) %MON ad_dynstat_adwvel_del2       =   1.0311116412117E-02
(PID.TID 0000.0001) %MON ad_dynstat_adtheta_max       =   1.0685061761518E-01
(PID.TID 0000.0001) %MON ad_dynstat_adtheta_min       =  -1.6119865618859E+01
(PID.TID 0000.0001) %MON ad_dynstat_adtheta_mean      =  -5.2905277494264E-02
(PID.TID 0000.0001) %MON ad_dynstat_adtheta_sd        =   7.5353212038413E-01
(PID.TID 0000.0001) %MON ad_dynstat_adtheta_del2      =   3.1165024488306E-02
(PID.TID 0000.0001) %MON ad_dynstat_adsalt_max        =   1.0723979807602E+01
(PID.TID 0000.0001) %MON ad_dynstat_adsalt_min        =  -1.5804331493280E+01
(PID.TID 0000.0001) %MON ad_dynstat_adsalt_mean       =  -3.8660268910184E-02
(PID.TID 0000.0001) %MON ad_dynstat_adsalt_sd         =   6.3456929967117E-01
(PID.TID 0000.0001) %MON ad_dynstat_adsalt_del2       =   2.3988375467924E-02
(PID.TID 0000.0001) %MON ad_forcing_adqnet_max        =   0.0000000000000E+00
(PID.TID 0000.0001) %MON ad_forcing_adqnet_min        =   0.0000000000000E+00
(PID.TID 0000.0001) %MON ad_forcing_adqnet_mean       =   0.0000000000000E+00
(PID.TID 0000.0001) %MON ad_forcing_adqnet_sd         =   0.0000000000000E+00
(PID.TID 0000.0001) %MON ad_forcing_adqnet_del2       =   0.0000000000000E+00
(PID.TID 0000.0001) %MON ad_forcing_adqsw_max         =   0.0000000000000E+00
(PID.TID 0000.0001) %MON ad_forcing_adqsw_min         =   0.0000000000000E+00
(PID.TID 0000.0001) %MON ad_forcing_adqsw_mean        =   0.0000000000000E+00
(PID.TID 0000.0001) %MON ad_forcing_adqsw_sd          =   0.0000000000000E+00
(PID.TID 0000.0001) %MON ad_forcing_adqsw_del2        =   0.0000000000000E+00
(PID.TID 0000.0001) %MON ad_forcing_adempmr_max       =   0.0000000000000E+00
(PID.TID 0000.0001) %MON ad_forcing_adempmr_min       =   0.0000000000000E+00
(PID.TID 0000.0001) %MON ad_forcing_adempmr_mean      =   0.0000000000000E+00
(PID.TID 0000.0001) %MON ad_forcing_adempmr_sd        =   0.0000000000000E+00
(PID.TID 0000.0001) %MON ad_forcing_adempmr_del2      =   0.0000000000000E+00
(PID.TID 0000.0001) %MON ad_forcing_adfu_max          =   0.0000000000000E+00
(PID.TID 0000.0001) %MON ad_forcing_adfu_min          =   0.0000000000000E+00
(PID.TID 0000.0001) %MON ad_forcing_adfu_mean         =   0.0000000000000E+00
(PID.TID 0000.0001) %MON ad_forcing_adfu_sd           =   0.0000000000000E+00
(PID.TID 0000.0001) %MON ad_forcing_adfu_del2         =   0.0000000000000E+00
(PID.TID 0000.0001) %MON ad_forcing_adfv_max          =   0.0000000000000E+00
(PID.TID 0000.0001) %MON ad_forcing_adfv_min          =   0.0000000000000E+00
(PID.TID 0000.0001) %MON ad_forcing_adfv_mean         =   0.0000000000000E+00
(PID.TID 0000.0001) %MON ad_forcing_adfv_sd           =   0.0000000000000E+00
(PID.TID 0000.0001) %MON ad_forcing_adfv_del2         =   0.0000000000000E+00
(PID.TID 0000.0001) %MON ad_advcfl_aduvel_max         =   3.4992890090034E-02
(PID.TID 0000.0001) %MON ad_advcfl_advvel_max         =   4.5824839395043E-02
(PID.TID 0000.0001) %MON ad_advcfl_adwvel_max         =   2.6947495334383E+03
(PID.TID 0000.0001) %MON ad_advcfl_adW_hf_max         =   1.3476900566589E+03
(PID.TID 0000.0001) // =======================================================
(PID.TID 0000.0001) // End MONITOR dynamic field statistics
(PID.TID 0000.0001) // =======================================================
(PID.TID 0000.0001) // =======================================================
(PID.TID 0000.0001) // Begin AD_MONITOR SEAICE statistics
(PID.TID 0000.0001) // =======================================================
(PID.TID 0000.0001) %MON ad_seaice_tsnumber           =                     1
(PID.TID 0000.0001) %MON ad_seaice_time_sec           =   3.6000000000000E+03
(PID.TID 0000.0001) %MON ad_seaice_aduice_max         =   4.4111379475410E+02
(PID.TID 0000.0001) %MON ad_seaice_aduice_min         =  -2.2195453153438E+02
(PID.TID 0000.0001) %MON ad_seaice_aduice_mean        =  -8.0175375039732E-02
(PID.TID 0000.0001) %MON ad_seaice_aduice_sd          =   5.2863148727564E+01
(PID.TID 0000.0001) %MON ad_seaice_aduice_del2        =   1.4561483745783E+01
(PID.TID 0000.0001) %MON ad_seaice_advice_max         =   1.7333231652433E+02
(PID.TID 0000.0001) %MON ad_seaice_advice_min         =  -1.5043534865603E+02
(PID.TID 0000.0001) %MON ad_seaice_advice_mean        =   2.0995648663277E-01
(PID.TID 0000.0001) %MON ad_seaice_advice_sd          =   2.6335306451098E+01
(PID.TID 0000.0001) %MON ad_seaice_advice_del2        =   7.4354362803738E+00
(PID.TID 0000.0001) %MON ad_seaice_adarea_max         =   2.1973668925517E+01
(PID.TID 0000.0001) %MON ad_seaice_adarea_min         =  -1.4166732724090E+01
(PID.TID 0000.0001) %MON ad_seaice_adarea_mean        =  -4.3920202350770E-01
(PID.TID 0000.0001) %MON ad_seaice_adarea_sd          =   3.4146716400012E+00
(PID.TID 0000.0001) %MON ad_seaice_adarea_del2        =   7.0069235457054E-01
(PID.TID 0000.0001) %MON ad_seaice_adheff_max         =   9.9494817964092E+01
(PID.TID 0000.0001) %MON ad_seaice_adheff_min         =   0.0000000000000E+00
(PID.TID 0000.0001) %MON ad_seaice_adheff_mean        =   2.0083229405489E+01
(PID.TID 0000.0001) %MON ad_seaice_adheff_sd          =   3.6360626466976E+01
(PID.TID 0000.0001) %MON ad_seaice_adheff_del2        =   3.9143818450049E+00
(PID.TID 0000.0001) %MON ad_seaice_adhsnow_max        =   1.5987030408510E+01
(PID.TID 0000.0001) %MON ad_seaice_adhsnow_min        =  -9.3790573644940E-02
(PID.TID 0000.0001) %MON ad_seaice_adhsnow_mean       =   2.2575409995321E+00
(PID.TID 0000.0001) %MON ad_seaice_adhsnow_sd         =   5.3897095540534E+00
(PID.TID 0000.0001) %MON ad_seaice_adhsnow_del2       =   7.2131298807188E-01
(PID.TID 0000.0001) %MON ad_seaice_adhsalt_max        =   0.0000000000000E+00
(PID.TID 0000.0001) %MON ad_seaice_adhsalt_min        =   0.0000000000000E+00
(PID.TID 0000.0001) %MON ad_seaice_adhsalt_mean       =   0.0000000000000E+00
(PID.TID 0000.0001) %MON ad_seaice_adhsalt_sd         =   0.0000000000000E+00
(PID.TID 0000.0001) %MON ad_seaice_adhsalt_del2       =   0.0000000000000E+00
(PID.TID 0000.0001) // =======================================================
(PID.TID 0000.0001) // End AD_MONITOR SEAICE statistics
(PID.TID 0000.0001) // =======================================================
 cg2d: Sum(rhs),rhsMax =   3.27238236508265E-14  1.16727745928795E-04
(PID.TID 0000.0001) // =======================================================
(PID.TID 0000.0001) // Begin AD_MONITOR EXF statistics for iwhen =  3
(PID.TID 0000.0001) // =======================================================
(PID.TID 0000.0001) %MON ad_exf_tsnumber              =                     0
(PID.TID 0000.0001) %MON ad_exf_time_sec              =   0.0000000000000E+00
(PID.TID 0000.0001) %MON ad_exf_adfu_max              =   5.2898501908483E-01
(PID.TID 0000.0001) %MON ad_exf_adfu_min              =  -2.2763877362718E-01
(PID.TID 0000.0001) %MON ad_exf_adfu_mean             =   7.3072120077759E-02
(PID.TID 0000.0001) %MON ad_exf_adfu_sd               =   1.3403220140962E-01
(PID.TID 0000.0001) %MON ad_exf_adfu_del2             =   1.0579860437208E-02
(PID.TID 0000.0001) %MON ad_exf_adfv_max              =   2.6151147447738E-01
(PID.TID 0000.0001) %MON ad_exf_adfv_min              =  -3.0132210070477E-01
(PID.TID 0000.0001) %MON ad_exf_adfv_mean             =   5.6622048853038E-03
(PID.TID 0000.0001) %MON ad_exf_adfv_sd               =   8.3688524464976E-02
(PID.TID 0000.0001) %MON ad_exf_adfv_del2             =   1.0331796293006E-02
(PID.TID 0000.0001) %MON ad_exf_adqnet_max            =   1.4168554661555E-03
(PID.TID 0000.0001) %MON ad_exf_adqnet_min            =   1.0853864136773E-04
(PID.TID 0000.0001) %MON ad_exf_adqnet_mean           =   6.3365198766613E-04
(PID.TID 0000.0001) %MON ad_exf_adqnet_sd             =   4.8687357239493E-04
(PID.TID 0000.0001) %MON ad_exf_adqnet_del2           =   3.4691420595188E-05
(PID.TID 0000.0001) %MON ad_exf_adempmr_max           =  -2.5841565014535E+01
(PID.TID 0000.0001) %MON ad_exf_adempmr_min           =  -1.1717830914413E+02
(PID.TID 0000.0001) %MON ad_exf_adempmr_mean          =  -8.4866360497987E+01
(PID.TID 0000.0001) %MON ad_exf_adempmr_sd            =   2.2506615962778E+01
(PID.TID 0000.0001) %MON ad_exf_adempmr_del2          =   3.1234682983104E+00
(PID.TID 0000.0001) // =======================================================
(PID.TID 0000.0001) // End AD_MONITOR EXF statistics for iwhen =  3
(PID.TID 0000.0001) // =======================================================
(PID.TID 0000.0001) // =======================================================
(PID.TID 0000.0001) // Begin AD_MONITOR EXF statistics for iwhen =  1
(PID.TID 0000.0001) // =======================================================
(PID.TID 0000.0001) %MON ad_exf_tsnumber              =                     0
(PID.TID 0000.0001) %MON ad_exf_time_sec              =   0.0000000000000E+00
(PID.TID 0000.0001) %MON ad_exf_adustress_max         =   0.0000000000000E+00
(PID.TID 0000.0001) %MON ad_exf_adustress_min         =   0.0000000000000E+00
(PID.TID 0000.0001) %MON ad_exf_adustress_mean        =   0.0000000000000E+00
(PID.TID 0000.0001) %MON ad_exf_adustress_sd          =   0.0000000000000E+00
(PID.TID 0000.0001) %MON ad_exf_adustress_del2        =   0.0000000000000E+00
(PID.TID 0000.0001) %MON ad_exf_advstress_max         =   0.0000000000000E+00
(PID.TID 0000.0001) %MON ad_exf_advstress_min         =   0.0000000000000E+00
(PID.TID 0000.0001) %MON ad_exf_advstress_mean        =   0.0000000000000E+00
(PID.TID 0000.0001) %MON ad_exf_advstress_sd          =   0.0000000000000E+00
(PID.TID 0000.0001) %MON ad_exf_advstress_del2        =   0.0000000000000E+00
(PID.TID 0000.0001) %MON ad_exf_adhflux_max           =   0.0000000000000E+00
(PID.TID 0000.0001) %MON ad_exf_adhflux_min           =   0.0000000000000E+00
(PID.TID 0000.0001) %MON ad_exf_adhflux_mean          =   0.0000000000000E+00
(PID.TID 0000.0001) %MON ad_exf_adhflux_sd            =   0.0000000000000E+00
(PID.TID 0000.0001) %MON ad_exf_adhflux_del2          =   0.0000000000000E+00
(PID.TID 0000.0001) %MON ad_exf_adsflux_max           =   0.0000000000000E+00
(PID.TID 0000.0001) %MON ad_exf_adsflux_min           =   0.0000000000000E+00
(PID.TID 0000.0001) %MON ad_exf_adsflux_mean          =   0.0000000000000E+00
(PID.TID 0000.0001) %MON ad_exf_adsflux_sd            =   0.0000000000000E+00
(PID.TID 0000.0001) %MON ad_exf_adsflux_del2          =   0.0000000000000E+00
(PID.TID 0000.0001) %MON ad_exf_adwspeed_max          =   1.0375221227463E-02
(PID.TID 0000.0001) %MON ad_exf_adwspeed_min          =  -1.5223145807844E-03
(PID.TID 0000.0001) %MON ad_exf_adwspeed_mean         =   7.6082317615157E-04
(PID.TID 0000.0001) %MON ad_exf_adwspeed_sd           =   2.0752329709678E-03
(PID.TID 0000.0001) %MON ad_exf_adwspeed_del2         =   1.2398210711267E-04
(PID.TID 0000.0001) // =======================================================
(PID.TID 0000.0001) // End AD_MONITOR EXF statistics for iwhen =  1
(PID.TID 0000.0001) // =======================================================
(PID.TID 0000.0001) // =======================================================
(PID.TID 0000.0001) // Begin AD_MONITOR EXF statistics for iwhen =  2
(PID.TID 0000.0001) // =======================================================
(PID.TID 0000.0001) %MON ad_exf_tsnumber              =                     0
(PID.TID 0000.0001) %MON ad_exf_time_sec              =   0.0000000000000E+00
(PID.TID 0000.0001) %MON ad_exf_aduwind_max           =   1.6011988538358E-02
(PID.TID 0000.0001) %MON ad_exf_aduwind_min           =  -8.4295627944579E-03
(PID.TID 0000.0001) %MON ad_exf_aduwind_mean          =   1.6603579062609E-03
(PID.TID 0000.0001) %MON ad_exf_aduwind_sd            =   3.2017240062995E-03
(PID.TID 0000.0001) %MON ad_exf_aduwind_del2          =   4.1577000554951E-04
(PID.TID 0000.0001) %MON ad_exf_advwind_max           =   9.3847110159179E-03
(PID.TID 0000.0001) %MON ad_exf_advwind_min           =  -4.4809973119111E-03
(PID.TID 0000.0001) %MON ad_exf_advwind_mean          =   1.1494659320690E-04
(PID.TID 0000.0001) %MON ad_exf_advwind_sd            =   2.0395376727324E-03
(PID.TID 0000.0001) %MON ad_exf_advwind_del2          =   1.5637691823088E-04
(PID.TID 0000.0001) %MON ad_exf_adatemp_max           =   5.6766960410053E-03
(PID.TID 0000.0001) %MON ad_exf_adatemp_min           =  -3.2866617239742E-04
(PID.TID 0000.0001) %MON ad_exf_adatemp_mean          =   5.9538578164567E-04
(PID.TID 0000.0001) %MON ad_exf_adatemp_sd            =   1.4297260611953E-03
(PID.TID 0000.0001) %MON ad_exf_adatemp_del2          =   1.0585607890329E-04
(PID.TID 0000.0001) %MON ad_exf_adaqh_max             =   1.6007717990258E+01
(PID.TID 0000.0001) %MON ad_exf_adaqh_min             =  -9.2680590305900E-01
(PID.TID 0000.0001) %MON ad_exf_adaqh_mean            =   1.6789286618745E+00
(PID.TID 0000.0001) %MON ad_exf_adaqh_sd              =   4.0316852312711E+00
(PID.TID 0000.0001) %MON ad_exf_adaqh_del2            =   2.9850360956410E-01
(PID.TID 0000.0001) %MON ad_exf_adlwflux_max          =   0.0000000000000E+00
(PID.TID 0000.0001) %MON ad_exf_adlwflux_min          =   0.0000000000000E+00
(PID.TID 0000.0001) %MON ad_exf_adlwflux_mean         =   0.0000000000000E+00
(PID.TID 0000.0001) %MON ad_exf_adlwflux_sd           =   0.0000000000000E+00
(PID.TID 0000.0001) %MON ad_exf_adlwflux_del2         =   0.0000000000000E+00
(PID.TID 0000.0001) %MON ad_exf_adprecip_max          =   3.6840054020062E+05
(PID.TID 0000.0001) %MON ad_exf_adprecip_min          =   9.2463773070497E+01
(PID.TID 0000.0001) %MON ad_exf_adprecip_mean         =   6.8942302507932E+04
(PID.TID 0000.0001) %MON ad_exf_adprecip_sd           =   1.1054585629274E+05
(PID.TID 0000.0001) %MON ad_exf_adprecip_del2         =   1.0429012464790E+04
(PID.TID 0000.0001) %MON ad_exf_adswflux_max          =   0.0000000000000E+00
(PID.TID 0000.0001) %MON ad_exf_adswflux_min          =   0.0000000000000E+00
(PID.TID 0000.0001) %MON ad_exf_adswflux_mean         =   0.0000000000000E+00
(PID.TID 0000.0001) %MON ad_exf_adswflux_sd           =   0.0000000000000E+00
(PID.TID 0000.0001) %MON ad_exf_adswflux_del2         =   0.0000000000000E+00
(PID.TID 0000.0001) %MON ad_exf_adswdown_max          =   1.5056875021136E-04
(PID.TID 0000.0001) %MON ad_exf_adswdown_min          =  -1.1747190446558E-05
(PID.TID 0000.0001) %MON ad_exf_adswdown_mean         =   9.3622078858291E-06
(PID.TID 0000.0001) %MON ad_exf_adswdown_sd           =   2.4155649073220E-05
(PID.TID 0000.0001) %MON ad_exf_adswdown_del2         =   1.9815366128765E-06
(PID.TID 0000.0001) %MON ad_exf_adlwdown_max          =   8.9400195437993E-04
(PID.TID 0000.0001) %MON ad_exf_adlwdown_min          =  -6.9748943276438E-05
(PID.TID 0000.0001) %MON ad_exf_adlwdown_mean         =   5.5588109322110E-05
(PID.TID 0000.0001) %MON ad_exf_adlwdown_sd           =   1.4342416637224E-04
(PID.TID 0000.0001) %MON ad_exf_adlwdown_del2         =   1.1765373638954E-05
(PID.TID 0000.0001) // =======================================================
(PID.TID 0000.0001) // End AD_MONITOR EXF statistics for iwhen =  2
(PID.TID 0000.0001) // =======================================================
(PID.TID 0000.0001) Start initial hydrostatic pressure computation
(PID.TID 0000.0001) Pressure is predetermined for buoyancyRelation OCEANIC
(PID.TID 0000.0001) 
(PID.TID 0000.0001) // =======================================================
(PID.TID 0000.0001) // Begin MONITOR dynamic field statistics
(PID.TID 0000.0001) // =======================================================
(PID.TID 0000.0001) %MON ad_time_tsnumber             =                     0
(PID.TID 0000.0001) %MON ad_time_secondsf             =   0.0000000000000E+00
(PID.TID 0000.0001) %MON ad_dynstat_adeta_max         =   3.7160597378316E+00
(PID.TID 0000.0001) %MON ad_dynstat_adeta_min         =  -2.3455453037025E+00
(PID.TID 0000.0001) %MON ad_dynstat_adeta_mean        =   5.2672619732763E-02
(PID.TID 0000.0001) %MON ad_dynstat_adeta_sd          =   1.0435521989402E+00
(PID.TID 0000.0001) %MON ad_dynstat_adeta_del2        =   8.2117254787542E-02
(PID.TID 0000.0001) %MON ad_dynstat_aduvel_max        =   2.5670074974908E+00
(PID.TID 0000.0001) %MON ad_dynstat_aduvel_min        =  -4.2011125337980E-01
(PID.TID 0000.0001) %MON ad_dynstat_aduvel_mean       =   7.6692569211059E-01
(PID.TID 0000.0001) %MON ad_dynstat_aduvel_sd         =   6.2511030245601E-01
(PID.TID 0000.0001) %MON ad_dynstat_aduvel_del2       =   3.3935941029118E-03
(PID.TID 0000.0001) %MON ad_dynstat_advvel_max        =   6.4699327412079E-01
(PID.TID 0000.0001) %MON ad_dynstat_advvel_min        =  -1.8466883708519E+00
(PID.TID 0000.0001) %MON ad_dynstat_advvel_mean       =  -2.2497857843858E-01
(PID.TID 0000.0001) %MON ad_dynstat_advvel_sd         =   5.0685136673437E-01
(PID.TID 0000.0001) %MON ad_dynstat_advvel_del2       =   6.2328044689075E-03
(PID.TID 0000.0001) %MON ad_dynstat_adwvel_max        =   0.0000000000000E+00
(PID.TID 0000.0001) %MON ad_dynstat_adwvel_min        =   0.0000000000000E+00
(PID.TID 0000.0001) %MON ad_dynstat_adwvel_mean       =   0.0000000000000E+00
(PID.TID 0000.0001) %MON ad_dynstat_adwvel_sd         =   0.0000000000000E+00
(PID.TID 0000.0001) %MON ad_dynstat_adwvel_del2       =   0.0000000000000E+00
(PID.TID 0000.0001) %MON ad_dynstat_adtheta_max       =   1.4974890056396E+03
(PID.TID 0000.0001) %MON ad_dynstat_adtheta_min       =  -1.4920429952191E+03
(PID.TID 0000.0001) %MON ad_dynstat_adtheta_mean      =  -5.6367600329730E-02
(PID.TID 0000.0001) %MON ad_dynstat_adtheta_sd        =   1.7398958562364E+01
(PID.TID 0000.0001) %MON ad_dynstat_adtheta_del2      =   3.4449222862079E+00
(PID.TID 0000.0001) %MON ad_dynstat_adsalt_max        =   8.6059565188240E+03
(PID.TID 0000.0001) %MON ad_dynstat_adsalt_min        =  -8.6861226984355E+03
(PID.TID 0000.0001) %MON ad_dynstat_adsalt_mean       =  -5.1780944285549E-02
(PID.TID 0000.0001) %MON ad_dynstat_adsalt_sd         =   9.9845765360871E+01
(PID.TID 0000.0001) %MON ad_dynstat_adsalt_del2       =   1.9882558939833E+01
(PID.TID 0000.0001) %MON ad_forcing_adqnet_max        =   0.0000000000000E+00
(PID.TID 0000.0001) %MON ad_forcing_adqnet_min        =   0.0000000000000E+00
(PID.TID 0000.0001) %MON ad_forcing_adqnet_mean       =   0.0000000000000E+00
(PID.TID 0000.0001) %MON ad_forcing_adqnet_sd         =   0.0000000000000E+00
(PID.TID 0000.0001) %MON ad_forcing_adqnet_del2       =   0.0000000000000E+00
(PID.TID 0000.0001) %MON ad_forcing_adqsw_max         =   0.0000000000000E+00
(PID.TID 0000.0001) %MON ad_forcing_adqsw_min         =   0.0000000000000E+00
(PID.TID 0000.0001) %MON ad_forcing_adqsw_mean        =   0.0000000000000E+00
(PID.TID 0000.0001) %MON ad_forcing_adqsw_sd          =   0.0000000000000E+00
(PID.TID 0000.0001) %MON ad_forcing_adqsw_del2        =   0.0000000000000E+00
(PID.TID 0000.0001) %MON ad_forcing_adempmr_max       =   0.0000000000000E+00
(PID.TID 0000.0001) %MON ad_forcing_adempmr_min       =   0.0000000000000E+00
(PID.TID 0000.0001) %MON ad_forcing_adempmr_mean      =   0.0000000000000E+00
(PID.TID 0000.0001) %MON ad_forcing_adempmr_sd        =   0.0000000000000E+00
(PID.TID 0000.0001) %MON ad_forcing_adempmr_del2      =   0.0000000000000E+00
(PID.TID 0000.0001) %MON ad_forcing_adfu_max          =   0.0000000000000E+00
(PID.TID 0000.0001) %MON ad_forcing_adfu_min          =   0.0000000000000E+00
(PID.TID 0000.0001) %MON ad_forcing_adfu_mean         =   0.0000000000000E+00
(PID.TID 0000.0001) %MON ad_forcing_adfu_sd           =   0.0000000000000E+00
(PID.TID 0000.0001) %MON ad_forcing_adfu_del2         =   0.0000000000000E+00
(PID.TID 0000.0001) %MON ad_forcing_adfv_max          =   0.0000000000000E+00
(PID.TID 0000.0001) %MON ad_forcing_adfv_min          =   0.0000000000000E+00
(PID.TID 0000.0001) %MON ad_forcing_adfv_mean         =   0.0000000000000E+00
(PID.TID 0000.0001) %MON ad_forcing_adfv_sd           =   0.0000000000000E+00
(PID.TID 0000.0001) %MON ad_forcing_adfv_del2         =   0.0000000000000E+00
(PID.TID 0000.0001) %MON ad_advcfl_aduvel_max         =   6.9048086026894E-02
(PID.TID 0000.0001) %MON ad_advcfl_advvel_max         =   2.9893801523508E-02
(PID.TID 0000.0001) %MON ad_advcfl_adwvel_max         =   0.0000000000000E+00
(PID.TID 0000.0001) %MON ad_advcfl_adW_hf_max         =   0.0000000000000E+00
(PID.TID 0000.0001) // =======================================================
(PID.TID 0000.0001) // End MONITOR dynamic field statistics
(PID.TID 0000.0001) // =======================================================
(PID.TID 0000.0001) // =======================================================
(PID.TID 0000.0001) // Begin AD_MONITOR SEAICE statistics
(PID.TID 0000.0001) // =======================================================
(PID.TID 0000.0001) %MON ad_seaice_tsnumber           =                     0
(PID.TID 0000.0001) %MON ad_seaice_time_sec           =   0.0000000000000E+00
(PID.TID 0000.0001) %MON ad_seaice_aduice_max         =   8.4289621444296E+01
(PID.TID 0000.0001) %MON ad_seaice_aduice_min         =  -1.6707906568751E+02
(PID.TID 0000.0001) %MON ad_seaice_aduice_mean        =  -4.3222936175319E-01
(PID.TID 0000.0001) %MON ad_seaice_aduice_sd          =   2.0991914858287E+01
(PID.TID 0000.0001) %MON ad_seaice_aduice_del2        =   5.5584091076206E+00
(PID.TID 0000.0001) %MON ad_seaice_advice_max         =   4.9529969621564E+01
(PID.TID 0000.0001) %MON ad_seaice_advice_min         =  -5.9806175339878E+01
(PID.TID 0000.0001) %MON ad_seaice_advice_mean        =  -2.4960035732434E-01
(PID.TID 0000.0001) %MON ad_seaice_advice_sd          =   8.8296211238099E+00
(PID.TID 0000.0001) %MON ad_seaice_advice_del2        =   2.5803898294510E+00
(PID.TID 0000.0001) %MON ad_seaice_adarea_max         =   1.1391833586655E+01
(PID.TID 0000.0001) %MON ad_seaice_adarea_min         =  -5.4492036482285E+00
(PID.TID 0000.0001) %MON ad_seaice_adarea_mean        =   5.4912111931684E-01
(PID.TID 0000.0001) %MON ad_seaice_adarea_sd          =   1.8855928892695E+00
(PID.TID 0000.0001) %MON ad_seaice_adarea_del2        =   3.3160217640999E-01
(PID.TID 0000.0001) %MON ad_seaice_adheff_max         =   1.4923895045862E+02
(PID.TID 0000.0001) %MON ad_seaice_adheff_min         =   8.2886647932273E-01
(PID.TID 0000.0001) %MON ad_seaice_adheff_mean        =   4.0336602591982E+01
(PID.TID 0000.0001) %MON ad_seaice_adheff_sd          =   5.4211553227356E+01
(PID.TID 0000.0001) %MON ad_seaice_adheff_del2        =   3.2464139934285E+00
(PID.TID 0000.0001) %MON ad_seaice_adhsnow_max        =   3.4024832580057E+01
(PID.TID 0000.0001) %MON ad_seaice_adhsnow_min        =  -2.3797319708603E-03
(PID.TID 0000.0001) %MON ad_seaice_adhsnow_mean       =   6.7107892813216E+00
(PID.TID 0000.0001) %MON ad_seaice_adhsnow_sd         =   1.2127550005986E+01
(PID.TID 0000.0001) %MON ad_seaice_adhsnow_del2       =   1.2776083065514E+00
(PID.TID 0000.0001) %MON ad_seaice_adhsalt_max        =   0.0000000000000E+00
(PID.TID 0000.0001) %MON ad_seaice_adhsalt_min        =   0.0000000000000E+00
(PID.TID 0000.0001) %MON ad_seaice_adhsalt_mean       =   0.0000000000000E+00
(PID.TID 0000.0001) %MON ad_seaice_adhsalt_sd         =   0.0000000000000E+00
(PID.TID 0000.0001) %MON ad_seaice_adhsalt_del2       =   0.0000000000000E+00
(PID.TID 0000.0001) // =======================================================
(PID.TID 0000.0001) // End AD_MONITOR SEAICE statistics
(PID.TID 0000.0001) // =======================================================
 ph-pack: packing ecco_cost
 ph-pack: packing ecco_ctrl
 ph-check entering grdchk_main 
 ph-check fcref =    5992.2247458371576     
grad-res -------------------------------
 grad-res  proc    #    i    j    k   bi   bj iobc               fc ref           fc + eps           fc - eps
 grad-res  proc    #    i    j    k   bi   bj iobc             adj grad            fd grad         1 - fd/adj
 grad-res closest next position: 
 grad-res     0   10    4    8    1    1    1
 ph-test icomp, ncvarcomp, ichknum           10         300           1
 ph-grd _loc: bi, bj, icomptest, ichknum            1           1           0           1
 ph-grd -->hit<--            6           8           1           1
(PID.TID 0000.0001) 
(PID.TID 0000.0001)  cal_TimeStamp: iter =          0 time =  0.00000000E+00
(PID.TID 0000.0001)                 date =   19790101           0
(PID.TID 0000.0001) 
(PID.TID 0000.0001) INI_CG2D: CG2D normalisation factor =  1.6094939840939192E-04
(PID.TID 0000.0001) 
(PID.TID 0000.0001) Start initial hydrostatic pressure computation
(PID.TID 0000.0001) Pressure is predetermined for buoyancyRelation OCEANIC
(PID.TID 0000.0001) 
(PID.TID 0000.0001) // =======================================================
(PID.TID 0000.0001) // Model current state
(PID.TID 0000.0001) // =======================================================
(PID.TID 0000.0001) 
(PID.TID 0000.0001) SOLVE_FOR_PRESSURE: putPmEinXvector =    F
 cg2d: Sum(rhs),rhsMax =   5.03069808033274E-16  9.91122157852920E-01
 cg2d: Sum(rhs),rhsMax =   1.88737914186277E-15  1.19272630614451E+00
 cg2d: Sum(rhs),rhsMax =   1.12236608895699E-14  1.21118111273372E+00
(PID.TID 0000.0001) Did not write pickup because writePickupAtEnd = FALSE
(PID.TID 0000.0001)  cost_ssh: offset_sum =  0.115000000000000D+03
(PID.TID 0000.0001) ph-cost call cost_sst
(PID.TID 0000.0001) ph-cost call cost_theta0
(PID.TID 0000.0001) ph-cost call cost_salt0
(PID.TID 0000.0001) ph-cost call cost_theta
(PID.TID 0000.0001) ph-cost call cost_salt
(PID.TID 0000.0001) ph-cost call cost_smrarea
  SICD cost smrarea/sst/sss    0.0000000000000000        0.0000000000000000        0.0000000000000000        0.0000000000000000        0.0000000000000000        0.0000000000000000        0.0000000000000000        0.0000000000000000        0.0000000000000000        0.0000000000000000        0.0000000000000000        0.0000000000000000     
  SICD num points smrarea/sst/sss    0.0000000000000000        0.0000000000000000        0.0000000000000000        0.0000000000000000        0.0000000000000000        0.0000000000000000        0.0000000000000000        0.0000000000000000        0.0000000000000000        0.0000000000000000        0.0000000000000000        0.0000000000000000     
 --> f_ice     = 0.000000000000000D+00
 --> f_smrarea = 0.000000000000000D+00
 --> f_smrarea = 0.000000000000000D+00
 --> f_smrarea = 0.000000000000000D+00
 --> f_temp    = 0.256153171017923D+04
 --> f_salt    = 0.875603850058606D+03
 --> f_temp0   = 0.000000000000000D+00
 --> f_salt0   = 0.000000000000000D+00
 --> f_temp0smoo = 0.000000000000000D+00
 --> f_salt0smoo = 0.000000000000000D+00
 --> f_etan0   = 0.000000000000000D+00
 --> f_uvel0   = 0.000000000000000D+00
 --> f_vvel0   = 0.000000000000000D+00
 --> f_sst     = 0.255501749388889D+04
 --> f_tmi     = 0.000000000000000D+00
 --> f_sss     = 0.000000000000000D+00
 --> f_bp      = 0.000000000000000D+00
 --> f_ies      = 0.000000000000000D+00
 --> f_ssh       = 0.000000000000000D+00
 --> f_tp        = 0.000000000000000D+00
 --> f_ers       = 0.000000000000000D+00
 --> f_gfo       = 0.000000000000000D+00
 --> f_tauu    = 0.000000000000000D+00
 --> f_tauum   = 0.000000000000000D+00
 --> f_tauusmoo = 0.000000000000000D+00
 --> f_tauv    = 0.000000000000000D+00
 --> f_tauvm   = 0.000000000000000D+00
 --> f_tauvsmoo = 0.000000000000000D+00
 --> f_hflux   = 0.000000000000000D+00
 --> f_hfluxmm = 0.000000000000000D+00
 --> f_hfluxsmoo = 0.000000000000000D+00
 --> f_sflux   = 0.000000000000000D+00
 --> f_sfluxmm = 0.000000000000000D+00
 --> f_sfluxsmoo = 0.000000000000000D+00
 --> f_uwind     = 0.000000000000000D+00
 --> f_vwind     = 0.000000000000000D+00
 --> f_atemp     = 0.200000000000000D-07
 --> f_aqh     = 0.000000000000000D+00
 --> f_precip  = 0.000000000000000D+00
 --> f_swflux  = 0.000000000000000D+00
 --> f_swdown  = 0.000000000000000D+00
 --> f_uwindm     = 0.000000000000000D+00
 --> f_vwindm     = 0.000000000000000D+00
 --> f_atempm     = 0.250000000000000D-08
 --> f_aqhm     = 0.000000000000000D+00
 --> f_precipm  = 0.000000000000000D+00
 --> f_swfluxm  = 0.000000000000000D+00
 --> f_swdownm  = 0.000000000000000D+00
 --> f_uwindsmoo     = 0.000000000000000D+00
 --> f_vwindsmoo     = 0.000000000000000D+00
 --> f_atempsmoo     = 0.000000000000000D+00
 --> f_aqhsmoo     = 0.000000000000000D+00
 --> f_precipsmoo  = 0.000000000000000D+00
 --> f_swfluxsmoo  = 0.000000000000000D+00
 --> f_swdownsmoo  = 0.000000000000000D+00
 --> f_atl     = 0.000000000000000D+00
 --> f_ctdt    = 0.000000000000000D+00
 --> f_ctds    = 0.000000000000000D+00
 --> f_ctdtclim= 0.000000000000000D+00
 --> f_ctdsclim= 0.000000000000000D+00
 --> f_xbt     = 0.000000000000000D+00
 --> f_argot   = 0.000000000000000D+00
 --> f_argos   = 0.000000000000000D+00
 --> f_drifter   = 0.000000000000000D+00
 --> f_tdrift  = 0.000000000000000D+00
 --> f_sdrift  = 0.000000000000000D+00
 --> f_wdrift  = 0.000000000000000D+00
 --> f_scatx   = 0.000000000000000D+00
 --> f_scaty   = 0.000000000000000D+00
 --> f_scatxm  = 0.000000000000000D+00
 --> f_scatym  = 0.000000000000000D+00
 --> f_obcsn   = 0.000000000000000D+00
 --> f_obcss   = 0.000000000000000D+00
 --> f_obcsw   = 0.000000000000000D+00
 --> f_obcse   = 0.000000000000000D+00
 --> f_ageos   = 0.000000000000000D+00
 --> f_curmtr  = 0.000000000000000D+00
 --> f_kapgm   = 0.000000000000000D+00
 --> f_kapredi   = 0.000000000000000D+00
 --> f_diffkr  = 0.000000000000000D+00
 --> f_eddytau = 0.000000000000000D+00
 --> f_bottomdrag = 0.000000000000000D+00
 --> f_hfluxmm2           = 0.000000000000000D+00
 --> f_sfluxmm2           = 0.000000000000000D+00
 --> f_transp             = 0.000000000000000D+00
 --> objf_hmean           = 0.716917227379263D-01
 --> fc               = 0.599222474584946D+04
 ph-check fcpertplus =    5992.2247458494603     
 ph-check fcpertminus =    5992.2247458371576     
(PID.TID 0000.0001) 
(PID.TID 0000.0001)  cal_TimeStamp: iter =          0 time =  0.00000000E+00
(PID.TID 0000.0001)                 date =   19790101           0
(PID.TID 0000.0001) 
(PID.TID 0000.0001) INI_CG2D: CG2D normalisation factor =  1.6094939840939192E-04
(PID.TID 0000.0001) 
(PID.TID 0000.0001) Start initial hydrostatic pressure computation
(PID.TID 0000.0001) Pressure is predetermined for buoyancyRelation OCEANIC
(PID.TID 0000.0001) 
(PID.TID 0000.0001) // =======================================================
(PID.TID 0000.0001) // Model current state
(PID.TID 0000.0001) // =======================================================
(PID.TID 0000.0001) 
(PID.TID 0000.0001) SOLVE_FOR_PRESSURE: putPmEinXvector =    F
 cg2d: Sum(rhs),rhsMax =   5.03069808033274E-16  9.91122157852920E-01
 cg2d: Sum(rhs),rhsMax =   2.42167397246362E-15  1.19272630614451E+00
 cg2d: Sum(rhs),rhsMax =   1.13832554493598E-14  1.21118111273372E+00
(PID.TID 0000.0001) Did not write pickup because writePickupAtEnd = FALSE
(PID.TID 0000.0001)  cost_ssh: offset_sum =  0.115000000000000D+03
(PID.TID 0000.0001) ph-cost call cost_sst
(PID.TID 0000.0001) ph-cost call cost_theta0
(PID.TID 0000.0001) ph-cost call cost_salt0
(PID.TID 0000.0001) ph-cost call cost_theta
(PID.TID 0000.0001) ph-cost call cost_salt
(PID.TID 0000.0001) ph-cost call cost_smrarea
  SICD cost smrarea/sst/sss    0.0000000000000000        0.0000000000000000        0.0000000000000000        0.0000000000000000        0.0000000000000000        0.0000000000000000        0.0000000000000000        0.0000000000000000        0.0000000000000000        0.0000000000000000        0.0000000000000000        0.0000000000000000     
  SICD num points smrarea/sst/sss    0.0000000000000000        0.0000000000000000        0.0000000000000000        0.0000000000000000        0.0000000000000000        0.0000000000000000        0.0000000000000000        0.0000000000000000        0.0000000000000000        0.0000000000000000        0.0000000000000000        0.0000000000000000     
 --> f_ice     = 0.000000000000000D+00
 --> f_smrarea = 0.000000000000000D+00
 --> f_smrarea = 0.000000000000000D+00
 --> f_smrarea = 0.000000000000000D+00
 --> f_temp    = 0.256153171017924D+04
 --> f_salt    = 0.875603850033967D+03
 --> f_temp0   = 0.000000000000000D+00
 --> f_salt0   = 0.000000000000000D+00
 --> f_temp0smoo = 0.000000000000000D+00
 --> f_salt0smoo = 0.000000000000000D+00
 --> f_etan0   = 0.000000000000000D+00
 --> f_uvel0   = 0.000000000000000D+00
 --> f_vvel0   = 0.000000000000000D+00
 --> f_sst     = 0.255501749388891D+04
 --> f_tmi     = 0.000000000000000D+00
 --> f_sss     = 0.000000000000000D+00
 --> f_bp      = 0.000000000000000D+00
 --> f_ies      = 0.000000000000000D+00
 --> f_ssh       = 0.000000000000000D+00
 --> f_tp        = 0.000000000000000D+00
 --> f_ers       = 0.000000000000000D+00
 --> f_gfo       = 0.000000000000000D+00
 --> f_tauu    = 0.000000000000000D+00
 --> f_tauum   = 0.000000000000000D+00
 --> f_tauusmoo = 0.000000000000000D+00
 --> f_tauv    = 0.000000000000000D+00
 --> f_tauvm   = 0.000000000000000D+00
 --> f_tauvsmoo = 0.000000000000000D+00
 --> f_hflux   = 0.000000000000000D+00
 --> f_hfluxmm = 0.000000000000000D+00
 --> f_hfluxsmoo = 0.000000000000000D+00
 --> f_sflux   = 0.000000000000000D+00
 --> f_sfluxmm = 0.000000000000000D+00
 --> f_sfluxsmoo = 0.000000000000000D+00
 --> f_uwind     = 0.000000000000000D+00
 --> f_vwind     = 0.000000000000000D+00
 --> f_atemp     = 0.200000000000000D-07
 --> f_aqh     = 0.000000000000000D+00
 --> f_precip  = 0.000000000000000D+00
 --> f_swflux  = 0.000000000000000D+00
 --> f_swdown  = 0.000000000000000D+00
 --> f_uwindm     = 0.000000000000000D+00
 --> f_vwindm     = 0.000000000000000D+00
 --> f_atempm     = 0.250000000000000D-08
 --> f_aqhm     = 0.000000000000000D+00
 --> f_precipm  = 0.000000000000000D+00
 --> f_swfluxm  = 0.000000000000000D+00
 --> f_swdownm  = 0.000000000000000D+00
 --> f_uwindsmoo     = 0.000000000000000D+00
 --> f_vwindsmoo     = 0.000000000000000D+00
 --> f_atempsmoo     = 0.000000000000000D+00
 --> f_aqhsmoo     = 0.000000000000000D+00
 --> f_precipsmoo  = 0.000000000000000D+00
 --> f_swfluxsmoo  = 0.000000000000000D+00
 --> f_swdownsmoo  = 0.000000000000000D+00
 --> f_atl     = 0.000000000000000D+00
 --> f_ctdt    = 0.000000000000000D+00
 --> f_ctds    = 0.000000000000000D+00
 --> f_ctdtclim= 0.000000000000000D+00
 --> f_ctdsclim= 0.000000000000000D+00
 --> f_xbt     = 0.000000000000000D+00
 --> f_argot   = 0.000000000000000D+00
 --> f_argos   = 0.000000000000000D+00
 --> f_drifter   = 0.000000000000000D+00
 --> f_tdrift  = 0.000000000000000D+00
 --> f_sdrift  = 0.000000000000000D+00
 --> f_wdrift  = 0.000000000000000D+00
 --> f_scatx   = 0.000000000000000D+00
 --> f_scaty   = 0.000000000000000D+00
 --> f_scatxm  = 0.000000000000000D+00
 --> f_scatym  = 0.000000000000000D+00
 --> f_obcsn   = 0.000000000000000D+00
 --> f_obcss   = 0.000000000000000D+00
 --> f_obcsw   = 0.000000000000000D+00
 --> f_obcse   = 0.000000000000000D+00
 --> f_ageos   = 0.000000000000000D+00
 --> f_curmtr  = 0.000000000000000D+00
 --> f_kapgm   = 0.000000000000000D+00
 --> f_kapredi   = 0.000000000000000D+00
 --> f_diffkr  = 0.000000000000000D+00
 --> f_eddytau = 0.000000000000000D+00
 --> f_bottomdrag = 0.000000000000000D+00
 --> f_hfluxmm2           = 0.000000000000000D+00
 --> f_sfluxmm2           = 0.000000000000000D+00
 --> f_transp             = 0.000000000000000D+00
 --> objf_hmean           = 0.716917227382989D-01
 --> fc               = 0.599222474582486D+04
grad-res -------------------------------
 grad-res     0    1    6    8    1    1    1    1   5.99222474584E+03  5.99222474585E+03  5.99222474582E+03
 grad-res     0    1    1   10    0    1    1    1   1.23005569958E-04  1.23022800835E-04 -1.40082087608E-04
(PID.TID 0000.0001)  ADM  ref_cost_function      =  5.99222474583716E+03
(PID.TID 0000.0001)  ADM  adjoint_gradient       =  1.23005569958288E-04
(PID.TID 0000.0001)  ADM  finite-diff_grad       =  1.23022800835315E-04
 ph-grd  ierr ---------------------------
 ph-grd  ierr =            0 , icomp =           10 , ichknum =            1
 ph-test icomp, ncvarcomp, ichknum           11         300           2
 ph-grd _loc: bi, bj, icomptest, ichknum            1           1          10           2
 ph-grd -->hit<--            7           8           1           1
(PID.TID 0000.0001) 
(PID.TID 0000.0001)  cal_TimeStamp: iter =          0 time =  0.00000000E+00
(PID.TID 0000.0001)                 date =   19790101           0
(PID.TID 0000.0001) 
(PID.TID 0000.0001) INI_CG2D: CG2D normalisation factor =  1.6094939840939192E-04
(PID.TID 0000.0001) 
(PID.TID 0000.0001) Start initial hydrostatic pressure computation
(PID.TID 0000.0001) Pressure is predetermined for buoyancyRelation OCEANIC
(PID.TID 0000.0001) 
(PID.TID 0000.0001) // =======================================================
(PID.TID 0000.0001) // Model current state
(PID.TID 0000.0001) // =======================================================
(PID.TID 0000.0001) 
(PID.TID 0000.0001) SOLVE_FOR_PRESSURE: putPmEinXvector =    F
 cg2d: Sum(rhs),rhsMax =   5.03069808033274E-16  9.91122157852920E-01
 cg2d: Sum(rhs),rhsMax =   1.99840144432528E-15  1.19272630614451E+00
 cg2d: Sum(rhs),rhsMax =   1.03216046820620E-14  1.21118111273372E+00
(PID.TID 0000.0001) Did not write pickup because writePickupAtEnd = FALSE
(PID.TID 0000.0001)  cost_ssh: offset_sum =  0.115000000000000D+03
(PID.TID 0000.0001) ph-cost call cost_sst
(PID.TID 0000.0001) ph-cost call cost_theta0
(PID.TID 0000.0001) ph-cost call cost_salt0
(PID.TID 0000.0001) ph-cost call cost_theta
(PID.TID 0000.0001) ph-cost call cost_salt
(PID.TID 0000.0001) ph-cost call cost_smrarea
  SICD cost smrarea/sst/sss    0.0000000000000000        0.0000000000000000        0.0000000000000000        0.0000000000000000        0.0000000000000000        0.0000000000000000        0.0000000000000000        0.0000000000000000        0.0000000000000000        0.0000000000000000        0.0000000000000000        0.0000000000000000     
  SICD num points smrarea/sst/sss    0.0000000000000000        0.0000000000000000        0.0000000000000000        0.0000000000000000        0.0000000000000000        0.0000000000000000        0.0000000000000000        0.0000000000000000        0.0000000000000000        0.0000000000000000        0.0000000000000000        0.0000000000000000     
 --> f_ice     = 0.000000000000000D+00
 --> f_smrarea = 0.000000000000000D+00
 --> f_smrarea = 0.000000000000000D+00
 --> f_smrarea = 0.000000000000000D+00
 --> f_temp    = 0.256153171017923D+04
 --> f_salt    = 0.875603850058204D+03
 --> f_temp0   = 0.000000000000000D+00
 --> f_salt0   = 0.000000000000000D+00
 --> f_temp0smoo = 0.000000000000000D+00
 --> f_salt0smoo = 0.000000000000000D+00
 --> f_etan0   = 0.000000000000000D+00
 --> f_uvel0   = 0.000000000000000D+00
 --> f_vvel0   = 0.000000000000000D+00
 --> f_sst     = 0.255501749388889D+04
 --> f_tmi     = 0.000000000000000D+00
 --> f_sss     = 0.000000000000000D+00
 --> f_bp      = 0.000000000000000D+00
 --> f_ies      = 0.000000000000000D+00
 --> f_ssh       = 0.000000000000000D+00
 --> f_tp        = 0.000000000000000D+00
 --> f_ers       = 0.000000000000000D+00
 --> f_gfo       = 0.000000000000000D+00
 --> f_tauu    = 0.000000000000000D+00
 --> f_tauum   = 0.000000000000000D+00
 --> f_tauusmoo = 0.000000000000000D+00
 --> f_tauv    = 0.000000000000000D+00
 --> f_tauvm   = 0.000000000000000D+00
 --> f_tauvsmoo = 0.000000000000000D+00
 --> f_hflux   = 0.000000000000000D+00
 --> f_hfluxmm = 0.000000000000000D+00
 --> f_hfluxsmoo = 0.000000000000000D+00
 --> f_sflux   = 0.000000000000000D+00
 --> f_sfluxmm = 0.000000000000000D+00
 --> f_sfluxsmoo = 0.000000000000000D+00
 --> f_uwind     = 0.000000000000000D+00
 --> f_vwind     = 0.000000000000000D+00
 --> f_atemp     = 0.200000000000000D-07
 --> f_aqh     = 0.000000000000000D+00
 --> f_precip  = 0.000000000000000D+00
 --> f_swflux  = 0.000000000000000D+00
 --> f_swdown  = 0.000000000000000D+00
 --> f_uwindm     = 0.000000000000000D+00
 --> f_vwindm     = 0.000000000000000D+00
 --> f_atempm     = 0.250000000000000D-08
 --> f_aqhm     = 0.000000000000000D+00
 --> f_precipm  = 0.000000000000000D+00
 --> f_swfluxm  = 0.000000000000000D+00
 --> f_swdownm  = 0.000000000000000D+00
 --> f_uwindsmoo     = 0.000000000000000D+00
 --> f_vwindsmoo     = 0.000000000000000D+00
 --> f_atempsmoo     = 0.000000000000000D+00
 --> f_aqhsmoo     = 0.000000000000000D+00
 --> f_precipsmoo  = 0.000000000000000D+00
 --> f_swfluxsmoo  = 0.000000000000000D+00
 --> f_swdownsmoo  = 0.000000000000000D+00
 --> f_atl     = 0.000000000000000D+00
 --> f_ctdt    = 0.000000000000000D+00
 --> f_ctds    = 0.000000000000000D+00
 --> f_ctdtclim= 0.000000000000000D+00
 --> f_ctdsclim= 0.000000000000000D+00
 --> f_xbt     = 0.000000000000000D+00
 --> f_argot   = 0.000000000000000D+00
 --> f_argos   = 0.000000000000000D+00
 --> f_drifter   = 0.000000000000000D+00
 --> f_tdrift  = 0.000000000000000D+00
 --> f_sdrift  = 0.000000000000000D+00
 --> f_wdrift  = 0.000000000000000D+00
 --> f_scatx   = 0.000000000000000D+00
 --> f_scaty   = 0.000000000000000D+00
 --> f_scatxm  = 0.000000000000000D+00
 --> f_scatym  = 0.000000000000000D+00
 --> f_obcsn   = 0.000000000000000D+00
 --> f_obcss   = 0.000000000000000D+00
 --> f_obcsw   = 0.000000000000000D+00
 --> f_obcse   = 0.000000000000000D+00
 --> f_ageos   = 0.000000000000000D+00
 --> f_curmtr  = 0.000000000000000D+00
 --> f_kapgm   = 0.000000000000000D+00
 --> f_kapredi   = 0.000000000000000D+00
 --> f_diffkr  = 0.000000000000000D+00
 --> f_eddytau = 0.000000000000000D+00
 --> f_bottomdrag = 0.000000000000000D+00
 --> f_hfluxmm2           = 0.000000000000000D+00
 --> f_sfluxmm2           = 0.000000000000000D+00
 --> f_transp             = 0.000000000000000D+00
 --> objf_hmean           = 0.716917227379775D-01
 --> fc               = 0.599222474584906D+04
 ph-check fcpertplus =    5992.2247458490610     
 ph-check fcpertminus =    5992.2247458371576     
(PID.TID 0000.0001) 
(PID.TID 0000.0001)  cal_TimeStamp: iter =          0 time =  0.00000000E+00
(PID.TID 0000.0001)                 date =   19790101           0
(PID.TID 0000.0001) 
(PID.TID 0000.0001) INI_CG2D: CG2D normalisation factor =  1.6094939840939192E-04
(PID.TID 0000.0001) 
(PID.TID 0000.0001) Start initial hydrostatic pressure computation
(PID.TID 0000.0001) Pressure is predetermined for buoyancyRelation OCEANIC
(PID.TID 0000.0001) 
(PID.TID 0000.0001) // =======================================================
(PID.TID 0000.0001) // Model current state
(PID.TID 0000.0001) // =======================================================
(PID.TID 0000.0001) 
(PID.TID 0000.0001) SOLVE_FOR_PRESSURE: putPmEinXvector =    F
 cg2d: Sum(rhs),rhsMax =   5.03069808033274E-16  9.91122157852920E-01
 cg2d: Sum(rhs),rhsMax =   2.91780488659299E-15  1.19272630614451E+00
 cg2d: Sum(rhs),rhsMax =   1.02522157430229E-14  1.21118111273372E+00
(PID.TID 0000.0001) Did not write pickup because writePickupAtEnd = FALSE
(PID.TID 0000.0001)  cost_ssh: offset_sum =  0.115000000000000D+03
(PID.TID 0000.0001) ph-cost call cost_sst
(PID.TID 0000.0001) ph-cost call cost_theta0
(PID.TID 0000.0001) ph-cost call cost_salt0
(PID.TID 0000.0001) ph-cost call cost_theta
(PID.TID 0000.0001) ph-cost call cost_salt
(PID.TID 0000.0001) ph-cost call cost_smrarea
  SICD cost smrarea/sst/sss    0.0000000000000000        0.0000000000000000        0.0000000000000000        0.0000000000000000        0.0000000000000000        0.0000000000000000        0.0000000000000000        0.0000000000000000        0.0000000000000000        0.0000000000000000        0.0000000000000000        0.0000000000000000     
  SICD num points smrarea/sst/sss    0.0000000000000000        0.0000000000000000        0.0000000000000000        0.0000000000000000        0.0000000000000000        0.0000000000000000        0.0000000000000000        0.0000000000000000        0.0000000000000000        0.0000000000000000        0.0000000000000000        0.0000000000000000     
 --> f_ice     = 0.000000000000000D+00
 --> f_smrarea = 0.000000000000000D+00
 --> f_smrarea = 0.000000000000000D+00
 --> f_smrarea = 0.000000000000000D+00
 --> f_temp    = 0.256153171017924D+04
 --> f_salt    = 0.875603850034370D+03
 --> f_temp0   = 0.000000000000000D+00
 --> f_salt0   = 0.000000000000000D+00
 --> f_temp0smoo = 0.000000000000000D+00
 --> f_salt0smoo = 0.000000000000000D+00
 --> f_etan0   = 0.000000000000000D+00
 --> f_uvel0   = 0.000000000000000D+00
 --> f_vvel0   = 0.000000000000000D+00
 --> f_sst     = 0.255501749388891D+04
 --> f_tmi     = 0.000000000000000D+00
 --> f_sss     = 0.000000000000000D+00
 --> f_bp      = 0.000000000000000D+00
 --> f_ies      = 0.000000000000000D+00
 --> f_ssh       = 0.000000000000000D+00
 --> f_tp        = 0.000000000000000D+00
 --> f_ers       = 0.000000000000000D+00
 --> f_gfo       = 0.000000000000000D+00
 --> f_tauu    = 0.000000000000000D+00
 --> f_tauum   = 0.000000000000000D+00
 --> f_tauusmoo = 0.000000000000000D+00
 --> f_tauv    = 0.000000000000000D+00
 --> f_tauvm   = 0.000000000000000D+00
 --> f_tauvsmoo = 0.000000000000000D+00
 --> f_hflux   = 0.000000000000000D+00
 --> f_hfluxmm = 0.000000000000000D+00
 --> f_hfluxsmoo = 0.000000000000000D+00
 --> f_sflux   = 0.000000000000000D+00
 --> f_sfluxmm = 0.000000000000000D+00
 --> f_sfluxsmoo = 0.000000000000000D+00
 --> f_uwind     = 0.000000000000000D+00
 --> f_vwind     = 0.000000000000000D+00
 --> f_atemp     = 0.200000000000000D-07
 --> f_aqh     = 0.000000000000000D+00
 --> f_precip  = 0.000000000000000D+00
 --> f_swflux  = 0.000000000000000D+00
 --> f_swdown  = 0.000000000000000D+00
 --> f_uwindm     = 0.000000000000000D+00
 --> f_vwindm     = 0.000000000000000D+00
 --> f_atempm     = 0.250000000000000D-08
 --> f_aqhm     = 0.000000000000000D+00
 --> f_precipm  = 0.000000000000000D+00
 --> f_swfluxm  = 0.000000000000000D+00
 --> f_swdownm  = 0.000000000000000D+00
 --> f_uwindsmoo     = 0.000000000000000D+00
 --> f_vwindsmoo     = 0.000000000000000D+00
 --> f_atempsmoo     = 0.000000000000000D+00
 --> f_aqhsmoo     = 0.000000000000000D+00
 --> f_precipsmoo  = 0.000000000000000D+00
 --> f_swfluxsmoo  = 0.000000000000000D+00
 --> f_swdownsmoo  = 0.000000000000000D+00
 --> f_atl     = 0.000000000000000D+00
 --> f_ctdt    = 0.000000000000000D+00
 --> f_ctds    = 0.000000000000000D+00
 --> f_ctdtclim= 0.000000000000000D+00
 --> f_ctdsclim= 0.000000000000000D+00
 --> f_xbt     = 0.000000000000000D+00
 --> f_argot   = 0.000000000000000D+00
 --> f_argos   = 0.000000000000000D+00
 --> f_drifter   = 0.000000000000000D+00
 --> f_tdrift  = 0.000000000000000D+00
 --> f_sdrift  = 0.000000000000000D+00
 --> f_wdrift  = 0.000000000000000D+00
 --> f_scatx   = 0.000000000000000D+00
 --> f_scaty   = 0.000000000000000D+00
 --> f_scatxm  = 0.000000000000000D+00
 --> f_scatym  = 0.000000000000000D+00
 --> f_obcsn   = 0.000000000000000D+00
 --> f_obcss   = 0.000000000000000D+00
 --> f_obcsw   = 0.000000000000000D+00
 --> f_obcse   = 0.000000000000000D+00
 --> f_ageos   = 0.000000000000000D+00
 --> f_curmtr  = 0.000000000000000D+00
 --> f_kapgm   = 0.000000000000000D+00
 --> f_kapredi   = 0.000000000000000D+00
 --> f_diffkr  = 0.000000000000000D+00
 --> f_eddytau = 0.000000000000000D+00
 --> f_bottomdrag = 0.000000000000000D+00
 --> f_hfluxmm2           = 0.000000000000000D+00
 --> f_sfluxmm2           = 0.000000000000000D+00
 --> f_transp             = 0.000000000000000D+00
 --> objf_hmean           = 0.716917227382476D-01
 --> fc               = 0.599222474582525D+04
grad-res -------------------------------
 grad-res     0    2    7    8    1    1    1    1   5.99222474584E+03  5.99222474585E+03  5.99222474583E+03
 grad-res     0    2    2   11    0    1    1    1   1.19027994492E-04  1.19034666568E-04 -5.60546825965E-05
(PID.TID 0000.0001)  ADM  ref_cost_function      =  5.99222474583716E+03
(PID.TID 0000.0001)  ADM  adjoint_gradient       =  1.19027994491590E-04
(PID.TID 0000.0001)  ADM  finite-diff_grad       =  1.19034666568041E-04
 ph-grd  ierr ---------------------------
 ph-grd  ierr =            0 , icomp =           11 , ichknum =            2
 ph-test icomp, ncvarcomp, ichknum           12         300           3
 ph-grd _loc: bi, bj, icomptest, ichknum            1           1          11           3
 ph-grd -->hit<--            8           8           1           1
(PID.TID 0000.0001) 
(PID.TID 0000.0001)  cal_TimeStamp: iter =          0 time =  0.00000000E+00
(PID.TID 0000.0001)                 date =   19790101           0
(PID.TID 0000.0001) 
(PID.TID 0000.0001) INI_CG2D: CG2D normalisation factor =  1.6094939840939192E-04
(PID.TID 0000.0001) 
(PID.TID 0000.0001) Start initial hydrostatic pressure computation
(PID.TID 0000.0001) Pressure is predetermined for buoyancyRelation OCEANIC
(PID.TID 0000.0001) 
(PID.TID 0000.0001) // =======================================================
(PID.TID 0000.0001) // Model current state
(PID.TID 0000.0001) // =======================================================
(PID.TID 0000.0001) 
(PID.TID 0000.0001) SOLVE_FOR_PRESSURE: putPmEinXvector =    F
 cg2d: Sum(rhs),rhsMax =   5.03069808033274E-16  9.91122157852920E-01
 cg2d: Sum(rhs),rhsMax =   3.69149155687865E-15  1.19272630614451E+00
 cg2d: Sum(rhs),rhsMax =   9.97812943381859E-15  1.21118111273371E+00
(PID.TID 0000.0001) Did not write pickup because writePickupAtEnd = FALSE
(PID.TID 0000.0001)  cost_ssh: offset_sum =  0.115000000000000D+03
(PID.TID 0000.0001) ph-cost call cost_sst
(PID.TID 0000.0001) ph-cost call cost_theta0
(PID.TID 0000.0001) ph-cost call cost_salt0
(PID.TID 0000.0001) ph-cost call cost_theta
(PID.TID 0000.0001) ph-cost call cost_salt
(PID.TID 0000.0001) ph-cost call cost_smrarea
  SICD cost smrarea/sst/sss    0.0000000000000000        0.0000000000000000        0.0000000000000000        0.0000000000000000        0.0000000000000000        0.0000000000000000        0.0000000000000000        0.0000000000000000        0.0000000000000000        0.0000000000000000        0.0000000000000000        0.0000000000000000     
  SICD num points smrarea/sst/sss    0.0000000000000000        0.0000000000000000        0.0000000000000000        0.0000000000000000        0.0000000000000000        0.0000000000000000        0.0000000000000000        0.0000000000000000        0.0000000000000000        0.0000000000000000        0.0000000000000000        0.0000000000000000     
 --> f_ice     = 0.000000000000000D+00
 --> f_smrarea = 0.000000000000000D+00
 --> f_smrarea = 0.000000000000000D+00
 --> f_smrarea = 0.000000000000000D+00
 --> f_temp    = 0.256153171017924D+04
 --> f_salt    = 0.875603850061471D+03
 --> f_temp0   = 0.000000000000000D+00
 --> f_salt0   = 0.000000000000000D+00
 --> f_temp0smoo = 0.000000000000000D+00
 --> f_salt0smoo = 0.000000000000000D+00
 --> f_etan0   = 0.000000000000000D+00
 --> f_uvel0   = 0.000000000000000D+00
 --> f_vvel0   = 0.000000000000000D+00
 --> f_sst     = 0.255501749388890D+04
 --> f_tmi     = 0.000000000000000D+00
 --> f_sss     = 0.000000000000000D+00
 --> f_bp      = 0.000000000000000D+00
 --> f_ies      = 0.000000000000000D+00
 --> f_ssh       = 0.000000000000000D+00
 --> f_tp        = 0.000000000000000D+00
 --> f_ers       = 0.000000000000000D+00
 --> f_gfo       = 0.000000000000000D+00
 --> f_tauu    = 0.000000000000000D+00
 --> f_tauum   = 0.000000000000000D+00
 --> f_tauusmoo = 0.000000000000000D+00
 --> f_tauv    = 0.000000000000000D+00
 --> f_tauvm   = 0.000000000000000D+00
 --> f_tauvsmoo = 0.000000000000000D+00
 --> f_hflux   = 0.000000000000000D+00
 --> f_hfluxmm = 0.000000000000000D+00
 --> f_hfluxsmoo = 0.000000000000000D+00
 --> f_sflux   = 0.000000000000000D+00
 --> f_sfluxmm = 0.000000000000000D+00
 --> f_sfluxsmoo = 0.000000000000000D+00
 --> f_uwind     = 0.000000000000000D+00
 --> f_vwind     = 0.000000000000000D+00
 --> f_atemp     = 0.200000000000000D-07
 --> f_aqh     = 0.000000000000000D+00
 --> f_precip  = 0.000000000000000D+00
 --> f_swflux  = 0.000000000000000D+00
 --> f_swdown  = 0.000000000000000D+00
 --> f_uwindm     = 0.000000000000000D+00
 --> f_vwindm     = 0.000000000000000D+00
 --> f_atempm     = 0.250000000000000D-08
 --> f_aqhm     = 0.000000000000000D+00
 --> f_precipm  = 0.000000000000000D+00
 --> f_swfluxm  = 0.000000000000000D+00
 --> f_swdownm  = 0.000000000000000D+00
 --> f_uwindsmoo     = 0.000000000000000D+00
 --> f_vwindsmoo     = 0.000000000000000D+00
 --> f_atempsmoo     = 0.000000000000000D+00
 --> f_aqhsmoo     = 0.000000000000000D+00
 --> f_precipsmoo  = 0.000000000000000D+00
 --> f_swfluxsmoo  = 0.000000000000000D+00
 --> f_swdownsmoo  = 0.000000000000000D+00
 --> f_atl     = 0.000000000000000D+00
 --> f_ctdt    = 0.000000000000000D+00
 --> f_ctds    = 0.000000000000000D+00
 --> f_ctdtclim= 0.000000000000000D+00
 --> f_ctdsclim= 0.000000000000000D+00
 --> f_xbt     = 0.000000000000000D+00
 --> f_argot   = 0.000000000000000D+00
 --> f_argos   = 0.000000000000000D+00
 --> f_drifter   = 0.000000000000000D+00
 --> f_tdrift  = 0.000000000000000D+00
 --> f_sdrift  = 0.000000000000000D+00
 --> f_wdrift  = 0.000000000000000D+00
 --> f_scatx   = 0.000000000000000D+00
 --> f_scaty   = 0.000000000000000D+00
 --> f_scatxm  = 0.000000000000000D+00
 --> f_scatym  = 0.000000000000000D+00
 --> f_obcsn   = 0.000000000000000D+00
 --> f_obcss   = 0.000000000000000D+00
 --> f_obcsw   = 0.000000000000000D+00
 --> f_obcse   = 0.000000000000000D+00
 --> f_ageos   = 0.000000000000000D+00
 --> f_curmtr  = 0.000000000000000D+00
 --> f_kapgm   = 0.000000000000000D+00
 --> f_kapredi   = 0.000000000000000D+00
 --> f_diffkr  = 0.000000000000000D+00
 --> f_eddytau = 0.000000000000000D+00
 --> f_bottomdrag = 0.000000000000000D+00
 --> f_hfluxmm2           = 0.000000000000000D+00
 --> f_sfluxmm2           = 0.000000000000000D+00
 --> f_transp             = 0.000000000000000D+00
 --> objf_hmean           = 0.716917227379896D-01
 --> fc               = 0.599222474585234D+04
 ph-check fcpertplus =    5992.2247458523425     
 ph-check fcpertminus =    5992.2247458371576     
(PID.TID 0000.0001) 
(PID.TID 0000.0001)  cal_TimeStamp: iter =          0 time =  0.00000000E+00
(PID.TID 0000.0001)                 date =   19790101           0
(PID.TID 0000.0001) 
(PID.TID 0000.0001) INI_CG2D: CG2D normalisation factor =  1.6094939840939192E-04
(PID.TID 0000.0001) 
(PID.TID 0000.0001) Start initial hydrostatic pressure computation
(PID.TID 0000.0001) Pressure is predetermined for buoyancyRelation OCEANIC
(PID.TID 0000.0001) 
(PID.TID 0000.0001) // =======================================================
(PID.TID 0000.0001) // Model current state
(PID.TID 0000.0001) // =======================================================
(PID.TID 0000.0001) 
(PID.TID 0000.0001) SOLVE_FOR_PRESSURE: putPmEinXvector =    F
 cg2d: Sum(rhs),rhsMax =   5.03069808033274E-16  9.91122157852920E-01
 cg2d: Sum(rhs),rhsMax =   2.45289899503121E-15  1.19272630614451E+00
 cg2d: Sum(rhs),rhsMax =   9.82200432098068E-15  1.21118111273372E+00
(PID.TID 0000.0001) Did not write pickup because writePickupAtEnd = FALSE
(PID.TID 0000.0001)  cost_ssh: offset_sum =  0.115000000000000D+03
(PID.TID 0000.0001) ph-cost call cost_sst
(PID.TID 0000.0001) ph-cost call cost_theta0
(PID.TID 0000.0001) ph-cost call cost_salt0
(PID.TID 0000.0001) ph-cost call cost_theta
(PID.TID 0000.0001) ph-cost call cost_salt
(PID.TID 0000.0001) ph-cost call cost_smrarea
  SICD cost smrarea/sst/sss    0.0000000000000000        0.0000000000000000        0.0000000000000000        0.0000000000000000        0.0000000000000000        0.0000000000000000        0.0000000000000000        0.0000000000000000        0.0000000000000000        0.0000000000000000        0.0000000000000000        0.0000000000000000     
  SICD num points smrarea/sst/sss    0.0000000000000000        0.0000000000000000        0.0000000000000000        0.0000000000000000        0.0000000000000000        0.0000000000000000        0.0000000000000000        0.0000000000000000        0.0000000000000000        0.0000000000000000        0.0000000000000000        0.0000000000000000     
 --> f_ice     = 0.000000000000000D+00
 --> f_smrarea = 0.000000000000000D+00
 --> f_smrarea = 0.000000000000000D+00
 --> f_smrarea = 0.000000000000000D+00
 --> f_temp    = 0.256153171017923D+04
 --> f_salt    = 0.875603850031103D+03
 --> f_temp0   = 0.000000000000000D+00
 --> f_salt0   = 0.000000000000000D+00
 --> f_temp0smoo = 0.000000000000000D+00
 --> f_salt0smoo = 0.000000000000000D+00
 --> f_etan0   = 0.000000000000000D+00
 --> f_uvel0   = 0.000000000000000D+00
 --> f_vvel0   = 0.000000000000000D+00
 --> f_sst     = 0.255501749388890D+04
 --> f_tmi     = 0.000000000000000D+00
 --> f_sss     = 0.000000000000000D+00
 --> f_bp      = 0.000000000000000D+00
 --> f_ies      = 0.000000000000000D+00
 --> f_ssh       = 0.000000000000000D+00
 --> f_tp        = 0.000000000000000D+00
 --> f_ers       = 0.000000000000000D+00
 --> f_gfo       = 0.000000000000000D+00
 --> f_tauu    = 0.000000000000000D+00
 --> f_tauum   = 0.000000000000000D+00
 --> f_tauusmoo = 0.000000000000000D+00
 --> f_tauv    = 0.000000000000000D+00
 --> f_tauvm   = 0.000000000000000D+00
 --> f_tauvsmoo = 0.000000000000000D+00
 --> f_hflux   = 0.000000000000000D+00
 --> f_hfluxmm = 0.000000000000000D+00
 --> f_hfluxsmoo = 0.000000000000000D+00
 --> f_sflux   = 0.000000000000000D+00
 --> f_sfluxmm = 0.000000000000000D+00
 --> f_sfluxsmoo = 0.000000000000000D+00
 --> f_uwind     = 0.000000000000000D+00
 --> f_vwind     = 0.000000000000000D+00
 --> f_atemp     = 0.200000000000000D-07
 --> f_aqh     = 0.000000000000000D+00
 --> f_precip  = 0.000000000000000D+00
 --> f_swflux  = 0.000000000000000D+00
 --> f_swdown  = 0.000000000000000D+00
 --> f_uwindm     = 0.000000000000000D+00
 --> f_vwindm     = 0.000000000000000D+00
 --> f_atempm     = 0.250000000000000D-08
 --> f_aqhm     = 0.000000000000000D+00
 --> f_precipm  = 0.000000000000000D+00
 --> f_swfluxm  = 0.000000000000000D+00
 --> f_swdownm  = 0.000000000000000D+00
 --> f_uwindsmoo     = 0.000000000000000D+00
 --> f_vwindsmoo     = 0.000000000000000D+00
 --> f_atempsmoo     = 0.000000000000000D+00
 --> f_aqhsmoo     = 0.000000000000000D+00
 --> f_precipsmoo  = 0.000000000000000D+00
 --> f_swfluxsmoo  = 0.000000000000000D+00
 --> f_swdownsmoo  = 0.000000000000000D+00
 --> f_atl     = 0.000000000000000D+00
 --> f_ctdt    = 0.000000000000000D+00
 --> f_ctds    = 0.000000000000000D+00
 --> f_ctdtclim= 0.000000000000000D+00
 --> f_ctdsclim= 0.000000000000000D+00
 --> f_xbt     = 0.000000000000000D+00
 --> f_argot   = 0.000000000000000D+00
 --> f_argos   = 0.000000000000000D+00
 --> f_drifter   = 0.000000000000000D+00
 --> f_tdrift  = 0.000000000000000D+00
 --> f_sdrift  = 0.000000000000000D+00
 --> f_wdrift  = 0.000000000000000D+00
 --> f_scatx   = 0.000000000000000D+00
 --> f_scaty   = 0.000000000000000D+00
 --> f_scatxm  = 0.000000000000000D+00
 --> f_scatym  = 0.000000000000000D+00
 --> f_obcsn   = 0.000000000000000D+00
 --> f_obcss   = 0.000000000000000D+00
 --> f_obcsw   = 0.000000000000000D+00
 --> f_obcse   = 0.000000000000000D+00
 --> f_ageos   = 0.000000000000000D+00
 --> f_curmtr  = 0.000000000000000D+00
 --> f_kapgm   = 0.000000000000000D+00
 --> f_kapredi   = 0.000000000000000D+00
 --> f_diffkr  = 0.000000000000000D+00
 --> f_eddytau = 0.000000000000000D+00
 --> f_bottomdrag = 0.000000000000000D+00
 --> f_hfluxmm2           = 0.000000000000000D+00
 --> f_sfluxmm2           = 0.000000000000000D+00
 --> f_transp             = 0.000000000000000D+00
 --> objf_hmean           = 0.716917227382355D-01
 --> fc               = 0.599222474582197D+04
grad-res -------------------------------
 grad-res     0    3    8    8    1    1    1    1   5.99222474584E+03  5.99222474585E+03  5.99222474582E+03
 grad-res     0    3    3   12    0    1    1    1   1.51827575328E-04  1.51862877829E-04 -2.32517054425E-04
(PID.TID 0000.0001)  ADM  ref_cost_function      =  5.99222474583716E+03
(PID.TID 0000.0001)  ADM  adjoint_gradient       =  1.51827575327939E-04
(PID.TID 0000.0001)  ADM  finite-diff_grad       =  1.51862877828535E-04
 ph-grd  ierr ---------------------------
 ph-grd  ierr =            0 , icomp =           12 , ichknum =            3
 ph-test icomp, ncvarcomp, ichknum           13         300           4
 ph-grd _loc: bi, bj, icomptest, ichknum            1           1          12           4
 ph-grd -->hit<--            9           8           1           1
(PID.TID 0000.0001) 
(PID.TID 0000.0001)  cal_TimeStamp: iter =          0 time =  0.00000000E+00
(PID.TID 0000.0001)                 date =   19790101           0
(PID.TID 0000.0001) 
(PID.TID 0000.0001) INI_CG2D: CG2D normalisation factor =  1.6094939840939192E-04
(PID.TID 0000.0001) 
(PID.TID 0000.0001) Start initial hydrostatic pressure computation
(PID.TID 0000.0001) Pressure is predetermined for buoyancyRelation OCEANIC
(PID.TID 0000.0001) 
(PID.TID 0000.0001) // =======================================================
(PID.TID 0000.0001) // Model current state
(PID.TID 0000.0001) // =======================================================
(PID.TID 0000.0001) 
(PID.TID 0000.0001) SOLVE_FOR_PRESSURE: putPmEinXvector =    F
 cg2d: Sum(rhs),rhsMax =   5.03069808033274E-16  9.91122157852920E-01
 cg2d: Sum(rhs),rhsMax =   3.13291059761411E-15  1.19272630614451E+00
 cg2d: Sum(rhs),rhsMax =   1.02348685082632E-14  1.21118111273371E+00
(PID.TID 0000.0001) Did not write pickup because writePickupAtEnd = FALSE
(PID.TID 0000.0001)  cost_ssh: offset_sum =  0.115000000000000D+03
(PID.TID 0000.0001) ph-cost call cost_sst
(PID.TID 0000.0001) ph-cost call cost_theta0
(PID.TID 0000.0001) ph-cost call cost_salt0
(PID.TID 0000.0001) ph-cost call cost_theta
(PID.TID 0000.0001) ph-cost call cost_salt
(PID.TID 0000.0001) ph-cost call cost_smrarea
  SICD cost smrarea/sst/sss    0.0000000000000000        0.0000000000000000        0.0000000000000000        0.0000000000000000        0.0000000000000000        0.0000000000000000        0.0000000000000000        0.0000000000000000        0.0000000000000000        0.0000000000000000        0.0000000000000000        0.0000000000000000     
  SICD num points smrarea/sst/sss    0.0000000000000000        0.0000000000000000        0.0000000000000000        0.0000000000000000        0.0000000000000000        0.0000000000000000        0.0000000000000000        0.0000000000000000        0.0000000000000000        0.0000000000000000        0.0000000000000000        0.0000000000000000     
 --> f_ice     = 0.000000000000000D+00
 --> f_smrarea = 0.000000000000000D+00
 --> f_smrarea = 0.000000000000000D+00
 --> f_smrarea = 0.000000000000000D+00
 --> f_temp    = 0.256153171017922D+04
 --> f_salt    = 0.875603850065788D+03
 --> f_temp0   = 0.000000000000000D+00
 --> f_salt0   = 0.000000000000000D+00
 --> f_temp0smoo = 0.000000000000000D+00
 --> f_salt0smoo = 0.000000000000000D+00
 --> f_etan0   = 0.000000000000000D+00
 --> f_uvel0   = 0.000000000000000D+00
 --> f_vvel0   = 0.000000000000000D+00
 --> f_sst     = 0.255501749388888D+04
 --> f_tmi     = 0.000000000000000D+00
 --> f_sss     = 0.000000000000000D+00
 --> f_bp      = 0.000000000000000D+00
 --> f_ies      = 0.000000000000000D+00
 --> f_ssh       = 0.000000000000000D+00
 --> f_tp        = 0.000000000000000D+00
 --> f_ers       = 0.000000000000000D+00
 --> f_gfo       = 0.000000000000000D+00
 --> f_tauu    = 0.000000000000000D+00
 --> f_tauum   = 0.000000000000000D+00
 --> f_tauusmoo = 0.000000000000000D+00
 --> f_tauv    = 0.000000000000000D+00
 --> f_tauvm   = 0.000000000000000D+00
 --> f_tauvsmoo = 0.000000000000000D+00
 --> f_hflux   = 0.000000000000000D+00
 --> f_hfluxmm = 0.000000000000000D+00
 --> f_hfluxsmoo = 0.000000000000000D+00
 --> f_sflux   = 0.000000000000000D+00
 --> f_sfluxmm = 0.000000000000000D+00
 --> f_sfluxsmoo = 0.000000000000000D+00
 --> f_uwind     = 0.000000000000000D+00
 --> f_vwind     = 0.000000000000000D+00
 --> f_atemp     = 0.200000000000000D-07
 --> f_aqh     = 0.000000000000000D+00
 --> f_precip  = 0.000000000000000D+00
 --> f_swflux  = 0.000000000000000D+00
 --> f_swdown  = 0.000000000000000D+00
 --> f_uwindm     = 0.000000000000000D+00
 --> f_vwindm     = 0.000000000000000D+00
 --> f_atempm     = 0.250000000000000D-08
 --> f_aqhm     = 0.000000000000000D+00
 --> f_precipm  = 0.000000000000000D+00
 --> f_swfluxm  = 0.000000000000000D+00
 --> f_swdownm  = 0.000000000000000D+00
 --> f_uwindsmoo     = 0.000000000000000D+00
 --> f_vwindsmoo     = 0.000000000000000D+00
 --> f_atempsmoo     = 0.000000000000000D+00
 --> f_aqhsmoo     = 0.000000000000000D+00
 --> f_precipsmoo  = 0.000000000000000D+00
 --> f_swfluxsmoo  = 0.000000000000000D+00
 --> f_swdownsmoo  = 0.000000000000000D+00
 --> f_atl     = 0.000000000000000D+00
 --> f_ctdt    = 0.000000000000000D+00
 --> f_ctds    = 0.000000000000000D+00
 --> f_ctdtclim= 0.000000000000000D+00
 --> f_ctdsclim= 0.000000000000000D+00
 --> f_xbt     = 0.000000000000000D+00
 --> f_argot   = 0.000000000000000D+00
 --> f_argos   = 0.000000000000000D+00
 --> f_drifter   = 0.000000000000000D+00
 --> f_tdrift  = 0.000000000000000D+00
 --> f_sdrift  = 0.000000000000000D+00
 --> f_wdrift  = 0.000000000000000D+00
 --> f_scatx   = 0.000000000000000D+00
 --> f_scaty   = 0.000000000000000D+00
 --> f_scatxm  = 0.000000000000000D+00
 --> f_scatym  = 0.000000000000000D+00
 --> f_obcsn   = 0.000000000000000D+00
 --> f_obcss   = 0.000000000000000D+00
 --> f_obcsw   = 0.000000000000000D+00
 --> f_obcse   = 0.000000000000000D+00
 --> f_ageos   = 0.000000000000000D+00
 --> f_curmtr  = 0.000000000000000D+00
 --> f_kapgm   = 0.000000000000000D+00
 --> f_kapredi   = 0.000000000000000D+00
 --> f_diffkr  = 0.000000000000000D+00
 --> f_eddytau = 0.000000000000000D+00
 --> f_bottomdrag = 0.000000000000000D+00
 --> f_hfluxmm2           = 0.000000000000000D+00
 --> f_sfluxmm2           = 0.000000000000000D+00
 --> f_transp             = 0.000000000000000D+00
 --> objf_hmean           = 0.716917227379818D-01
 --> fc               = 0.599222474585663D+04
 ph-check fcpertplus =    5992.2247458566308     
 ph-check fcpertminus =    5992.2247458371576     
(PID.TID 0000.0001) 
(PID.TID 0000.0001)  cal_TimeStamp: iter =          0 time =  0.00000000E+00
(PID.TID 0000.0001)                 date =   19790101           0
(PID.TID 0000.0001) 
(PID.TID 0000.0001) INI_CG2D: CG2D normalisation factor =  1.6094939840939192E-04
(PID.TID 0000.0001) 
(PID.TID 0000.0001) Start initial hydrostatic pressure computation
(PID.TID 0000.0001) Pressure is predetermined for buoyancyRelation OCEANIC
(PID.TID 0000.0001) 
(PID.TID 0000.0001) // =======================================================
(PID.TID 0000.0001) // Model current state
(PID.TID 0000.0001) // =======================================================
(PID.TID 0000.0001) 
(PID.TID 0000.0001) SOLVE_FOR_PRESSURE: putPmEinXvector =    F
 cg2d: Sum(rhs),rhsMax =   5.03069808033274E-16  9.91122157852920E-01
 cg2d: Sum(rhs),rhsMax =   1.93248195223816E-15  1.19272630614451E+00
 cg2d: Sum(rhs),rhsMax =   1.09495745803656E-14  1.21118111273372E+00
(PID.TID 0000.0001) Did not write pickup because writePickupAtEnd = FALSE
(PID.TID 0000.0001)  cost_ssh: offset_sum =  0.115000000000000D+03
(PID.TID 0000.0001) ph-cost call cost_sst
(PID.TID 0000.0001) ph-cost call cost_theta0
(PID.TID 0000.0001) ph-cost call cost_salt0
(PID.TID 0000.0001) ph-cost call cost_theta
(PID.TID 0000.0001) ph-cost call cost_salt
(PID.TID 0000.0001) ph-cost call cost_smrarea
  SICD cost smrarea/sst/sss    0.0000000000000000        0.0000000000000000        0.0000000000000000        0.0000000000000000        0.0000000000000000        0.0000000000000000        0.0000000000000000        0.0000000000000000        0.0000000000000000        0.0000000000000000        0.0000000000000000        0.0000000000000000     
  SICD num points smrarea/sst/sss    0.0000000000000000        0.0000000000000000        0.0000000000000000        0.0000000000000000        0.0000000000000000        0.0000000000000000        0.0000000000000000        0.0000000000000000        0.0000000000000000        0.0000000000000000        0.0000000000000000        0.0000000000000000     
 --> f_ice     = 0.000000000000000D+00
 --> f_smrarea = 0.000000000000000D+00
 --> f_smrarea = 0.000000000000000D+00
 --> f_smrarea = 0.000000000000000D+00
 --> f_temp    = 0.256153171017925D+04
 --> f_salt    = 0.875603850026786D+03
 --> f_temp0   = 0.000000000000000D+00
 --> f_salt0   = 0.000000000000000D+00
 --> f_temp0smoo = 0.000000000000000D+00
 --> f_salt0smoo = 0.000000000000000D+00
 --> f_etan0   = 0.000000000000000D+00
 --> f_uvel0   = 0.000000000000000D+00
 --> f_vvel0   = 0.000000000000000D+00
 --> f_sst     = 0.255501749388891D+04
 --> f_tmi     = 0.000000000000000D+00
 --> f_sss     = 0.000000000000000D+00
 --> f_bp      = 0.000000000000000D+00
 --> f_ies      = 0.000000000000000D+00
 --> f_ssh       = 0.000000000000000D+00
 --> f_tp        = 0.000000000000000D+00
 --> f_ers       = 0.000000000000000D+00
 --> f_gfo       = 0.000000000000000D+00
 --> f_tauu    = 0.000000000000000D+00
 --> f_tauum   = 0.000000000000000D+00
 --> f_tauusmoo = 0.000000000000000D+00
 --> f_tauv    = 0.000000000000000D+00
 --> f_tauvm   = 0.000000000000000D+00
 --> f_tauvsmoo = 0.000000000000000D+00
 --> f_hflux   = 0.000000000000000D+00
 --> f_hfluxmm = 0.000000000000000D+00
 --> f_hfluxsmoo = 0.000000000000000D+00
 --> f_sflux   = 0.000000000000000D+00
 --> f_sfluxmm = 0.000000000000000D+00
 --> f_sfluxsmoo = 0.000000000000000D+00
 --> f_uwind     = 0.000000000000000D+00
 --> f_vwind     = 0.000000000000000D+00
 --> f_atemp     = 0.200000000000000D-07
 --> f_aqh     = 0.000000000000000D+00
 --> f_precip  = 0.000000000000000D+00
 --> f_swflux  = 0.000000000000000D+00
 --> f_swdown  = 0.000000000000000D+00
 --> f_uwindm     = 0.000000000000000D+00
 --> f_vwindm     = 0.000000000000000D+00
 --> f_atempm     = 0.250000000000000D-08
 --> f_aqhm     = 0.000000000000000D+00
 --> f_precipm  = 0.000000000000000D+00
 --> f_swfluxm  = 0.000000000000000D+00
 --> f_swdownm  = 0.000000000000000D+00
 --> f_uwindsmoo     = 0.000000000000000D+00
 --> f_vwindsmoo     = 0.000000000000000D+00
 --> f_atempsmoo     = 0.000000000000000D+00
 --> f_aqhsmoo     = 0.000000000000000D+00
 --> f_precipsmoo  = 0.000000000000000D+00
 --> f_swfluxsmoo  = 0.000000000000000D+00
 --> f_swdownsmoo  = 0.000000000000000D+00
 --> f_atl     = 0.000000000000000D+00
 --> f_ctdt    = 0.000000000000000D+00
 --> f_ctds    = 0.000000000000000D+00
 --> f_ctdtclim= 0.000000000000000D+00
 --> f_ctdsclim= 0.000000000000000D+00
 --> f_xbt     = 0.000000000000000D+00
 --> f_argot   = 0.000000000000000D+00
 --> f_argos   = 0.000000000000000D+00
 --> f_drifter   = 0.000000000000000D+00
 --> f_tdrift  = 0.000000000000000D+00
 --> f_sdrift  = 0.000000000000000D+00
 --> f_wdrift  = 0.000000000000000D+00
 --> f_scatx   = 0.000000000000000D+00
 --> f_scaty   = 0.000000000000000D+00
 --> f_scatxm  = 0.000000000000000D+00
 --> f_scatym  = 0.000000000000000D+00
 --> f_obcsn   = 0.000000000000000D+00
 --> f_obcss   = 0.000000000000000D+00
 --> f_obcsw   = 0.000000000000000D+00
 --> f_obcse   = 0.000000000000000D+00
 --> f_ageos   = 0.000000000000000D+00
 --> f_curmtr  = 0.000000000000000D+00
 --> f_kapgm   = 0.000000000000000D+00
 --> f_kapredi   = 0.000000000000000D+00
 --> f_diffkr  = 0.000000000000000D+00
 --> f_eddytau = 0.000000000000000D+00
 --> f_bottomdrag = 0.000000000000000D+00
 --> f_hfluxmm2           = 0.000000000000000D+00
 --> f_sfluxmm2           = 0.000000000000000D+00
 --> f_transp             = 0.000000000000000D+00
 --> objf_hmean           = 0.716917227382432D-01
 --> fc               = 0.599222474581769D+04
grad-res -------------------------------
 grad-res     0    4    9    8    1    1    1    1   5.99222474584E+03  5.99222474586E+03  5.99222474582E+03
 grad-res     0    4    4   13    0    1    1    1   1.94732362462E-04  1.94722815650E-04  4.90252992813E-05
(PID.TID 0000.0001)  ADM  ref_cost_function      =  5.99222474583716E+03
(PID.TID 0000.0001)  ADM  adjoint_gradient       =  1.94732362461933E-04
(PID.TID 0000.0001)  ADM  finite-diff_grad       =  1.94722815649584E-04
 ph-grd  ierr ---------------------------
 ph-grd  ierr =            0 , icomp =           13 , ichknum =            4
 ph-test icomp, ncvarcomp, ichknum           14         300           5
 ph-grd _loc: bi, bj, icomptest, ichknum            1           1          13           5
 ph-grd -->hit<--           10           8           1           1
(PID.TID 0000.0001) 
(PID.TID 0000.0001)  cal_TimeStamp: iter =          0 time =  0.00000000E+00
(PID.TID 0000.0001)                 date =   19790101           0
(PID.TID 0000.0001) 
(PID.TID 0000.0001) INI_CG2D: CG2D normalisation factor =  1.6094939840939192E-04
(PID.TID 0000.0001) 
(PID.TID 0000.0001) Start initial hydrostatic pressure computation
(PID.TID 0000.0001) Pressure is predetermined for buoyancyRelation OCEANIC
(PID.TID 0000.0001) 
(PID.TID 0000.0001) // =======================================================
(PID.TID 0000.0001) // Model current state
(PID.TID 0000.0001) // =======================================================
(PID.TID 0000.0001) 
(PID.TID 0000.0001) SOLVE_FOR_PRESSURE: putPmEinXvector =    F
 cg2d: Sum(rhs),rhsMax =   5.03069808033274E-16  9.91122157852920E-01
 cg2d: Sum(rhs),rhsMax =   2.46330733588707E-15  1.19272630614451E+00
 cg2d: Sum(rhs),rhsMax =   1.06754882711613E-14  1.21118111273370E+00
(PID.TID 0000.0001) Did not write pickup because writePickupAtEnd = FALSE
(PID.TID 0000.0001)  cost_ssh: offset_sum =  0.115000000000000D+03
(PID.TID 0000.0001) ph-cost call cost_sst
(PID.TID 0000.0001) ph-cost call cost_theta0
(PID.TID 0000.0001) ph-cost call cost_salt0
(PID.TID 0000.0001) ph-cost call cost_theta
(PID.TID 0000.0001) ph-cost call cost_salt
(PID.TID 0000.0001) ph-cost call cost_smrarea
  SICD cost smrarea/sst/sss    0.0000000000000000        0.0000000000000000        0.0000000000000000        0.0000000000000000        0.0000000000000000        0.0000000000000000        0.0000000000000000        0.0000000000000000        0.0000000000000000        0.0000000000000000        0.0000000000000000        0.0000000000000000     
  SICD num points smrarea/sst/sss    0.0000000000000000        0.0000000000000000        0.0000000000000000        0.0000000000000000        0.0000000000000000        0.0000000000000000        0.0000000000000000        0.0000000000000000        0.0000000000000000        0.0000000000000000        0.0000000000000000        0.0000000000000000     
 --> f_ice     = 0.000000000000000D+00
 --> f_smrarea = 0.000000000000000D+00
 --> f_smrarea = 0.000000000000000D+00
 --> f_smrarea = 0.000000000000000D+00
 --> f_temp    = 0.256153171017922D+04
 --> f_salt    = 0.875603850070229D+03
 --> f_temp0   = 0.000000000000000D+00
 --> f_salt0   = 0.000000000000000D+00
 --> f_temp0smoo = 0.000000000000000D+00
 --> f_salt0smoo = 0.000000000000000D+00
 --> f_etan0   = 0.000000000000000D+00
 --> f_uvel0   = 0.000000000000000D+00
 --> f_vvel0   = 0.000000000000000D+00
 --> f_sst     = 0.255501749388888D+04
 --> f_tmi     = 0.000000000000000D+00
 --> f_sss     = 0.000000000000000D+00
 --> f_bp      = 0.000000000000000D+00
 --> f_ies      = 0.000000000000000D+00
 --> f_ssh       = 0.000000000000000D+00
 --> f_tp        = 0.000000000000000D+00
 --> f_ers       = 0.000000000000000D+00
 --> f_gfo       = 0.000000000000000D+00
 --> f_tauu    = 0.000000000000000D+00
 --> f_tauum   = 0.000000000000000D+00
 --> f_tauusmoo = 0.000000000000000D+00
 --> f_tauv    = 0.000000000000000D+00
 --> f_tauvm   = 0.000000000000000D+00
 --> f_tauvsmoo = 0.000000000000000D+00
 --> f_hflux   = 0.000000000000000D+00
 --> f_hfluxmm = 0.000000000000000D+00
 --> f_hfluxsmoo = 0.000000000000000D+00
 --> f_sflux   = 0.000000000000000D+00
 --> f_sfluxmm = 0.000000000000000D+00
 --> f_sfluxsmoo = 0.000000000000000D+00
 --> f_uwind     = 0.000000000000000D+00
 --> f_vwind     = 0.000000000000000D+00
 --> f_atemp     = 0.200000000000000D-07
 --> f_aqh     = 0.000000000000000D+00
 --> f_precip  = 0.000000000000000D+00
 --> f_swflux  = 0.000000000000000D+00
 --> f_swdown  = 0.000000000000000D+00
 --> f_uwindm     = 0.000000000000000D+00
 --> f_vwindm     = 0.000000000000000D+00
 --> f_atempm     = 0.250000000000000D-08
 --> f_aqhm     = 0.000000000000000D+00
 --> f_precipm  = 0.000000000000000D+00
 --> f_swfluxm  = 0.000000000000000D+00
 --> f_swdownm  = 0.000000000000000D+00
 --> f_uwindsmoo     = 0.000000000000000D+00
 --> f_vwindsmoo     = 0.000000000000000D+00
 --> f_atempsmoo     = 0.000000000000000D+00
 --> f_aqhsmoo     = 0.000000000000000D+00
 --> f_precipsmoo  = 0.000000000000000D+00
 --> f_swfluxsmoo  = 0.000000000000000D+00
 --> f_swdownsmoo  = 0.000000000000000D+00
 --> f_atl     = 0.000000000000000D+00
 --> f_ctdt    = 0.000000000000000D+00
 --> f_ctds    = 0.000000000000000D+00
 --> f_ctdtclim= 0.000000000000000D+00
 --> f_ctdsclim= 0.000000000000000D+00
 --> f_xbt     = 0.000000000000000D+00
 --> f_argot   = 0.000000000000000D+00
 --> f_argos   = 0.000000000000000D+00
 --> f_drifter   = 0.000000000000000D+00
 --> f_tdrift  = 0.000000000000000D+00
 --> f_sdrift  = 0.000000000000000D+00
 --> f_wdrift  = 0.000000000000000D+00
 --> f_scatx   = 0.000000000000000D+00
 --> f_scaty   = 0.000000000000000D+00
 --> f_scatxm  = 0.000000000000000D+00
 --> f_scatym  = 0.000000000000000D+00
 --> f_obcsn   = 0.000000000000000D+00
 --> f_obcss   = 0.000000000000000D+00
 --> f_obcsw   = 0.000000000000000D+00
 --> f_obcse   = 0.000000000000000D+00
 --> f_ageos   = 0.000000000000000D+00
 --> f_curmtr  = 0.000000000000000D+00
 --> f_kapgm   = 0.000000000000000D+00
 --> f_kapredi   = 0.000000000000000D+00
 --> f_diffkr  = 0.000000000000000D+00
 --> f_eddytau = 0.000000000000000D+00
 --> f_bottomdrag = 0.000000000000000D+00
 --> f_hfluxmm2           = 0.000000000000000D+00
 --> f_sfluxmm2           = 0.000000000000000D+00
 --> f_transp             = 0.000000000000000D+00
 --> objf_hmean           = 0.716917227385162D-01
 --> fc               = 0.599222474586107D+04
 ph-check fcpertplus =    5992.2247458610664     
 ph-check fcpertminus =    5992.2247458371576     
(PID.TID 0000.0001) 
(PID.TID 0000.0001)  cal_TimeStamp: iter =          0 time =  0.00000000E+00
(PID.TID 0000.0001)                 date =   19790101           0
(PID.TID 0000.0001) 
(PID.TID 0000.0001) INI_CG2D: CG2D normalisation factor =  1.6094939840939192E-04
(PID.TID 0000.0001) 
(PID.TID 0000.0001) Start initial hydrostatic pressure computation
(PID.TID 0000.0001) Pressure is predetermined for buoyancyRelation OCEANIC
(PID.TID 0000.0001) 
(PID.TID 0000.0001) // =======================================================
(PID.TID 0000.0001) // Model current state
(PID.TID 0000.0001) // =======================================================
(PID.TID 0000.0001) 
(PID.TID 0000.0001) SOLVE_FOR_PRESSURE: putPmEinXvector =    F
 cg2d: Sum(rhs),rhsMax =   5.03069808033274E-16  9.91122157852920E-01
 cg2d: Sum(rhs),rhsMax =   1.72431513512095E-15  1.19272630614451E+00
 cg2d: Sum(rhs),rhsMax =   9.68669588985449E-15  1.21118111273373E+00
(PID.TID 0000.0001) Did not write pickup because writePickupAtEnd = FALSE
(PID.TID 0000.0001)  cost_ssh: offset_sum =  0.115000000000000D+03
(PID.TID 0000.0001) ph-cost call cost_sst
(PID.TID 0000.0001) ph-cost call cost_theta0
(PID.TID 0000.0001) ph-cost call cost_salt0
(PID.TID 0000.0001) ph-cost call cost_theta
(PID.TID 0000.0001) ph-cost call cost_salt
(PID.TID 0000.0001) ph-cost call cost_smrarea
  SICD cost smrarea/sst/sss    0.0000000000000000        0.0000000000000000        0.0000000000000000        0.0000000000000000        0.0000000000000000        0.0000000000000000        0.0000000000000000        0.0000000000000000        0.0000000000000000        0.0000000000000000        0.0000000000000000        0.0000000000000000     
  SICD num points smrarea/sst/sss    0.0000000000000000        0.0000000000000000        0.0000000000000000        0.0000000000000000        0.0000000000000000        0.0000000000000000        0.0000000000000000        0.0000000000000000        0.0000000000000000        0.0000000000000000        0.0000000000000000        0.0000000000000000     
 --> f_ice     = 0.000000000000000D+00
 --> f_smrarea = 0.000000000000000D+00
 --> f_smrarea = 0.000000000000000D+00
 --> f_smrarea = 0.000000000000000D+00
 --> f_temp    = 0.256153171017925D+04
 --> f_salt    = 0.875603850022345D+03
 --> f_temp0   = 0.000000000000000D+00
 --> f_salt0   = 0.000000000000000D+00
 --> f_temp0smoo = 0.000000000000000D+00
 --> f_salt0smoo = 0.000000000000000D+00
 --> f_etan0   = 0.000000000000000D+00
 --> f_uvel0   = 0.000000000000000D+00
 --> f_vvel0   = 0.000000000000000D+00
 --> f_sst     = 0.255501749388892D+04
 --> f_tmi     = 0.000000000000000D+00
 --> f_sss     = 0.000000000000000D+00
 --> f_bp      = 0.000000000000000D+00
 --> f_ies      = 0.000000000000000D+00
 --> f_ssh       = 0.000000000000000D+00
 --> f_tp        = 0.000000000000000D+00
 --> f_ers       = 0.000000000000000D+00
 --> f_gfo       = 0.000000000000000D+00
 --> f_tauu    = 0.000000000000000D+00
 --> f_tauum   = 0.000000000000000D+00
 --> f_tauusmoo = 0.000000000000000D+00
 --> f_tauv    = 0.000000000000000D+00
 --> f_tauvm   = 0.000000000000000D+00
 --> f_tauvsmoo = 0.000000000000000D+00
 --> f_hflux   = 0.000000000000000D+00
 --> f_hfluxmm = 0.000000000000000D+00
 --> f_hfluxsmoo = 0.000000000000000D+00
 --> f_sflux   = 0.000000000000000D+00
 --> f_sfluxmm = 0.000000000000000D+00
 --> f_sfluxsmoo = 0.000000000000000D+00
 --> f_uwind     = 0.000000000000000D+00
 --> f_vwind     = 0.000000000000000D+00
 --> f_atemp     = 0.200000000000000D-07
 --> f_aqh     = 0.000000000000000D+00
 --> f_precip  = 0.000000000000000D+00
 --> f_swflux  = 0.000000000000000D+00
 --> f_swdown  = 0.000000000000000D+00
 --> f_uwindm     = 0.000000000000000D+00
 --> f_vwindm     = 0.000000000000000D+00
 --> f_atempm     = 0.250000000000000D-08
 --> f_aqhm     = 0.000000000000000D+00
 --> f_precipm  = 0.000000000000000D+00
 --> f_swfluxm  = 0.000000000000000D+00
 --> f_swdownm  = 0.000000000000000D+00
 --> f_uwindsmoo     = 0.000000000000000D+00
 --> f_vwindsmoo     = 0.000000000000000D+00
 --> f_atempsmoo     = 0.000000000000000D+00
 --> f_aqhsmoo     = 0.000000000000000D+00
 --> f_precipsmoo  = 0.000000000000000D+00
 --> f_swfluxsmoo  = 0.000000000000000D+00
 --> f_swdownsmoo  = 0.000000000000000D+00
 --> f_atl     = 0.000000000000000D+00
 --> f_ctdt    = 0.000000000000000D+00
 --> f_ctds    = 0.000000000000000D+00
 --> f_ctdtclim= 0.000000000000000D+00
 --> f_ctdsclim= 0.000000000000000D+00
 --> f_xbt     = 0.000000000000000D+00
 --> f_argot   = 0.000000000000000D+00
 --> f_argos   = 0.000000000000000D+00
 --> f_drifter   = 0.000000000000000D+00
 --> f_tdrift  = 0.000000000000000D+00
 --> f_sdrift  = 0.000000000000000D+00
 --> f_wdrift  = 0.000000000000000D+00
 --> f_scatx   = 0.000000000000000D+00
 --> f_scaty   = 0.000000000000000D+00
 --> f_scatxm  = 0.000000000000000D+00
 --> f_scatym  = 0.000000000000000D+00
 --> f_obcsn   = 0.000000000000000D+00
 --> f_obcss   = 0.000000000000000D+00
 --> f_obcsw   = 0.000000000000000D+00
 --> f_obcse   = 0.000000000000000D+00
 --> f_ageos   = 0.000000000000000D+00
 --> f_curmtr  = 0.000000000000000D+00
 --> f_kapgm   = 0.000000000000000D+00
 --> f_kapredi   = 0.000000000000000D+00
 --> f_diffkr  = 0.000000000000000D+00
 --> f_eddytau = 0.000000000000000D+00
 --> f_bottomdrag = 0.000000000000000D+00
 --> f_hfluxmm2           = 0.000000000000000D+00
 --> f_sfluxmm2           = 0.000000000000000D+00
 --> f_transp             = 0.000000000000000D+00
 --> objf_hmean           = 0.716917227377087D-01
 --> fc               = 0.599222474581325D+04
grad-res -------------------------------
 grad-res     0    5   10    8    1    1    1    1   5.99222474584E+03  5.99222474586E+03  5.99222474581E+03
 grad-res     0    5    5   14    0    1    1    1   2.39108072925E-04  2.39074324782E-04  1.41141798231E-04
(PID.TID 0000.0001)  ADM  ref_cost_function      =  5.99222474583716E+03
(PID.TID 0000.0001)  ADM  adjoint_gradient       =  2.39108072924925E-04
(PID.TID 0000.0001)  ADM  finite-diff_grad       =  2.39074324781541E-04
 ph-grd  ierr ---------------------------
 ph-grd  ierr =            0 , icomp =           14 , ichknum =            5
(PID.TID 0000.0001) 
(PID.TID 0000.0001) // =======================================================
(PID.TID 0000.0001) // Gradient check results  >>> START <<<
(PID.TID 0000.0001) // =======================================================
(PID.TID 0000.0001) 
(PID.TID 0000.0001)  EPS =   1.000000E-04
(PID.TID 0000.0001) 
(PID.TID 0000.0001) grdchk output h.p:  Id Itile Jtile LAYER   bi   bj   X(Id)           X(Id)+/-EPS
(PID.TID 0000.0001) grdchk output h.c:  Id  FC                   FC1                  FC2
(PID.TID 0000.0001) grdchk output h.g:  Id     FC1-FC2/(2*EPS)      ADJ GRAD(FC)         1-FDGRD/ADGRD
(PID.TID 0000.0001) 
(PID.TID 0000.0001) grdchk output (p):   1     6     8     1    1    1   0.000000000E+00 -1.000000000E-04
(PID.TID 0000.0001) grdchk output (c):   1  5.9922247458372E+03  5.9922247458495E+03  5.9922247458249E+03
(PID.TID 0000.0001) grdchk output (g):   1     1.2302280083532E-04  1.2300556995829E-04 -1.4008208760807E-04
(PID.TID 0000.0001) 
(PID.TID 0000.0001) grdchk output (p):   2     7     8     1    1    1   0.000000000E+00 -1.000000000E-04
(PID.TID 0000.0001) grdchk output (c):   2  5.9922247458372E+03  5.9922247458491E+03  5.9922247458253E+03
(PID.TID 0000.0001) grdchk output (g):   2     1.1903466656804E-04  1.1902799449159E-04 -5.6054682596507E-05
(PID.TID 0000.0001) 
(PID.TID 0000.0001) grdchk output (p):   3     8     8     1    1    1   0.000000000E+00 -1.000000000E-04
(PID.TID 0000.0001) grdchk output (c):   3  5.9922247458372E+03  5.9922247458523E+03  5.9922247458220E+03
(PID.TID 0000.0001) grdchk output (g):   3     1.5186287782853E-04  1.5182757532794E-04 -2.3251705442506E-04
(PID.TID 0000.0001) 
(PID.TID 0000.0001) grdchk output (p):   4     9     8     1    1    1   0.000000000E+00 -1.000000000E-04
(PID.TID 0000.0001) grdchk output (c):   4  5.9922247458372E+03  5.9922247458566E+03  5.9922247458177E+03
(PID.TID 0000.0001) grdchk output (g):   4     1.9472281564958E-04  1.9473236246193E-04  4.9025299281302E-05
(PID.TID 0000.0001) 
(PID.TID 0000.0001) grdchk output (p):   5    10     8     1    1    1   0.000000000E+00 -1.000000000E-04
(PID.TID 0000.0001) grdchk output (c):   5  5.9922247458372E+03  5.9922247458611E+03  5.9922247458133E+03
(PID.TID 0000.0001) grdchk output (g):   5     2.3907432478154E-04  2.3910807292492E-04  1.4114179823055E-04
(PID.TID 0000.0001) 
(PID.TID 0000.0001) grdchk  summary  :  RMS of    5 ratios =  1.4082172168065E-04
(PID.TID 0000.0001) 
(PID.TID 0000.0001) // =======================================================
(PID.TID 0000.0001) // Gradient check results  >>> END <<<
(PID.TID 0000.0001) // =======================================================
(PID.TID 0000.0001) 
(PID.TID 0000.0001)   Seconds in section "ALL                    [THE_MODEL_MAIN]":
(PID.TID 0000.0001)           User time:   26.719999999999999
(PID.TID 0000.0001)         System time:  0.25000000000000000
(PID.TID 0000.0001)     Wall clock time:   27.036777973175049
(PID.TID 0000.0001)          No. starts:           1
(PID.TID 0000.0001)           No. stops:           1
(PID.TID 0000.0001)   Seconds in section "INITIALISE_FIXED       [THE_MODEL_MAIN]":
(PID.TID 0000.0001)           User time:  0.12000000000000000
(PID.TID 0000.0001)         System time:  2.99999999999999989E-002
(PID.TID 0000.0001)     Wall clock time:  0.15084314346313477
(PID.TID 0000.0001)          No. starts:           1
(PID.TID 0000.0001)           No. stops:           1
(PID.TID 0000.0001)   Seconds in section "ADTHE_MAIN_LOOP          [ADJOINT RUN]":
(PID.TID 0000.0001)           User time:   20.910000000000000
(PID.TID 0000.0001)         System time:  0.14999999999999999
(PID.TID 0000.0001)     Wall clock time:   21.114954948425293
(PID.TID 0000.0001)          No. starts:           1
(PID.TID 0000.0001)           No. stops:           1
(PID.TID 0000.0001)   Seconds in section "EXF_GETFORCING     [LOAD_FLDS_DRIVER]":
(PID.TID 0000.0001)           User time:  0.12000000000000099
(PID.TID 0000.0001)         System time:  5.00000000000000444E-002
(PID.TID 0000.0001)     Wall clock time:  7.73720741271972656E-002
(PID.TID 0000.0001)          No. starts:          39
(PID.TID 0000.0001)           No. stops:          39
(PID.TID 0000.0001)   Seconds in section "I/O (WRITE)        [ADJOINT LOOP]":
(PID.TID 0000.0001)           User time:   0.0000000000000000
(PID.TID 0000.0001)         System time:  2.00000000000000178E-002
(PID.TID 0000.0001)     Wall clock time:  5.10489940643310547E-002
(PID.TID 0000.0001)          No. starts:         198
(PID.TID 0000.0001)           No. stops:         198
(PID.TID 0000.0001)   Seconds in section "SEAICE_MODEL    [DO_OCEANIC_PHYS]":
(PID.TID 0000.0001)           User time:  0.64999999999999147
(PID.TID 0000.0001)         System time:   0.0000000000000000
(PID.TID 0000.0001)     Wall clock time:  0.67917895317077637
(PID.TID 0000.0001)          No. starts:          39
(PID.TID 0000.0001)           No. stops:          39
(PID.TID 0000.0001)   Seconds in section "SEAICE_DYNSOLVER   [SEAICE_MODEL]":
(PID.TID 0000.0001)           User time:  0.55000000000000071
(PID.TID 0000.0001)         System time:   0.0000000000000000
(PID.TID 0000.0001)     Wall clock time:  0.58562397956848145
(PID.TID 0000.0001)          No. starts:          39
(PID.TID 0000.0001)           No. stops:          39
(PID.TID 0000.0001)   Seconds in section "KPP_CALC [DO_OCEANIC_PHYS]":
(PID.TID 0000.0001)           User time:   1.4699999999999953
(PID.TID 0000.0001)         System time:   0.0000000000000000
(PID.TID 0000.0001)     Wall clock time:   1.5146038532257080
(PID.TID 0000.0001)          No. starts:         156
(PID.TID 0000.0001)           No. stops:         156
(PID.TID 0000.0001)   Seconds in section "CTRL_PACK           [THE_MODEL_MAIN]":
(PID.TID 0000.0001)           User time:  9.99999999999801048E-003
(PID.TID 0000.0001)         System time:   0.0000000000000000
(PID.TID 0000.0001)     Wall clock time:  1.69000625610351563E-002
(PID.TID 0000.0001)          No. starts:           1
(PID.TID 0000.0001)           No. stops:           1
(PID.TID 0000.0001)   Seconds in section "CTRL_PACK     [THE_MODEL_MAIN]":
(PID.TID 0000.0001)           User time:  1.99999999999995737E-002
(PID.TID 0000.0001)         System time:   0.0000000000000000
(PID.TID 0000.0001)     Wall clock time:  1.60450935363769531E-002
(PID.TID 0000.0001)          No. starts:           1
(PID.TID 0000.0001)           No. stops:           1
(PID.TID 0000.0001)   Seconds in section "GRDCHK_MAIN         [THE_MODEL_MAIN]":
(PID.TID 0000.0001)           User time:   5.6600000000000001
(PID.TID 0000.0001)         System time:  7.00000000000000067E-002
(PID.TID 0000.0001)     Wall clock time:   5.7379639148712158
(PID.TID 0000.0001)          No. starts:           1
(PID.TID 0000.0001)           No. stops:           1
(PID.TID 0000.0001)   Seconds in section "ECCO SPIN-UP":
(PID.TID 0000.0001)           User time:  0.17999999999999972
(PID.TID 0000.0001)         System time:   0.0000000000000000
(PID.TID 0000.0001)     Wall clock time:  0.17921233177185059
(PID.TID 0000.0001)          No. starts:          10
(PID.TID 0000.0001)           No. stops:          10
(PID.TID 0000.0001)   Seconds in section "INITIALISE_VARIA    [THE_MAIN_LOOP]":
(PID.TID 0000.0001)           User time:  0.17999999999999972
(PID.TID 0000.0001)         System time:   0.0000000000000000
(PID.TID 0000.0001)     Wall clock time:  0.17870569229125977
(PID.TID 0000.0001)          No. starts:          10
(PID.TID 0000.0001)           No. stops:          10
(PID.TID 0000.0001)   Seconds in section "ECCO MAIN LOOP":
(PID.TID 0000.0001)           User time:   5.3399999999999963
(PID.TID 0000.0001)         System time:  4.00000000000000355E-002
(PID.TID 0000.0001)     Wall clock time:   5.3668496608734131
(PID.TID 0000.0001)          No. starts:          10
(PID.TID 0000.0001)           No. stops:          10
(PID.TID 0000.0001)   Seconds in section "COST_AVERAGESFIELDS   [ECCO MAIN]":
(PID.TID 0000.0001)           User time:   0.0000000000000000
(PID.TID 0000.0001)         System time:   0.0000000000000000
(PID.TID 0000.0001)     Wall clock time:  1.10168457031250000E-002
(PID.TID 0000.0001)          No. starts:          30
(PID.TID 0000.0001)           No. stops:          30
(PID.TID 0000.0001)   Seconds in section "LOAD_FIELDS_DRIVER  [FORWARD_STEP]":
(PID.TID 0000.0001)           User time:  9.00000000000034106E-002
(PID.TID 0000.0001)         System time:  4.00000000000000355E-002
(PID.TID 0000.0001)     Wall clock time:  5.65066337585449219E-002
(PID.TID 0000.0001)          No. starts:          30
(PID.TID 0000.0001)           No. stops:          30
(PID.TID 0000.0001)   Seconds in section "DO_ATMOSPHERIC_PHYS [FORWARD_STEP]":
(PID.TID 0000.0001)           User time:   0.0000000000000000
(PID.TID 0000.0001)         System time:   0.0000000000000000
(PID.TID 0000.0001)     Wall clock time:  2.67744064331054688E-004
(PID.TID 0000.0001)          No. starts:          30
(PID.TID 0000.0001)           No. stops:          30
(PID.TID 0000.0001)   Seconds in section "DO_OCEANIC_PHYS     [FORWARD_STEP]":
(PID.TID 0000.0001)           User time:   2.3100000000000023
(PID.TID 0000.0001)         System time:   0.0000000000000000
(PID.TID 0000.0001)     Wall clock time:   2.3455145359039307
(PID.TID 0000.0001)          No. starts:          30
(PID.TID 0000.0001)           No. stops:          30
(PID.TID 0000.0001)   Seconds in section "DYNAMICS            [FORWARD_STEP]":
(PID.TID 0000.0001)           User time:   1.2199999999999953
(PID.TID 0000.0001)         System time:   0.0000000000000000
(PID.TID 0000.0001)     Wall clock time:   1.2172968387603760
(PID.TID 0000.0001)          No. starts:          30
(PID.TID 0000.0001)           No. stops:          30
(PID.TID 0000.0001)   Seconds in section "SOLVE_FOR_PRESSURE  [FORWARD_STEP]":
(PID.TID 0000.0001)           User time:  0.14000000000000057
(PID.TID 0000.0001)         System time:   0.0000000000000000
(PID.TID 0000.0001)     Wall clock time:  0.12848162651062012
(PID.TID 0000.0001)          No. starts:          30
(PID.TID 0000.0001)           No. stops:          30
(PID.TID 0000.0001)   Seconds in section "MOM_CORRECTION_STEP [FORWARD_STEP]":
(PID.TID 0000.0001)           User time:  3.00000000000011369E-002
(PID.TID 0000.0001)         System time:   0.0000000000000000
(PID.TID 0000.0001)     Wall clock time:  2.71522998809814453E-002
(PID.TID 0000.0001)          No. starts:          30
(PID.TID 0000.0001)           No. stops:          30
(PID.TID 0000.0001)   Seconds in section "INTEGR_CONTINUITY   [FORWARD_STEP]":
(PID.TID 0000.0001)           User time:  1.99999999999995737E-002
(PID.TID 0000.0001)         System time:   0.0000000000000000
(PID.TID 0000.0001)     Wall clock time:  1.96175575256347656E-002
(PID.TID 0000.0001)          No. starts:          30
(PID.TID 0000.0001)           No. stops:          30
(PID.TID 0000.0001)   Seconds in section "BLOCKING_EXCHANGES  [FORWARD_STEP]":
(PID.TID 0000.0001)           User time:  7.99999999999947420E-002
(PID.TID 0000.0001)         System time:   0.0000000000000000
(PID.TID 0000.0001)     Wall clock time:  7.31592178344726563E-002
(PID.TID 0000.0001)          No. starts:          60
(PID.TID 0000.0001)           No. stops:          60
(PID.TID 0000.0001)   Seconds in section "THERMODYNAMICS      [FORWARD_STEP]":
(PID.TID 0000.0001)           User time:   1.3000000000000043
(PID.TID 0000.0001)         System time:   0.0000000000000000
(PID.TID 0000.0001)     Wall clock time:   1.3043634891510010
(PID.TID 0000.0001)          No. starts:          30
(PID.TID 0000.0001)           No. stops:          30
(PID.TID 0000.0001)   Seconds in section "TS_CORRECTION_STEP  [FORWARD_STEP]":
(PID.TID 0000.0001)           User time:  9.99999999999801048E-003
(PID.TID 0000.0001)         System time:   0.0000000000000000
(PID.TID 0000.0001)     Wall clock time:  1.52709484100341797E-002
(PID.TID 0000.0001)          No. starts:          30
(PID.TID 0000.0001)           No. stops:          30
(PID.TID 0000.0001)   Seconds in section "DO_STATEVARS_TAVE   [FORWARD_STEP]":
(PID.TID 0000.0001)           User time:   0.0000000000000000
(PID.TID 0000.0001)         System time:   0.0000000000000000
(PID.TID 0000.0001)     Wall clock time:  2.72274017333984375E-004
(PID.TID 0000.0001)          No. starts:          30
(PID.TID 0000.0001)           No. stops:          30
(PID.TID 0000.0001)   Seconds in section "MONITOR             [FORWARD_STEP]":
(PID.TID 0000.0001)           User time:   0.0000000000000000
(PID.TID 0000.0001)         System time:   0.0000000000000000
(PID.TID 0000.0001)     Wall clock time:  2.90155410766601563E-004
(PID.TID 0000.0001)          No. starts:          30
(PID.TID 0000.0001)           No. stops:          30
(PID.TID 0000.0001)   Seconds in section "DO_THE_MODEL_IO     [FORWARD_STEP]":
(PID.TID 0000.0001)           User time:   0.0000000000000000
(PID.TID 0000.0001)         System time:   0.0000000000000000
(PID.TID 0000.0001)     Wall clock time:  1.65121555328369141E-002
(PID.TID 0000.0001)          No. starts:          30
(PID.TID 0000.0001)           No. stops:          30
(PID.TID 0000.0001)   Seconds in section "DO_WRITE_PICKUP     [FORWARD_STEP]":
(PID.TID 0000.0001)           User time:   0.0000000000000000
(PID.TID 0000.0001)         System time:   0.0000000000000000
(PID.TID 0000.0001)     Wall clock time:  4.96625900268554688E-004
(PID.TID 0000.0001)          No. starts:          30
(PID.TID 0000.0001)           No. stops:          30
(PID.TID 0000.0001)   Seconds in section "ECCO SPIN-DOWN":
(PID.TID 0000.0001)           User time:  0.13000000000000611
(PID.TID 0000.0001)         System time:  3.00000000000000266E-002
(PID.TID 0000.0001)     Wall clock time:  0.18041849136352539
(PID.TID 0000.0001)          No. starts:          10
(PID.TID 0000.0001)           No. stops:          10
(PID.TID 0000.0001)   Seconds in section "COST_AVERAGESFIELDS [ECCO SPIN-DOWN]":
(PID.TID 0000.0001)           User time:  1.00000000000015632E-002
(PID.TID 0000.0001)         System time:   0.0000000000000000
(PID.TID 0000.0001)     Wall clock time:  2.83539295196533203E-002
(PID.TID 0000.0001)          No. starts:          10
(PID.TID 0000.0001)           No. stops:          10
(PID.TID 0000.0001)   Seconds in section "COST_FORCING       [ECCO SPIN-DOWN]":
(PID.TID 0000.0001)           User time:  3.00000000000011369E-002
(PID.TID 0000.0001)         System time:  1.00000000000000089E-002
(PID.TID 0000.0001)     Wall clock time:  3.76212596893310547E-002
(PID.TID 0000.0001)          No. starts:          10
(PID.TID 0000.0001)           No. stops:          10
(PID.TID 0000.0001)   Seconds in section "COST_SSH           [ECCO SPIN-DOWN]":
(PID.TID 0000.0001)           User time:   0.0000000000000000
(PID.TID 0000.0001)         System time:   0.0000000000000000
(PID.TID 0000.0001)     Wall clock time:  8.06164741516113281E-003
(PID.TID 0000.0001)          No. starts:          10
(PID.TID 0000.0001)           No. stops:          10
(PID.TID 0000.0001)   Seconds in section "COST_HYD           [ECCO SPIN-DOWN]":
(PID.TID 0000.0001)           User time:  9.00000000000034106E-002
(PID.TID 0000.0001)         System time:  2.00000000000000178E-002
(PID.TID 0000.0001)     Wall clock time:  9.85133647918701172E-002
(PID.TID 0000.0001)          No. starts:          10
(PID.TID 0000.0001)           No. stops:          10
(PID.TID 0000.0001)   Seconds in section "SEAICE_COST_DRIVER [ECCO SPIN-DOWN]":
(PID.TID 0000.0001)           User time:   0.0000000000000000
(PID.TID 0000.0001)         System time:   0.0000000000000000
(PID.TID 0000.0001)     Wall clock time:  6.90221786499023438E-004
(PID.TID 0000.0001)          No. starts:          10
(PID.TID 0000.0001)           No. stops:          10
(PID.TID 0000.0001)   Seconds in section "COST_INTERNAL_PARAMS  [ECCO SPIN-DOWN]":
(PID.TID 0000.0001)           User time:   0.0000000000000000
(PID.TID 0000.0001)         System time:   0.0000000000000000
(PID.TID 0000.0001)     Wall clock time:  9.17911529541015625E-005
(PID.TID 0000.0001)          No. starts:          10
(PID.TID 0000.0001)           No. stops:          10
(PID.TID 0000.0001)   Seconds in section "COST_GENCOST_ALL    [ECCO SPIN-DOWN]":
(PID.TID 0000.0001)           User time:   0.0000000000000000
(PID.TID 0000.0001)         System time:   0.0000000000000000
(PID.TID 0000.0001)     Wall clock time:  9.13143157958984375E-005
(PID.TID 0000.0001)          No. starts:          10
(PID.TID 0000.0001)           No. stops:          10
(PID.TID 0000.0001)   Seconds in section "COST_USERCOST_ALL    [ECCO SPIN-DOWN]":
(PID.TID 0000.0001)           User time:   0.0000000000000000
(PID.TID 0000.0001)         System time:   0.0000000000000000
(PID.TID 0000.0001)     Wall clock time:  9.17911529541015625E-005
(PID.TID 0000.0001)          No. starts:          10
(PID.TID 0000.0001)           No. stops:          10
(PID.TID 0000.0001)   Seconds in section "COST_FINAL         [ECCO SPIN-DOWN]":
(PID.TID 0000.0001)           User time:   0.0000000000000000
(PID.TID 0000.0001)         System time:   0.0000000000000000
(PID.TID 0000.0001)     Wall clock time:  5.96761703491210938E-003
(PID.TID 0000.0001)          No. starts:          10
(PID.TID 0000.0001)           No. stops:          10
(PID.TID 0000.0001) // ======================================================
(PID.TID 0000.0001) // Tile <-> Tile communication statistics
(PID.TID 0000.0001) // ======================================================
(PID.TID 0000.0001) // o Tile number: 000001
(PID.TID 0000.0001) //         No. X exchanges =              0
(PID.TID 0000.0001) //            Max. X spins =              0
(PID.TID 0000.0001) //            Min. X spins =     1000000000
(PID.TID 0000.0001) //          Total. X spins =              0
(PID.TID 0000.0001) //            Avg. X spins =       0.00E+00
(PID.TID 0000.0001) //         No. Y exchanges =              0
(PID.TID 0000.0001) //            Max. Y spins =              0
(PID.TID 0000.0001) //            Min. Y spins =     1000000000
(PID.TID 0000.0001) //          Total. Y spins =              0
(PID.TID 0000.0001) //            Avg. Y spins =       0.00E+00
(PID.TID 0000.0001) // o Tile number: 000002
(PID.TID 0000.0001) //         No. X exchanges =              0
(PID.TID 0000.0001) //            Max. X spins =              0
(PID.TID 0000.0001) //            Min. X spins =     1000000000
(PID.TID 0000.0001) //          Total. X spins =              0
(PID.TID 0000.0001) //            Avg. X spins =       0.00E+00
(PID.TID 0000.0001) //         No. Y exchanges =              0
(PID.TID 0000.0001) //            Max. Y spins =              0
(PID.TID 0000.0001) //            Min. Y spins =     1000000000
(PID.TID 0000.0001) //          Total. Y spins =              0
(PID.TID 0000.0001) //            Avg. Y spins =       0.00E+00
(PID.TID 0000.0001) // o Tile number: 000003
(PID.TID 0000.0001) //         No. X exchanges =              0
(PID.TID 0000.0001) //            Max. X spins =              0
(PID.TID 0000.0001) //            Min. X spins =     1000000000
(PID.TID 0000.0001) //          Total. X spins =              0
(PID.TID 0000.0001) //            Avg. X spins =       0.00E+00
(PID.TID 0000.0001) //         No. Y exchanges =              0
(PID.TID 0000.0001) //            Max. Y spins =              0
(PID.TID 0000.0001) //            Min. Y spins =     1000000000
(PID.TID 0000.0001) //          Total. Y spins =              0
(PID.TID 0000.0001) //            Avg. Y spins =       0.00E+00
(PID.TID 0000.0001) // o Tile number: 000004
(PID.TID 0000.0001) //         No. X exchanges =              0
(PID.TID 0000.0001) //            Max. X spins =              0
(PID.TID 0000.0001) //            Min. X spins =     1000000000
(PID.TID 0000.0001) //          Total. X spins =              0
(PID.TID 0000.0001) //            Avg. X spins =       0.00E+00
(PID.TID 0000.0001) //         No. Y exchanges =              0
(PID.TID 0000.0001) //            Max. Y spins =              0
(PID.TID 0000.0001) //            Min. Y spins =     1000000000
(PID.TID 0000.0001) //          Total. Y spins =              0
(PID.TID 0000.0001) //            Avg. Y spins =       0.00E+00
(PID.TID 0000.0001) // o Thread number: 000001
(PID.TID 0000.0001) //            No. barriers =          50492
(PID.TID 0000.0001) //      Max. barrier spins =              1
(PID.TID 0000.0001) //      Min. barrier spins =              1
(PID.TID 0000.0001) //     Total barrier spins =          50492
(PID.TID 0000.0001) //      Avg. barrier spins =       1.00E+00
PROGRAM MAIN: Execution ended Normally
