(PID.TID 0000.0001) 
(PID.TID 0000.0001) // ======================================================
(PID.TID 0000.0001) //                      MITgcm UV
(PID.TID 0000.0001) //                      =========
(PID.TID 0000.0001) // ======================================================
(PID.TID 0000.0001) // execution environment starting up...
(PID.TID 0000.0001) // Run starting Wed Apr  1 14:19:48 1998
(PID.TID 0000.0001) // on melville.lcs.mit.edu
(PID.TID 0000.0001) // account cnh
(PID.TID 0000.0001) // MITgcm UV Release: $Name:  $
(PID.TID 0000.0001) 
(PID.TID 0000.0001) // =======================================================
(PID.TID 0000.0001) // Execution Environment parameter file "eedata"
(PID.TID 0000.0001) // =======================================================
(PID.TID 0000.0001) ># Example "eedata" file
(PID.TID 0000.0001) ># Lines beginning "#" are comments
(PID.TID 0000.0001) ># nTx - No. threads per process in X
(PID.TID 0000.0001) ># nTy - No. threads per process in Y
(PID.TID 0000.0001) > &EEPARMS
(PID.TID 0000.0001) > nTx=1,nTy=1
(PID.TID 0000.0001) > &
(PID.TID 0000.0001) ># Note: Some systems use & as the
(PID.TID 0000.0001) ># namelist terminator. Other systems
(PID.TID 0000.0001) ># use a / character (as shown here).
(PID.TID 0000.0001) 
(PID.TID 0000.0001) // =======================================================
(PID.TID 0000.0001) // Computational Grid Specification ( see files "SIZE.h" )
(PID.TID 0000.0001) //                                  ( and "eedata"       )
(PID.TID 0000.0001) // =======================================================
(PID.TID 0000.0001)      nPx =    1 ; /* No. processes in X */
(PID.TID 0000.0001)      nPy =    1 ; /* No. processes in Y */
(PID.TID 0000.0001)      nSx =    1 ; /* No. tiles in X per process */
(PID.TID 0000.0001)      nSy =    1 ; /* No. tiles in Y per process */
(PID.TID 0000.0001)      sNx =   90 ; /* Tile size in X */
(PID.TID 0000.0001)      sNy =   40 ; /* Tile size in Y */
(PID.TID 0000.0001)      OLx =    3 ; /* Tile overlap distance in X */
(PID.TID 0000.0001)      OLy =    3 ; /* Tile overlap distance in Y */
(PID.TID 0000.0001)      nTx =    1 ; /* No. threads in X per process */
(PID.TID 0000.0001)      nTy =    1 ; /* No. threads in Y per process */
(PID.TID 0000.0001)       Nr =   20 ; /* No. levels in the vertical   */
(PID.TID 0000.0001)       nX =   90 ; /* Total domain size in X ( = nPx*nSx*sNx ) */
(PID.TID 0000.0001)       nY =   40 ; /* Total domain size in Y ( = nPy*nSy*sNy ) */
(PID.TID 0000.0001)   nTiles =    1 ; /* Total no. tiles per process ( = nSx*nSy ) */
(PID.TID 0000.0001)   nProcs =    1 ; /* Total no. processes ( = nPx*nPy ) */
(PID.TID 0000.0001) nThreads =    1 ; /* Total no. threads per process ( = nTx*nTy ) */
(PID.TID 0000.0001) usingMPI =    F ; /* Flag used to control whether MPI is in use */
(PID.TID 0000.0001)                   /*  note: To execute a program with MPI calls */
(PID.TID 0000.0001)                   /*  it must be launched appropriately e.g     */
(PID.TID 0000.0001)                   /*  "mpirun -np 64 ......"                    */
(PID.TID 0000.0001) 
(PID.TID 0000.0001) // ======================================================
(PID.TID 0000.0001) // Mapping of tiles to threads
(PID.TID 0000.0001) // ======================================================
(PID.TID 0000.0001) // -o- Thread   1, tiles (   1:   1,   1:   1)
(PID.TID 0000.0001) 
(PID.TID 0000.0001) // ======================================================
(PID.TID 0000.0001) // Tile <-> Tile connectvity table
(PID.TID 0000.0001) // ======================================================
(PID.TID 0000.0001) // Tile number: 000001 (process no. = 000001)
(PID.TID 0000.0001) //        WEST: Tile = 000001, Process = 000001, Comm = put
(PID.TID 0000.0001) //                bi = 000001, bj = 000001
(PID.TID 0000.0001) //        EAST: Tile = 000001, Process = 000001, Comm = put
(PID.TID 0000.0001) //                bi = 000001, bj = 000001
(PID.TID 0000.0001) //       SOUTH: Tile = 000001, Process = 000001, Comm = put
(PID.TID 0000.0001) //                bi = 000001, bj = 000001
(PID.TID 0000.0001) //       NORTH: Tile = 000001, Process = 000001, Comm = put
(PID.TID 0000.0001) //                bi = 000001, bj = 000001
(PID.TID 0000.0001) 
(PID.TID 0000.0001) // =======================================================
(PID.TID 0000.0001) // Model parameter file "data"
(PID.TID 0000.0001) // =======================================================
(PID.TID 0000.0001) ># ====================
(PID.TID 0000.0001) ># | Model parameters |
(PID.TID 0000.0001) ># ====================
(PID.TID 0000.0001) >#
(PID.TID 0000.0001) ># Continuous equation parameters
(PID.TID 0000.0001) > &PARM01
(PID.TID 0000.0001) > tRef= 16.0 , 15.2 , 14.5 , 13.9 , 13.3 ,
(PID.TID 0000.0001) >       12.4 , 11.3 ,  9.9 ,  8.4 ,  6.7 ,
(PID.TID 0000.0001) >        5.2 ,  3.8 ,  2.9 ,  2.3 ,  1.8 ,
(PID.TID 0000.0001) >        1.5 ,  1.1 ,  0.8 ,  0.66,  0.63,
(PID.TID 0000.0001) > sRef= 34.65, 34.75, 34.82, 34.87, 34.90,
(PID.TID 0000.0001) >       34.90, 34.86, 34.78, 34.69, 34.60,
(PID.TID 0000.0001) >       34.58, 34.62, 34.68, 34.72, 34.73,
(PID.TID 0000.0001) >       34.74, 34.73, 34.73, 34.72, 34.72,
(PID.TID 0000.0001) > viscAz=1.E-3,
(PID.TID 0000.0001) > viscAh=5.E5,
(PID.TID 0000.0001) > no_slip_sides=.FALSE.,
(PID.TID 0000.0001) > no_slip_bottom=.TRUE.,
(PID.TID 0000.0001) > diffKhT=1.E3,
(PID.TID 0000.0001) > diffKzT=3.E-5,
(PID.TID 0000.0001) > diffKhS=1.E3,
(PID.TID 0000.0001) > diffKzS=3.E-5,
(PID.TID 0000.0001) > beta=1.E-11,
(PID.TID 0000.0001) > f0=1.e-4,
(PID.TID 0000.0001) > tAlpha=2.E-4,
(PID.TID 0000.0001) > sBeta =7.4E-4,
(PID.TID 0000.0001) > gravity=9.81,
(PID.TID 0000.0001) > rigidLid=.FALSE.,
(PID.TID 0000.0001) > implicitFreeSurface=.TRUE.,
(PID.TID 0000.0001) > eosType='LINEAR',
(PID.TID 0000.0001) > readBinaryPrec=32,
(PID.TID 0000.0001) > &
(PID.TID 0000.0001) >
(PID.TID 0000.0001) ># Elliptic solver parameters
(PID.TID 0000.0001) > &PARM02
(PID.TID 0000.0001) > cg2dMaxIters=1000,
(PID.TID 0000.0001) > cg2dTargetResidual=1.E-13,
(PID.TID 0000.0001) > &
(PID.TID 0000.0001) >
(PID.TID 0000.0001) ># Time stepping parameters
(PID.TID 0000.0001) > &PARM03
(PID.TID 0000.0001) > startTime=0,
(PID.TID 0000.0001) >#endTime=3110400000,
(PID.TID 0000.0001) > endTime=2808000.,
(PID.TID 0000.0001) > deltaTmom=2400.0,
(PID.TID 0000.0001) > tauCD=321428.,
(PID.TID 0000.0001) > deltaTtracer=108000.0,
(PID.TID 0000.0001) > deltaTClock =108000.0,
(PID.TID 0000.0001) > cAdjFreq=-1.,
(PID.TID 0000.0001) > abEps=0.1,
(PID.TID 0000.0001) > pChkptFreq=0.0,
(PID.TID 0000.0001) > chkptFreq=0.0,
(PID.TID 0000.0001) > dumpFreq=2592000.0,
(PID.TID 0000.0001) > tauThetaClimRelax=2592000.0,
(PID.TID 0000.0001) > tauSaltClimRelax=2592000.0,
(PID.TID 0000.0001) > monitorFreq=1.,
(PID.TID 0000.0001) > &
(PID.TID 0000.0001) >
(PID.TID 0000.0001) ># Gridding parameters
(PID.TID 0000.0001) > &PARM04
(PID.TID 0000.0001) > usingCartesianGrid=.FALSE.,
(PID.TID 0000.0001) > usingSphericalPolarGrid=.TRUE.,
(PID.TID 0000.0001) > delZ= 5.000000e+01, 5.000000e+01, 5.500000e+01, 6.000000e+01,
(PID.TID 0000.0001) >       6.500000e+01, 7.000000e+01, 8.000000e+01, 9.500000e+01,
(PID.TID 0000.0001) >       1.200000e+02, 1.550000e+02, 2.000000e+02, 2.600000e+02,
(PID.TID 0000.0001) >       3.200000e+02, 4.000000e+02, 4.800000e+02, 5.700000e+02,
(PID.TID 0000.0001) >       6.550000e+02, 7.250000e+02, 7.750000e+02, 8.150000e+02,
(PID.TID 0000.0001) > phiMin=-80.,
(PID.TID 0000.0001) > delY=40*4,
(PID.TID 0000.0001) > delX=90*4,
(PID.TID 0000.0001) > &
(PID.TID 0000.0001) >
(PID.TID 0000.0001) ># Input datasets
(PID.TID 0000.0001) > &PARM05
(PID.TID 0000.0001) > hydrogThetaFile='theta.bin',
(PID.TID 0000.0001) > hydrogSaltFile='salt.bin',
(PID.TID 0000.0001) > bathyFile='topog.bin',
(PID.TID 0000.0001) > zonalWindFile='windx.bin',
(PID.TID 0000.0001) > meridWindFile='windy.bin',
(PID.TID 0000.0001) > thetaClimFile='SST.bin'
(PID.TID 0000.0001) > saltClimFile='SSS.bin'
(PID.TID 0000.0001) > &
(PID.TID 0000.0001) 
(PID.TID 0000.0001) %MON XC_max                       =   3.5800000000000E+02
(PID.TID 0000.0001) %MON XC_min                       =   2.0000000000000E+00
(PID.TID 0000.0001) %MON XC_mean                      =   1.8000000000000E+02
(PID.TID 0000.0001) %MON XC_sd                        =   1.0391663325314E+02
(PID.TID 0000.0001) %MON XG_max                       =   3.5600000000000E+02
(PID.TID 0000.0001) %MON XG_min                       =   4.0000000000000E+00
(PID.TID 0000.0001) %MON XG_mean                      =   1.8000000000000E+02
(PID.TID 0000.0001) %MON XG_sd                        =   1.0276186062932E+02
(PID.TID 0000.0001) %MON DXC_max                      =   4.4443898815675E+05
(PID.TID 0000.0001) %MON DXC_min                      =   9.2460385861875E+04
(PID.TID 0000.0001) %MON DXC_mean                     =   3.1372497618153E+05
(PID.TID 0000.0001) %MON DXC_sd                       =   1.1216447457560E+05
(PID.TID 0000.0001) %MON DXF_max                      =   4.4443898815675E+05
(PID.TID 0000.0001) %MON DXF_min                      =   9.2460385861875E+04
(PID.TID 0000.0001) %MON DXF_mean                     =   3.1372497618153E+05
(PID.TID 0000.0001) %MON DXF_sd                       =   1.1216447457560E+05
(PID.TID 0000.0001) %MON DXG_max                      =   4.4470989340816E+05
(PID.TID 0000.0001) %MON DXG_min                      =   7.7223062580781E+04
(PID.TID 0000.0001) %MON DXG_mean                     =   3.1353386340260E+05
(PID.TID 0000.0001) %MON DXG_sd                       =   1.1256651772502E+05
(PID.TID 0000.0001) %MON DXV_max                      =   4.4470989340816E+05
(PID.TID 0000.0001) %MON DXV_min                      =   7.7223062580781E+04
(PID.TID 0000.0001) %MON DXV_mean                     =   3.1353386340260E+05
(PID.TID 0000.0001) %MON DXV_sd                       =   1.1256651772502E+05
(PID.TID 0000.0001) %MON YC_max                       =   7.8000000000000E+01
(PID.TID 0000.0001) %MON YC_min                       =  -7.8000000000000E+01
(PID.TID 0000.0001) %MON YC_mean                      =   0.0000000000000E+00
(PID.TID 0000.0001) %MON YC_sd                        =   4.6173585522461E+01
(PID.TID 0000.0001) %MON YG_max                       =   7.6000000000000E+01
(PID.TID 0000.0001) %MON YG_min                       =  -8.0000000000000E+01
(PID.TID 0000.0001) %MON YG_mean                      =  -2.0512820512821E+00
(PID.TID 0000.0001) %MON YG_sd                        =   4.6760682979564E+01
(PID.TID 0000.0001) %MON DYC_max                      =   4.4470989340816E+05
(PID.TID 0000.0001) %MON DYC_min                      =   4.4470989340816E+05
(PID.TID 0000.0001) %MON DYC_mean                     =   4.4470989340814E+05
(PID.TID 0000.0001) %MON DYC_sd                       =   1.9848812371492E-08
(PID.TID 0000.0001) %MON DYF_max                      =   4.4470989340816E+05
(PID.TID 0000.0001) %MON DYF_min                      =   4.4470989340816E+05
(PID.TID 0000.0001) %MON DYF_mean                     =   4.4470989340814E+05
(PID.TID 0000.0001) %MON DYF_sd                       =   1.9848812371492E-08
(PID.TID 0000.0001) %MON DYG_max                      =   4.4470989340816E+05
(PID.TID 0000.0001) %MON DYG_min                      =   4.4470989340816E+05
(PID.TID 0000.0001) %MON DYG_mean                     =   4.4470989340814E+05
(PID.TID 0000.0001) %MON DYG_sd                       =   1.9848812371492E-08
(PID.TID 0000.0001) %MON DYU_max                      =   4.4470989340816E+05
(PID.TID 0000.0001) %MON DYU_min                      =   4.4470989340816E+05
(PID.TID 0000.0001) %MON DYU_mean                     =   4.4470989340814E+05
(PID.TID 0000.0001) %MON DYU_sd                       =   1.9848812371492E-08
(PID.TID 0000.0001) %MON RA_max                       =   1.9760627980089E+11
(PID.TID 0000.0001) %MON RA_min                       =   4.1109698667291E+10
(PID.TID 0000.0001) %MON RA_mean                      =   1.3948826965197E+11
(PID.TID 0000.0001) %MON RA_sd                        =   4.9870522472902E+10
(PID.TID 0000.0001) %MON RAW_max                      =   1.9760627980089E+11
(PID.TID 0000.0001) %MON RAW_min                      =   4.1109698667291E+10
(PID.TID 0000.0001) %MON RAW_mean                     =   1.3948826965197E+11
(PID.TID 0000.0001) %MON RAW_sd                       =   4.9870522472902E+10
(PID.TID 0000.0001) %MON RAS_max                      =   1.9772672958215E+11
(PID.TID 0000.0001) %MON RAS_min                      =   3.4334886267982E+10
(PID.TID 0000.0001) %MON RAS_mean                     =   1.3940329716694E+11
(PID.TID 0000.0001) %MON RAS_sd                       =   5.0049278732354E+10
(PID.TID 0000.0001) %MON RAZ_max                      =   1.9772672958215E+11
(PID.TID 0000.0001) %MON RAZ_min                      =   3.4334886267982E+10
(PID.TID 0000.0001) %MON RAZ_mean                     =   1.3940329716694E+11
(PID.TID 0000.0001) %MON RAZ_sd                       =   5.0049278732354E+10
(PID.TID 0000.0001)  MDSREADFIELD: opening global file: topog.bin
(PID.TID 0000.0001) // =======================================================
(PID.TID 0000.0001) // Field Model R_low (ini_masks_etc) at iteration          1
(PID.TID 0000.0001) // CMIN =         -6.000000000000000E+03
(PID.TID 0000.0001) // CMAX =         -5.000000000000000E+01
(PID.TID 0000.0001) // CINT =          2.203703703703704E+02
(PID.TID 0000.0001) // SYMBOLS (CMIN->CMAX): -abcdefghijklmnopqrstuvwxyz+
(PID.TID 0000.0001) //                  0.0: .
(PID.TID 0000.0001) // RANGE I (Lo:Hi:Step):(  -2:  93:   1)
(PID.TID 0000.0001) // RANGE J (Lo:Hi:Step):(  43:  -2:  -1)
(PID.TID 0000.0001) // RANGE K (Lo:Hi:Step):(   1:   1:   1)
(PID.TID 0000.0001) // =======================================================
(PID.TID 0000.0001) K =   1
(PID.TID 0000.0001) //                I=7       I=17      I=27      I=37      I=47      I=57      I=67      I=77      I=87
(PID.TID 0000.0001) // |--J--|**0123456|890123456|890123456|890123456|890123456|890123456|890123456|890123456|890123456|890123
(PID.TID 0000.0001) //     43 ................................................................................................
(PID.TID 0000.0001) //     42 ..............................................yyxwrpmm...........................xwtt...........
(PID.TID 0000.0001) //     41 ................................................................................................
(PID.TID 0000.0001) //     40 ................................................................................................
(PID.TID 0000.0001) //     39 ppmmmprxz...................................................................rtw.........wrppmmmp
(PID.TID 0000.0001) //     38 rmmmmmr......................................................................vw........wwtrmmmmm
(PID.TID 0000.0001) //     37 vmmpw........................................................................xrr...rprv..tvmmpw.
(PID.TID 0000.0001) //     36 txxz..........................................mmprz..........................vpmm.mmprrpprtxxz..
(PID.TID 0000.0001) //     35 r..++.................................ywxz.kgmmmmmmvr.ggkkmr..................pkkkkmpmmprpr..++.
(PID.TID 0000.0001) //     34 w......................................wwwd-gd------d-ggkkkmp..................xmkkkkkkkgmw.....
(PID.TID 0000.0001) //     33 gg.....................................mm-----------ddddggkkpr...............zz.tmkgkkkggggg....
(PID.TID 0000.0001) //     32 g......................................k---d--------dddddgkkkp...............pkgkgdgkmmkgdg.....
(PID.TID 0000.0001) //     31 .......................................-----d------dddddd-dggg.............kgdd-dd-gkpkgdd......
(PID.TID 0000.0001) //     30 d.....................................----d--d-gddd----dd-dddg............gdddd---dkmkddddd.....
(PID.TID 0000.0001) //     29 k.................................zvgk----d---ddd-------ddddgkkm.........pd-dd---gkkgk-dgkk.....
(PID.TID 0000.0001) //     28 .................................yrggd----------dddd----ddgggkkk......pm.gddd----ggd--ddkm......
(PID.TID 0000.0001) //     27 ..................................---dd---------dddgggdddddggkkkkm...kkmrrd-----dkg---dgk.......
(PID.TID 0000.0001) //     26 ..................kmm....t.....mkg---dg----ddddgdddddgdddddddgkkkmk..m.kggk-----gkg--ddgm.......
(PID.TID 0000.0001) //     25 ................kkkkk..mmpp...rkk.d--dg----dddddd-dd-dd---dddggkkkkk....kkkgdd-dgkd---dkk.......
(PID.TID 0000.0001) //     24 ...............pkkkkkt.kkmp...kkk.---------dggd---dd-dd--dddgggkkkkmkgk.mkk.dpgddgg---dgk.......
(PID.TID 0000.0001) //     23 ................dgkggmpkkkk.++ppkk----kggddddkd----dgdddddgggggkkkkmkkkm......mkggkkdddggg......
(PID.TID 0000.0001) //     22 ggggk..........ddgkkkmkkkkk..++..d--dggdgkkggkgdd--ddkgddggkkkkkkkkmmkkmm.......mkkgkkkgddggggk.
(PID.TID 0000.0001) //     21 dddgk.........gddggkkggggggg.....ppkkgkgdkpkkkgd----ddgggkkkkggkkkkkmmmmm........kkkkgkgdddddgk.
(PID.TID 0000.0001) //     20 gdgggk.......kddgkgkggddggdd.......d...rrmrkkkdd----dddggggggggkkkkkkkkk............kdd-dggdgggk
(PID.TID 0000.0001) //     19 kgdddg.......kggkkkkmddddddd--.kkkg-t...-dkkkddgd--ggddddkkgggkkkkkkkkkkd...........gd-dgkkgdddg
(PID.TID 0000.0001) //     18 kddddg.......mkkkkkkkdddgd-------mv....mkkmd-kkkkgddkddgggkkkkkkkkkkkkkggg..........gd-dgkkddddg
(PID.TID 0000.0001) //     17 kgd-dg.......m..gkkkggddg--------t......ggkggkmmp--ddgggkkkkkkkkmkkkkkgggk..........gd--gkkgd-dg
(PID.TID 0000.0001) //     16 kgdddg......mp.ddkkmkggdg------k........wmmmgdkkp-ddggggggkkkkkkmkkkkkgkkgd........kgd--gkkgdddg
(PID.TID 0000.0001) //     15 g-ddkg......kk.dddgkkkggggd---g..........ggpmggkr--ddgggggkkkkkmmkkkkkkkkgk.......pkgdddgkg-ddkg
(PID.TID 0000.0001) //     14 kgdddgk....rggkdd-ggkkkkgggddd-...........gpkkgk--ddddgggkkkkkkmmmkkkkkkkkd......mkkgd-gkkkgdddg
(PID.TID 0000.0001) //     13 kgkdddk...kmdgkggkggggkkkkkgddd..........-gtkkkk-----dgddggkkkkkmmkkkkkkkkg.....mkkkggggkmkgkddd
(PID.TID 0000.0001) //     12 kkgdddgkgkkdddmkggdggkmkkkkkdddd.d---....dddprtm-----dd-ddggggkkkmkkkkkkkkg....pddddgkkkmkkkgddd
(PID.TID 0000.0001) //     11 kkgddggddkgddgmkgddgkkmkkkkkggggd----ddxkgddkw.mgdgddgddddddggkkkkkkgkkkkk....pdddddddkkmmkkgddg
(PID.TID 0000.0001) //     10 kkkgggddddddkmmmgddkkkmmmmkkkkkggggggggkkdddk.tpmddddgddddddggkkkkkkgggkkk...+gd-ddddggkkmkkkggg
(PID.TID 0000.0001) //      9 mkkkkgdddddggkkkkgkmpmmkkkkmkmkkkkkkkgkkgddgkwtpddddddddggggggkkmkkkkgggkk...xg------ddgkkmkkkkg
(PID.TID 0000.0001) //      8 kpmkkkkkkdddgkkgggggkrpkgkkkkkkkkkkkkkkkkgggkwgd---ddddggkkkkkkmkkggddgggk..zxrpmmkggggkkkkpmkkk
(PID.TID 0000.0001) //      7 kkkgddddgd----ddddgggkmgddkkkkkkggggkkkkkkkgddddddddgggkkkkkkmmkkdddddddggkkkkkgkkkkg---gkkkkgdd
(PID.TID 0000.0001) //      6 ddddddddd--d--dddddgggkpkggkkkkkgggggkkkkkmdddddgggggkmmkkggddddddddddddddggkkkkkkkkkk-dgddddddd
(PID.TID 0000.0001) //      5 -dddddddddddddgddgkgkkmmmmkk.kkkkkkkkkkkkmmpkkkkkkmmmkkkkkggddddddgdddggggkkk.xpkkgggggddd-ddddd
(PID.TID 0000.0001) //      4 ggkkkkkgggk.k..............................rpmmmkkkkkkkkkkkkgggggggggkgkkkm...xmkkkkggggggggkkkk
(PID.TID 0000.0001) //      3 ..............................................ppmkkkkkkkkkkkkmmpmmmm..........wpmkkkkkkkk.......
(PID.TID 0000.0001) //      2 ..............................................yyxwrpmm...........................xwtt...........
(PID.TID 0000.0001) //      1 ................................................................................................
(PID.TID 0000.0001) //      0 ................................................................................................
(PID.TID 0000.0001) //     -1 ppmmmprxz...................................................................rtw.........wrppmmmp
(PID.TID 0000.0001) //     -2 ................................................................................................
(PID.TID 0000.0001) // =======================================================
(PID.TID 0000.0001) // END OF FIELD                                          =
(PID.TID 0000.0001) // =======================================================
(PID.TID 0000.0001) 
(PID.TID 0000.0001) // =======================================================
(PID.TID 0000.0001) // Field Model Ro_surf (ini_masks_etc) at iteration          1
(PID.TID 0000.0001) // CMIN =          1.000000000000000E+32
(PID.TID 0000.0001) // CMAX =         -1.000000000000000E+32
(PID.TID 0000.0001) // CINT =          0.000000000000000E+00
(PID.TID 0000.0001) // SYMBOLS (CMIN->CMAX): -abcdefghijklmnopqrstuvwxyz+
(PID.TID 0000.0001) //                  0.0: .
(PID.TID 0000.0001) // RANGE I (Lo:Hi:Step):(  -2:  93:   1)
(PID.TID 0000.0001) // RANGE J (Lo:Hi:Step):(  43:  -2:  -1)
(PID.TID 0000.0001) // RANGE K (Lo:Hi:Step):(   1:   1:   1)
(PID.TID 0000.0001) // =======================================================
(PID.TID 0000.0001) K =   1
(PID.TID 0000.0001) //                I=7       I=17      I=27      I=37      I=47      I=57      I=67      I=77      I=87
(PID.TID 0000.0001) // |--J--|**0123456|890123456|890123456|890123456|890123456|890123456|890123456|890123456|890123456|890123
(PID.TID 0000.0001) //     43 ................................................................................................
(PID.TID 0000.0001) //     42 ................................................................................................
(PID.TID 0000.0001) //     41 ................................................................................................
(PID.TID 0000.0001) //     40 ................................................................................................
(PID.TID 0000.0001) //     39 ................................................................................................
(PID.TID 0000.0001) //     38 ................................................................................................
(PID.TID 0000.0001) //     37 ................................................................................................
(PID.TID 0000.0001) //     36 ................................................................................................
(PID.TID 0000.0001) //     35 ................................................................................................
(PID.TID 0000.0001) //     34 ................................................................................................
(PID.TID 0000.0001) //     33 ................................................................................................
(PID.TID 0000.0001) //     32 ................................................................................................
(PID.TID 0000.0001) //     31 ................................................................................................
(PID.TID 0000.0001) //     30 ................................................................................................
(PID.TID 0000.0001) //     29 ................................................................................................
(PID.TID 0000.0001) //     28 ................................................................................................
(PID.TID 0000.0001) //     27 ................................................................................................
(PID.TID 0000.0001) //     26 ................................................................................................
(PID.TID 0000.0001) //     25 ................................................................................................
(PID.TID 0000.0001) //     24 ................................................................................................
(PID.TID 0000.0001) //     23 ................................................................................................
(PID.TID 0000.0001) //     22 ................................................................................................
(PID.TID 0000.0001) //     21 ................................................................................................
(PID.TID 0000.0001) //     20 ................................................................................................
(PID.TID 0000.0001) //     19 ................................................................................................
(PID.TID 0000.0001) //     18 ................................................................................................
(PID.TID 0000.0001) //     17 ................................................................................................
(PID.TID 0000.0001) //     16 ................................................................................................
(PID.TID 0000.0001) //     15 ................................................................................................
(PID.TID 0000.0001) //     14 ................................................................................................
(PID.TID 0000.0001) //     13 ................................................................................................
(PID.TID 0000.0001) //     12 ................................................................................................
(PID.TID 0000.0001) //     11 ................................................................................................
(PID.TID 0000.0001) //     10 ................................................................................................
(PID.TID 0000.0001) //      9 ................................................................................................
(PID.TID 0000.0001) //      8 ................................................................................................
(PID.TID 0000.0001) //      7 ................................................................................................
(PID.TID 0000.0001) //      6 ................................................................................................
(PID.TID 0000.0001) //      5 ................................................................................................
(PID.TID 0000.0001) //      4 ................................................................................................
(PID.TID 0000.0001) //      3 ................................................................................................
(PID.TID 0000.0001) //      2 ................................................................................................
(PID.TID 0000.0001) //      1 ................................................................................................
(PID.TID 0000.0001) //      0 ................................................................................................
(PID.TID 0000.0001) //     -1 ................................................................................................
(PID.TID 0000.0001) //     -2 ................................................................................................
(PID.TID 0000.0001) // =======================================================
(PID.TID 0000.0001) // END OF FIELD                                          =
(PID.TID 0000.0001) // =======================================================
(PID.TID 0000.0001) 
(PID.TID 0000.0001) // =======================================================
(PID.TID 0000.0001) // Field hFacC at iteration          1
(PID.TID 0000.0001) // CMIN =          1.000000000000000E+00
(PID.TID 0000.0001) // CMAX =          1.000000000000000E+00
(PID.TID 0000.0001) // CINT =          0.000000000000000E+00
(PID.TID 0000.0001) // SYMBOLS (CMIN->CMAX): -abcdefghijklmnopqrstuvwxyz+
(PID.TID 0000.0001) //                  0.0: .
(PID.TID 0000.0001) // RANGE I (Lo:Hi:Step):(  -2:  93:   1)
(PID.TID 0000.0001) // RANGE J (Lo:Hi:Step):(  43:  -2:  -1)
(PID.TID 0000.0001) // RANGE K (Lo:Hi:Step):(   1:   1:   1)
(PID.TID 0000.0001) // =======================================================
(PID.TID 0000.0001) K =   1
(PID.TID 0000.0001) //                I=7       I=17      I=27      I=37      I=47      I=57      I=67      I=77      I=87
(PID.TID 0000.0001) // |--J--|**0123456|890123456|890123456|890123456|890123456|890123456|890123456|890123456|890123456|890123
(PID.TID 0000.0001) //     43 ................................................................................................
(PID.TID 0000.0001) //     42 ..............................................--------...........................----...........
(PID.TID 0000.0001) //     41 ................................................................................................
(PID.TID 0000.0001) //     40 ................................................................................................
(PID.TID 0000.0001) //     39 ---------...................................................................---.........--------
(PID.TID 0000.0001) //     38 -------......................................................................--........---------
(PID.TID 0000.0001) //     37 -----........................................................................---...----..------.
(PID.TID 0000.0001) //     36 ----..........................................-----..........................----.------------..
(PID.TID 0000.0001) //     35 -..--.................................----.----------.------..................-------------..--.
(PID.TID 0000.0001) //     34 -......................................----------------------..................------------.....
(PID.TID 0000.0001) //     33 --.....................................-----------------------...............--.------------....
(PID.TID 0000.0001) //     32 -......................................-----------------------...............--------------.....
(PID.TID 0000.0001) //     31 .......................................-----------------------.............---------------......
(PID.TID 0000.0001) //     30 -.....................................------------------------............-----------------.....
(PID.TID 0000.0001) //     29 -.................................------------------------------.........------------------.....
(PID.TID 0000.0001) //     28 .................................-------------------------------......--.-----------------......
(PID.TID 0000.0001) //     27 ..................................--------------------------------...--------------------.......
(PID.TID 0000.0001) //     26 ..................---....-.....------------------------------------..-.------------------.......
(PID.TID 0000.0001) //     25 ................-----..----...---.----------------------------------....-----------------.......
(PID.TID 0000.0001) //     24 ...............-------.----...---.-------------------------------------.---.-------------.......
(PID.TID 0000.0001) //     23 ................-----------.--------------------------------------------......------------......
(PID.TID 0000.0001) //     22 -----..........------------..--..----------------------------------------.......---------------.
(PID.TID 0000.0001) //     21 -----.........--------------.....----------------------------------------........--------------.
(PID.TID 0000.0001) //     20 ------.......---------------.......-...---------------------------------............------------
(PID.TID 0000.0001) //     19 ------.......-----------------.------...---------------------------------...........------------
(PID.TID 0000.0001) //     18 ------.......----------------------....-----------------------------------..........------------
(PID.TID 0000.0001) //     17 ------.......-..------------------......----------------------------------..........------------
(PID.TID 0000.0001) //     16 ------......--.-----------------........-----------------------------------........-------------
(PID.TID 0000.0001) //     15 ------......--.----------------..........----------------------------------.......--------------
(PID.TID 0000.0001) //     14 -------....--------------------...........---------------------------------......---------------
(PID.TID 0000.0001) //     13 -------...---------------------..........----------------------------------.....----------------
(PID.TID 0000.0001) //     12 --------------------------------.----....----------------------------------....-----------------
(PID.TID 0000.0001) //     11 ----------------------------------------------.---------------------------....------------------
(PID.TID 0000.0001) //     10 ---------------------------------------------.----------------------------...-------------------
(PID.TID 0000.0001) //      9 --------------------------------------------------------------------------...-------------------
(PID.TID 0000.0001) //      8 --------------------------------------------------------------------------..--------------------
(PID.TID 0000.0001) //      7 ------------------------------------------------------------------------------------------------
(PID.TID 0000.0001) //      6 ------------------------------------------------------------------------------------------------
(PID.TID 0000.0001) //      5 ----------------------------.------------------------------------------------.------------------
(PID.TID 0000.0001) //      4 -----------.-..............................--------------------------------...------------------
(PID.TID 0000.0001) //      3 ..............................................----------------------..........-----------.......
(PID.TID 0000.0001) //      2 ..............................................--------...........................----...........
(PID.TID 0000.0001) //      1 ................................................................................................
(PID.TID 0000.0001) //      0 ................................................................................................
(PID.TID 0000.0001) //     -1 ---------...................................................................---.........--------
(PID.TID 0000.0001) //     -2 ................................................................................................
(PID.TID 0000.0001) // =======================================================
(PID.TID 0000.0001) // END OF FIELD                                          =
(PID.TID 0000.0001) // =======================================================
(PID.TID 0000.0001) 
(PID.TID 0000.0001) // =======================================================
(PID.TID 0000.0001) // Field hFacW at iteration          1
(PID.TID 0000.0001) // CMIN =          1.000000000000000E+00
(PID.TID 0000.0001) // CMAX =          1.000000000000000E+00
(PID.TID 0000.0001) // CINT =          0.000000000000000E+00
(PID.TID 0000.0001) // SYMBOLS (CMIN->CMAX): -abcdefghijklmnopqrstuvwxyz+
(PID.TID 0000.0001) //                  0.0: .
(PID.TID 0000.0001) // RANGE I (Lo:Hi:Step):(  -2:  93:   1)
(PID.TID 0000.0001) // RANGE J (Lo:Hi:Step):(  43:  -2:  -1)
(PID.TID 0000.0001) // RANGE K (Lo:Hi:Step):(   1:   1:   1)
(PID.TID 0000.0001) // =======================================================
(PID.TID 0000.0001) K =   1
(PID.TID 0000.0001) //                I=7       I=17      I=27      I=37      I=47      I=57      I=67      I=77      I=87
(PID.TID 0000.0001) // |--J--|**0123456|890123456|890123456|890123456|890123456|890123456|890123456|890123456|890123456|890123
(PID.TID 0000.0001) //     43 ...............................................---------------------...........----------.......
(PID.TID 0000.0001) //     42 ...............................................-------............................---...........
(PID.TID 0000.0001) //     41 ................................................................................................
(PID.TID 0000.0001) //     40 ................................................................................................
(PID.TID 0000.0001) //     39 ---------....................................................................--..........-------
(PID.TID 0000.0001) //     38 -------.......................................................................-.........--------
(PID.TID 0000.0001) //     37 -----.........................................................................--....---...-----.
(PID.TID 0000.0001) //     36 ----...........................................----...........................---..-----------..
(PID.TID 0000.0001) //     35 -...-..................................---..---------..-----...................------------...-.
(PID.TID 0000.0001) //     34 -.......................................---------------------...................-----------.....
(PID.TID 0000.0001) //     33 --......................................----------------------................-..-----------....
(PID.TID 0000.0001) //     32 -.......................................----------------------................-------------.....
(PID.TID 0000.0001) //     31 ........................................----------------------..............--------------......
(PID.TID 0000.0001) //     30 -......................................-----------------------.............----------------.....
(PID.TID 0000.0001) //     29 -..................................-----------------------------..........-----------------.....
(PID.TID 0000.0001) //     28 ..................................------------------------------.......-..----------------......
(PID.TID 0000.0001) //     27 ...................................-------------------------------....-------------------.......
(PID.TID 0000.0001) //     26 ...................--...........-----------------------------------.....-----------------.......
(PID.TID 0000.0001) //     25 .................----...---....--..---------------------------------.....----------------.......
(PID.TID 0000.0001) //     24 ................------..---....--..------------------------------------..--..------------.......
(PID.TID 0000.0001) //     23 .................----------..-------------------------------------------.......-----------......
(PID.TID 0000.0001) //     22 -----...........-----------...-...---------------------------------------........--------------.
(PID.TID 0000.0001) //     21 -----..........-------------......---------------------------------------.........-------------.
(PID.TID 0000.0001) //     20 ------........--------------............--------------------------------.............-----------
(PID.TID 0000.0001) //     19 ------........----------------..-----....--------------------------------............-----------
(PID.TID 0000.0001) //     18 ------........---------------------.....----------------------------------...........-----------
(PID.TID 0000.0001) //     17 ------...........-----------------.......---------------------------------...........-----------
(PID.TID 0000.0001) //     16 ------.......-..----------------.........----------------------------------.........------------
(PID.TID 0000.0001) //     15 ------.......-..---------------...........---------------------------------........-------------
(PID.TID 0000.0001) //     14 -------.....-------------------............--------------------------------.......--------------
(PID.TID 0000.0001) //     13 -------....--------------------...........---------------------------------......---------------
(PID.TID 0000.0001) //     12 --------------------------------..---.....---------------------------------.....----------------
(PID.TID 0000.0001) //     11 ----------------------------------------------..--------------------------.....-----------------
(PID.TID 0000.0001) //     10 ---------------------------------------------..---------------------------....------------------
(PID.TID 0000.0001) //      9 --------------------------------------------------------------------------....------------------
(PID.TID 0000.0001) //      8 --------------------------------------------------------------------------...-------------------
(PID.TID 0000.0001) //      7 ------------------------------------------------------------------------------------------------
(PID.TID 0000.0001) //      6 ------------------------------------------------------------------------------------------------
(PID.TID 0000.0001) //      5 ----------------------------..-----------------------------------------------..-----------------
(PID.TID 0000.0001) //      4 -----------.................................-------------------------------....-----------------
(PID.TID 0000.0001) //      3 ...............................................---------------------...........----------.......
(PID.TID 0000.0001) //      2 ...............................................-------............................---...........
(PID.TID 0000.0001) //      1 ................................................................................................
(PID.TID 0000.0001) //      0 ................................................................................................
(PID.TID 0000.0001) //     -1 ---------....................................................................--..........-------
(PID.TID 0000.0001) //     -2 -------.......................................................................-.........--------
(PID.TID 0000.0001) // =======================================================
(PID.TID 0000.0001) // END OF FIELD                                          =
(PID.TID 0000.0001) // =======================================================
(PID.TID 0000.0001) 
(PID.TID 0000.0001) // =======================================================
(PID.TID 0000.0001) // Field hFacS at iteration          1
(PID.TID 0000.0001) // CMIN =          1.000000000000000E+00
(PID.TID 0000.0001) // CMAX =          1.000000000000000E+00
(PID.TID 0000.0001) // CINT =          0.000000000000000E+00
(PID.TID 0000.0001) // SYMBOLS (CMIN->CMAX): -abcdefghijklmnopqrstuvwxyz+
(PID.TID 0000.0001) //                  0.0: .
(PID.TID 0000.0001) // RANGE I (Lo:Hi:Step):(  -2:  93:   1)
(PID.TID 0000.0001) // RANGE J (Lo:Hi:Step):(  43:  -2:  -1)
(PID.TID 0000.0001) // RANGE K (Lo:Hi:Step):(   1:   1:   1)
(PID.TID 0000.0001) // =======================================================
(PID.TID 0000.0001) K =   1
(PID.TID 0000.0001) //                I=7       I=17      I=27      I=37      I=47      I=57      I=67      I=77      I=87
(PID.TID 0000.0001) // |--J--|**0123456|890123456|890123456|890123456|890123456|890123456|890123456|890123456|890123456|890123
(PID.TID 0000.0001) //     43 ..............................................--------...........................----...........
(PID.TID 0000.0001) //     42 ................................................................................................
(PID.TID 0000.0001) //     41 ................................................................................................
(PID.TID 0000.0001) //     40 ................................................................................................
(PID.TID 0000.0001) //     39 -------......................................................................--.........--------
(PID.TID 0000.0001) //     38 -----........................................................................--..........------.
(PID.TID 0000.0001) //     37 ----.........................................................................---...----..-----..
(PID.TID 0000.0001) //     36 -..-..........................................-----...........................---.---------..-..
(PID.TID 0000.0001) //     35 -......................................---.----------.------...................------------.....
(PID.TID 0000.0001) //     34 -......................................----------------------...................-----------.....
(PID.TID 0000.0001) //     33 -......................................-----------------------...............--.-----------.....
(PID.TID 0000.0001) //     32 .......................................-----------------------...............-------------......
(PID.TID 0000.0001) //     31 .......................................-----------------------.............---------------......
(PID.TID 0000.0001) //     30 -.....................................------------------------............-----------------.....
(PID.TID 0000.0001) //     29 ..................................------------------------------.........-----------------......
(PID.TID 0000.0001) //     28 ..................................------------------------------......--.----------------.......
(PID.TID 0000.0001) //     27 ..................................--------------------------------...-.------------------.......
(PID.TID 0000.0001) //     26 ..................---....-.....--.---------------------------------.....-----------------.......
(PID.TID 0000.0001) //     25 ................-----..----...---.----------------------------------....---.-------------.......
(PID.TID 0000.0001) //     24 ................------.----...---.-------------------------------------.......-----------.......
(PID.TID 0000.0001) //     23 ................-----------..--..---------------------------------------........----------......
(PID.TID 0000.0001) //     22 -----..........------------......----------------------------------------........--------------.
(PID.TID 0000.0001) //     21 -----.........--------------.......-...---------------------------------............-----------.
(PID.TID 0000.0001) //     20 ------.......---------------.......-....--------------------------------............------------
(PID.TID 0000.0001) //     19 ------.......-----------------.----.....---------------------------------...........------------
(PID.TID 0000.0001) //     18 ------.......-..------------------......----------------------------------..........------------
(PID.TID 0000.0001) //     17 ------.......-..----------------........----------------------------------..........------------
(PID.TID 0000.0001) //     16 ------......--.----------------..........----------------------------------........-------------
(PID.TID 0000.0001) //     15 ------......--.----------------...........---------------------------------.......--------------
(PID.TID 0000.0001) //     14 -------....--------------------...........---------------------------------......---------------
(PID.TID 0000.0001) //     13 -------...---------------------..........----------------------------------.....----------------
(PID.TID 0000.0001) //     12 --------------------------------.----....-----.---------------------------.....-----------------
(PID.TID 0000.0001) //     11 ---------------------------------------------..---------------------------....------------------
(PID.TID 0000.0001) //     10 ---------------------------------------------.----------------------------...-------------------
(PID.TID 0000.0001) //      9 --------------------------------------------------------------------------...-------------------
(PID.TID 0000.0001) //      8 --------------------------------------------------------------------------..--------------------
(PID.TID 0000.0001) //      7 ------------------------------------------------------------------------------------------------
(PID.TID 0000.0001) //      6 ----------------------------.------------------------------------------------.------------------
(PID.TID 0000.0001) //      5 -----------.-..............................--------------------------------...------------------
(PID.TID 0000.0001) //      4 ..............................................----------------------..........-----------.......
(PID.TID 0000.0001) //      3 ..............................................--------...........................----...........
(PID.TID 0000.0001) //      2 ................................................................................................
(PID.TID 0000.0001) //      1 ................................................................................................
(PID.TID 0000.0001) //      0 ................................................................................................
(PID.TID 0000.0001) //     -1 -------......................................................................--.........--------
(PID.TID 0000.0001) //     -2 ................................................................................................
(PID.TID 0000.0001) // =======================================================
(PID.TID 0000.0001) // END OF FIELD                                          =
(PID.TID 0000.0001) // =======================================================
(PID.TID 0000.0001) 
(PID.TID 0000.0001) %MON fCori_max                    =   1.4226580169407E-04
(PID.TID 0000.0001) %MON fCori_min                    =  -1.4226580169407E-04
(PID.TID 0000.0001) %MON fCori_mean                   =   7.5291817533716E-23
(PID.TID 0000.0001) %MON fCori_sd                     =   9.6335367303778E-05
(PID.TID 0000.0001) %MON fCoriG_max                   =   1.4112379284621E-04
(PID.TID 0000.0001) %MON fCoriG_min                   =  -1.4323448157692E-04
(PID.TID 0000.0001) %MON fCoriG_mean                  =  -3.6726790147928E-06
(PID.TID 0000.0001) %MON fCoriG_sd                    =   9.7510077443652E-05
(PID.TID 0000.0001)  PACKAGE_INIT: opening data.pkg
(PID.TID 0000.0001)  OPEN_COPY_DATA_FILE: opening file data.pkg
(PID.TID 0000.0001) // =======================================================
(PID.TID 0000.0001) // Parameter file "data.pkg"
(PID.TID 0000.0001) // =======================================================
(PID.TID 0000.0001) ># Packages
(PID.TID 0000.0001) > &PACKAGES
(PID.TID 0000.0001) > &
(PID.TID 0000.0001) 
(PID.TID 0000.0001)  PACKAGE_INIT: finished reading data.pkg
(PID.TID 0000.0001) // CG2D normalisation factor =          0.8831987737220081712604530E-04
(PID.TID 0000.0001) 
(PID.TID 0000.0001) // =======================================================
(PID.TID 0000.0001) // Model configuration
(PID.TID 0000.0001) // =======================================================
(PID.TID 0000.0001) //
(PID.TID 0000.0001) // "Physical" paramters ( PARM01 in namelist )
(PID.TID 0000.0001) //
(PID.TID 0000.0001) tRef =   /* Reference temperature profile ( oC or oK ) */
(PID.TID 0000.0001)                 1.600000000000000E+01,      /* K =  1 */
(PID.TID 0000.0001)                 1.520000000000000E+01,      /* K =  2 */
(PID.TID 0000.0001)                 1.450000000000000E+01,      /* K =  3 */
(PID.TID 0000.0001)                 1.390000000000000E+01,      /* K =  4 */
(PID.TID 0000.0001)                 1.330000000000000E+01,      /* K =  5 */
(PID.TID 0000.0001)                 1.240000000000000E+01,      /* K =  6 */
(PID.TID 0000.0001)                 1.130000000000000E+01,      /* K =  7 */
(PID.TID 0000.0001)                 9.900000000000000E+00,      /* K =  8 */
(PID.TID 0000.0001)                 8.400000000000000E+00,      /* K =  9 */
(PID.TID 0000.0001)                 6.700000000000000E+00,      /* K = 10 */
(PID.TID 0000.0001)                 5.200000000000000E+00,      /* K = 11 */
(PID.TID 0000.0001)                 3.800000000000000E+00,      /* K = 12 */
(PID.TID 0000.0001)                 2.900000000000000E+00,      /* K = 13 */
(PID.TID 0000.0001)                 2.300000000000000E+00,      /* K = 14 */
(PID.TID 0000.0001)                 1.800000000000000E+00,      /* K = 15 */
(PID.TID 0000.0001)                 1.500000000000000E+00,      /* K = 16 */
(PID.TID 0000.0001)                 1.100000000000000E+00,      /* K = 17 */
(PID.TID 0000.0001)                 8.000000000000000E-01,      /* K = 18 */
(PID.TID 0000.0001)                 6.600000000000000E-01,      /* K = 19 */
(PID.TID 0000.0001)                 6.300000000000000E-01       /* K = 20 */
(PID.TID 0000.0001)     ;
(PID.TID 0000.0001) sRef =   /* Reference salinity profile ( ppt ) */
(PID.TID 0000.0001)                 3.465000000000000E+01,      /* K =  1 */
(PID.TID 0000.0001)                 3.475000000000000E+01,      /* K =  2 */
(PID.TID 0000.0001)                 3.482000000000000E+01,      /* K =  3 */
(PID.TID 0000.0001)                 3.487000000000000E+01,      /* K =  4 */
(PID.TID 0000.0001)     2 @  3.490000000000000E+01,             /* K =  5:  6 */
(PID.TID 0000.0001)                 3.486000000000000E+01,      /* K =  7 */
(PID.TID 0000.0001)                 3.478000000000000E+01,      /* K =  8 */
(PID.TID 0000.0001)                 3.469000000000000E+01,      /* K =  9 */
(PID.TID 0000.0001)                 3.460000000000000E+01,      /* K = 10 */
(PID.TID 0000.0001)                 3.458000000000000E+01,      /* K = 11 */
(PID.TID 0000.0001)                 3.462000000000000E+01,      /* K = 12 */
(PID.TID 0000.0001)                 3.468000000000000E+01,      /* K = 13 */
(PID.TID 0000.0001)                 3.472000000000000E+01,      /* K = 14 */
(PID.TID 0000.0001)                 3.473000000000000E+01,      /* K = 15 */
(PID.TID 0000.0001)                 3.474000000000000E+01,      /* K = 16 */
(PID.TID 0000.0001)     2 @  3.473000000000000E+01,             /* K = 17: 18 */
(PID.TID 0000.0001)     2 @  3.472000000000000E+01              /* K = 19: 20 */
(PID.TID 0000.0001)     ;
(PID.TID 0000.0001) viscAh =   /* Lateral eddy viscosity ( m^2/s ) */
(PID.TID 0000.0001)                 5.000000000000000E+05
(PID.TID 0000.0001)     ;
(PID.TID 0000.0001) viscAh =   /* Lateral biharmonic viscosity ( m^4/s ) */
(PID.TID 0000.0001)                 0.000000000000000E+00
(PID.TID 0000.0001)     ;
(PID.TID 0000.0001) no_slip_sides =  /* Viscous BCs: No-slip sides */
(PID.TID 0000.0001)                   F
(PID.TID 0000.0001)     ;
(PID.TID 0000.0001) viscAz =   /* Vertical eddy viscosity ( m^2/s ) */
(PID.TID 0000.0001)                 1.000000000000000E-03
(PID.TID 0000.0001)     ;
(PID.TID 0000.0001) viscAr =   /* Vertical eddy viscosity ( units of r^2/s ) */
(PID.TID 0000.0001)                 1.000000000000000E-03
(PID.TID 0000.0001)     ;
(PID.TID 0000.0001) diffKhT =   /* Laplacian diffusion of heat laterally ( m^2/s ) */
(PID.TID 0000.0001)                 1.000000000000000E+03
(PID.TID 0000.0001)     ;
(PID.TID 0000.0001) diffK4T =   /* Bihaarmonic diffusion of heat laterally ( m^4/s ) */
(PID.TID 0000.0001)                 0.000000000000000E+00
(PID.TID 0000.0001)     ;
(PID.TID 0000.0001) diffKzT =   /* Laplacian diffusion of heat vertically ( m^2/s ) */
(PID.TID 0000.0001)                 3.000000000000000E-05
(PID.TID 0000.0001)     ;
(PID.TID 0000.0001) diffKrT =   /* Laplacian diffusion of heat vertically ( m^2/s ) */
(PID.TID 0000.0001)                 3.000000000000000E-05
(PID.TID 0000.0001)     ;
(PID.TID 0000.0001) diffKhS =   /* Laplacian diffusion of salt laterally ( m^2/s ) */
(PID.TID 0000.0001)                 1.000000000000000E+03
(PID.TID 0000.0001)     ;
(PID.TID 0000.0001) diffK4S =   /* Bihaarmonic diffusion of salt laterally ( m^4/s ) */
(PID.TID 0000.0001)                 0.000000000000000E+00
(PID.TID 0000.0001)     ;
(PID.TID 0000.0001) diffKzS =   /* Laplacian diffusion of salt vertically ( m^2/s ) */
(PID.TID 0000.0001)                 3.000000000000000E-05
(PID.TID 0000.0001)     ;
(PID.TID 0000.0001) diffKrS =   /* Laplacian diffusion of salt vertically ( m^2/s ) */
(PID.TID 0000.0001)                 3.000000000000000E-05
(PID.TID 0000.0001)     ;
(PID.TID 0000.0001) tAlpha =   /* Linear EOS thermal expansion coefficient ( 1/degree ) */
(PID.TID 0000.0001)                 2.000000000000000E-04
(PID.TID 0000.0001)     ;
(PID.TID 0000.0001) sBeta =   /* Linear EOS haline contraction coefficient ( 1/ppt ) */
(PID.TID 0000.0001)                 7.400000000000000E-04
(PID.TID 0000.0001)     ;
(PID.TID 0000.0001) rhonil =   /* Reference density ( kg/m^3 ) */
(PID.TID 0000.0001)                 9.998000000000000E+02
(PID.TID 0000.0001)     ;
(PID.TID 0000.0001) rhoConst =   /* Reference density ( kg/m^3 ) */
(PID.TID 0000.0001)                 9.998000000000000E+02
(PID.TID 0000.0001)     ;
(PID.TID 0000.0001) gravity =   /* Gravitational acceleration ( m/s^2 ) */
(PID.TID 0000.0001)                 9.810000000000000E+00
(PID.TID 0000.0001)     ;
(PID.TID 0000.0001) gBaro =   /* Barotropic gravity ( m/s^2 ) */
(PID.TID 0000.0001)                 9.810000000000000E+00
(PID.TID 0000.0001)     ;
(PID.TID 0000.0001) f0 =   /* Reference coriolis parameter ( 1/s ) */
(PID.TID 0000.0001)                 1.000000000000000E-04
(PID.TID 0000.0001)     ;
(PID.TID 0000.0001) beta =   /* Beta ( 1/(m.s) ) */
(PID.TID 0000.0001)                 9.999999999999999E-12
(PID.TID 0000.0001)     ;
(PID.TID 0000.0001) freeSurfFac =   /* Implicit free surface factor */
(PID.TID 0000.0001)                 1.000000000000000E+00
(PID.TID 0000.0001)     ;
(PID.TID 0000.0001) implicitFreeSurface =   /* Implicit free surface on/off flag */
(PID.TID 0000.0001)                   T
(PID.TID 0000.0001)     ;
(PID.TID 0000.0001) rigidLid =   /* Rigid lid on/off flag */
(PID.TID 0000.0001)                   F
(PID.TID 0000.0001)     ;
(PID.TID 0000.0001) implicSurfPress =   /* Surface Pressure implicit factor (0-1)*/
(PID.TID 0000.0001)                 1.000000000000000E+00
(PID.TID 0000.0001)     ;
(PID.TID 0000.0001) implicDiv2Dflow =   /* Barot. Flow Div. implicit factor (0-1)*/
(PID.TID 0000.0001)                 1.000000000000000E+00
(PID.TID 0000.0001)     ;
(PID.TID 0000.0001) staggerTimeStep =   /* Stagger time stepping on/off flag */
(PID.TID 0000.0001)                   F
(PID.TID 0000.0001)     ;
(PID.TID 0000.0001) momStepping =  /* Momentum equation on/off flag */
(PID.TID 0000.0001)                   T
(PID.TID 0000.0001)     ;
(PID.TID 0000.0001) momAdvection =  /* Momentum advection on/off flag */
(PID.TID 0000.0001)                   T
(PID.TID 0000.0001)     ;
(PID.TID 0000.0001) momViscosity =  /* Momentum viscosity on/off flag */
(PID.TID 0000.0001)                   T
(PID.TID 0000.0001)     ;
(PID.TID 0000.0001) useCoriolis =  /* Coriolis on/off flag */
(PID.TID 0000.0001)                   T
(PID.TID 0000.0001)     ;
(PID.TID 0000.0001) momForcing =  /* Momentum forcing on/off flag */
(PID.TID 0000.0001)                   T
(PID.TID 0000.0001)     ;
(PID.TID 0000.0001) momPressureForcing =  /* Momentum pressure term on/off flag */
(PID.TID 0000.0001)                   T
(PID.TID 0000.0001)     ;
(PID.TID 0000.0001) tempStepping =  /* Temperature equation on/off flag */
(PID.TID 0000.0001)                   T
(PID.TID 0000.0001)     ;
(PID.TID 0000.0001) nonHydrostatic =  /* Non-Hydrostatic on/off flag */
(PID.TID 0000.0001)                   F
(PID.TID 0000.0001)     ;
(PID.TID 0000.0001) //
(PID.TID 0000.0001) // Elliptic solver(s) paramters ( PARM02 in namelist )
(PID.TID 0000.0001) //
(PID.TID 0000.0001) cg2dMaxIters =   /* Upper limit on 2d con. grad iterations  */
(PID.TID 0000.0001)                    1000
(PID.TID 0000.0001)     ;
(PID.TID 0000.0001) cg2dChkResFreq =   /* 2d con. grad convergence test frequency */
(PID.TID 0000.0001)                       1
(PID.TID 0000.0001)     ;
(PID.TID 0000.0001) cg2dTargetResidual =   /* 2d con. grad target residual  */
(PID.TID 0000.0001)                 1.000000000000000E-13
(PID.TID 0000.0001)     ;
(PID.TID 0000.0001) //
(PID.TID 0000.0001) // Time stepping paramters ( PARM03 in namelist )
(PID.TID 0000.0001) //
(PID.TID 0000.0001) nIter0 =   /* Base timestep number  */
(PID.TID 0000.0001)                       0
(PID.TID 0000.0001)     ;
(PID.TID 0000.0001) nTimeSteps =   /* Number of timesteps */
(PID.TID 0000.0001)                      26
(PID.TID 0000.0001)     ;
(PID.TID 0000.0001) deltatTmom =   /* Momentum equation timestep ( s ) */
(PID.TID 0000.0001)                 2.400000000000000E+03
(PID.TID 0000.0001)     ;
(PID.TID 0000.0001) deltatTtracer =   /* Tracer equation timestep ( s ) */
(PID.TID 0000.0001)                 1.080000000000000E+05
(PID.TID 0000.0001)     ;
(PID.TID 0000.0001) deltatTClock  =   /* Model clock timestep ( s ) */
(PID.TID 0000.0001)                 1.080000000000000E+05
(PID.TID 0000.0001)     ;
(PID.TID 0000.0001) cAdjFreq =   /* Convective adjustment interval ( s ) */
(PID.TID 0000.0001)                 1.080000000000000E+05
(PID.TID 0000.0001)     ;
(PID.TID 0000.0001) abeps =   /* Adams-Bashforth stabilizing weight */
(PID.TID 0000.0001)                 1.000000000000000E-01
(PID.TID 0000.0001)     ;
(PID.TID 0000.0001) tauCD =   /* CD coupling time-scale ( s ) */
(PID.TID 0000.0001)                 3.214280000000000E+05
(PID.TID 0000.0001)     ;
(PID.TID 0000.0001) rCD =   /* Normalised CD coupling parameter */
(PID.TID 0000.0001)                 9.925333200592357E-01
(PID.TID 0000.0001)     ;
(PID.TID 0000.0001) startTime =   /* Run start time ( s ). */
(PID.TID 0000.0001)                 0.000000000000000E+00
(PID.TID 0000.0001)     ;
(PID.TID 0000.0001) endTime =   /* Integration ending time ( s ). */
(PID.TID 0000.0001)                 2.808000000000000E+06
(PID.TID 0000.0001)     ;
(PID.TID 0000.0001) pChkPtFreq =   /* Permanent restart/checkpoint file interval ( s ). */
(PID.TID 0000.0001)                 0.000000000000000E+00
(PID.TID 0000.0001)     ;
(PID.TID 0000.0001) chkPtFreq =   /* Rolling restart/checkpoint file interval ( s ). */
(PID.TID 0000.0001)                 0.000000000000000E+00
(PID.TID 0000.0001)     ;
(PID.TID 0000.0001) dumpFreq =   /* Model state write out interval ( s ). */
(PID.TID 0000.0001)                 2.592000000000000E+06
(PID.TID 0000.0001)     ;
(PID.TID 0000.0001) //
(PID.TID 0000.0001) // Gridding paramters ( PARM04 in namelist )
(PID.TID 0000.0001) //
(PID.TID 0000.0001) usingCartesianGrid =   /* Cartesian coordinates flag ( True / False ) */
(PID.TID 0000.0001)                   F
(PID.TID 0000.0001)     ;
(PID.TID 0000.0001) usingSphericalPolarGrid =   /* Spherical coordinates flag ( True / False ) */
(PID.TID 0000.0001)                   T
(PID.TID 0000.0001)     ;
(PID.TID 0000.0001) groundAtK1 =   /* Lower Boundary (ground) at the surface(k=1) ( T / F ) */
(PID.TID 0000.0001)                   F
(PID.TID 0000.0001)     ;
(PID.TID 0000.0001) Ro_SeaLevel =   /* r(1) ( units of r ) */
(PID.TID 0000.0001)                 0.000000000000000E+00
(PID.TID 0000.0001)     ;
(PID.TID 0000.0001) rkFac =   /* minus Vertical index orientation  */
(PID.TID 0000.0001)                 1.000000000000000E+00
(PID.TID 0000.0001)     ;
(PID.TID 0000.0001) horiVertRatio =   /* Ratio on units : Horiz - Vertical */
(PID.TID 0000.0001)                 1.000000000000000E+00
(PID.TID 0000.0001)     ;
(PID.TID 0000.0001) delZ =   /* W spacing ( m ) */
(PID.TID 0000.0001)     2 @  5.000000000000000E+01,             /* K =  1:  2 */
(PID.TID 0000.0001)                 5.500000000000000E+01,      /* K =  3 */
(PID.TID 0000.0001)                 6.000000000000000E+01,      /* K =  4 */
(PID.TID 0000.0001)                 6.500000000000000E+01,      /* K =  5 */
(PID.TID 0000.0001)                 7.000000000000000E+01,      /* K =  6 */
(PID.TID 0000.0001)                 8.000000000000000E+01,      /* K =  7 */
(PID.TID 0000.0001)                 9.500000000000000E+01,      /* K =  8 */
(PID.TID 0000.0001)                 1.200000000000000E+02,      /* K =  9 */
(PID.TID 0000.0001)                 1.550000000000000E+02,      /* K = 10 */
(PID.TID 0000.0001)                 2.000000000000000E+02,      /* K = 11 */
(PID.TID 0000.0001)                 2.600000000000000E+02,      /* K = 12 */
(PID.TID 0000.0001)                 3.200000000000000E+02,      /* K = 13 */
(PID.TID 0000.0001)                 4.000000000000000E+02,      /* K = 14 */
(PID.TID 0000.0001)                 4.800000000000000E+02,      /* K = 15 */
(PID.TID 0000.0001)                 5.700000000000000E+02,      /* K = 16 */
(PID.TID 0000.0001)                 6.550000000000000E+02,      /* K = 17 */
(PID.TID 0000.0001)                 7.250000000000000E+02,      /* K = 18 */
(PID.TID 0000.0001)                 7.750000000000000E+02,      /* K = 19 */
(PID.TID 0000.0001)                 8.150000000000000E+02       /* K = 20 */
(PID.TID 0000.0001)     ;
(PID.TID 0000.0001) delP =   /* W spacing ( Pa ) */
(PID.TID 0000.0001)    20 @  1.234567000000000E+05              /* K =  1: 20 */
(PID.TID 0000.0001)     ;
(PID.TID 0000.0001) delR =   /* W spacing ( units of r ) */
(PID.TID 0000.0001)     2 @  5.000000000000000E+01,             /* K =  1:  2 */
(PID.TID 0000.0001)                 5.500000000000000E+01,      /* K =  3 */
(PID.TID 0000.0001)                 6.000000000000000E+01,      /* K =  4 */
(PID.TID 0000.0001)                 6.500000000000000E+01,      /* K =  5 */
(PID.TID 0000.0001)                 7.000000000000000E+01,      /* K =  6 */
(PID.TID 0000.0001)                 8.000000000000000E+01,      /* K =  7 */
(PID.TID 0000.0001)                 9.500000000000000E+01,      /* K =  8 */
(PID.TID 0000.0001)                 1.200000000000000E+02,      /* K =  9 */
(PID.TID 0000.0001)                 1.550000000000000E+02,      /* K = 10 */
(PID.TID 0000.0001)                 2.000000000000000E+02,      /* K = 11 */
(PID.TID 0000.0001)                 2.600000000000000E+02,      /* K = 12 */
(PID.TID 0000.0001)                 3.200000000000000E+02,      /* K = 13 */
(PID.TID 0000.0001)                 4.000000000000000E+02,      /* K = 14 */
(PID.TID 0000.0001)                 4.800000000000000E+02,      /* K = 15 */
(PID.TID 0000.0001)                 5.700000000000000E+02,      /* K = 16 */
(PID.TID 0000.0001)                 6.550000000000000E+02,      /* K = 17 */
(PID.TID 0000.0001)                 7.250000000000000E+02,      /* K = 18 */
(PID.TID 0000.0001)                 7.750000000000000E+02,      /* K = 19 */
(PID.TID 0000.0001)                 8.150000000000000E+02       /* K = 20 */
(PID.TID 0000.0001)     ;
(PID.TID 0000.0001) delX =   /* U spacing ( m - cartesian, degrees - spherical ) */
(PID.TID 0000.0001)    90 @  4.000000000000000E+00              /* I =  1: 90 */
(PID.TID 0000.0001)     ;
(PID.TID 0000.0001) delY =   /* V spacing ( m - cartesian, degrees - spherical ) */
(PID.TID 0000.0001)    40 @  4.000000000000000E+00              /* J =  1: 40 */
(PID.TID 0000.0001)     ;
(PID.TID 0000.0001) phiMin =    /* South edge (ignored - cartesian, degrees - spherical ) */
(PID.TID 0000.0001)                -8.000000000000000E+01
(PID.TID 0000.0001)     ;
(PID.TID 0000.0001) thetaMin =    /* West edge ( ignored - cartesian, degrees - spherical ) */
(PID.TID 0000.0001)                 0.000000000000000E+00
(PID.TID 0000.0001)     ;
(PID.TID 0000.0001) rSphere =    /* Radius ( ignored - cartesian, m - spherical ) */
(PID.TID 0000.0001)                 6.370000000000000E+06
(PID.TID 0000.0001)     ;
(PID.TID 0000.0001) xcoord =   /* P-point X coord ( m - cartesian, degrees - spherical ) */
(PID.TID 0000.0001)                 2.000000000000000E+00,      /* I =  1 */
(PID.TID 0000.0001)                 6.000000000000000E+00,      /* I =  2 */
(PID.TID 0000.0001)                 1.000000000000000E+01,      /* I =  3 */
(PID.TID 0000.0001)                 1.400000000000000E+01,      /* I =  4 */
(PID.TID 0000.0001)                 1.800000000000000E+01,      /* I =  5 */
(PID.TID 0000.0001)                 2.200000000000000E+01,      /* I =  6 */
(PID.TID 0000.0001)                 2.600000000000000E+01,      /* I =  7 */
(PID.TID 0000.0001)                 3.000000000000000E+01,      /* I =  8 */
(PID.TID 0000.0001)                 3.400000000000000E+01,      /* I =  9 */
(PID.TID 0000.0001)                 3.800000000000000E+01,      /* I = 10 */
(PID.TID 0000.0001)                 4.200000000000000E+01,      /* I = 11 */
(PID.TID 0000.0001)                 4.600000000000000E+01,      /* I = 12 */
(PID.TID 0000.0001)                 5.000000000000000E+01,      /* I = 13 */
(PID.TID 0000.0001)                 5.400000000000000E+01,      /* I = 14 */
(PID.TID 0000.0001)                 5.800000000000000E+01,      /* I = 15 */
(PID.TID 0000.0001)                 6.200000000000000E+01,      /* I = 16 */
(PID.TID 0000.0001)                 6.600000000000000E+01,      /* I = 17 */
(PID.TID 0000.0001)                 7.000000000000000E+01,      /* I = 18 */
(PID.TID 0000.0001)                 7.400000000000000E+01,      /* I = 19 */
(PID.TID 0000.0001)                 7.800000000000000E+01,      /* I = 20 */
(PID.TID 0000.0001)                 8.200000000000000E+01,      /* I = 21 */
(PID.TID 0000.0001)                 8.600000000000000E+01,      /* I = 22 */
(PID.TID 0000.0001)                 9.000000000000000E+01,      /* I = 23 */
(PID.TID 0000.0001)                 9.400000000000000E+01,      /* I = 24 */
(PID.TID 0000.0001)                 9.800000000000000E+01,      /* I = 25 */
(PID.TID 0000.0001)                 1.020000000000000E+02,      /* I = 26 */
(PID.TID 0000.0001)                 1.060000000000000E+02,      /* I = 27 */
(PID.TID 0000.0001)                 1.100000000000000E+02,      /* I = 28 */
(PID.TID 0000.0001)                 1.140000000000000E+02,      /* I = 29 */
(PID.TID 0000.0001)                 1.180000000000000E+02,      /* I = 30 */
(PID.TID 0000.0001)                 1.220000000000000E+02,      /* I = 31 */
(PID.TID 0000.0001)                 1.260000000000000E+02,      /* I = 32 */
(PID.TID 0000.0001)                 1.300000000000000E+02,      /* I = 33 */
(PID.TID 0000.0001)                 1.340000000000000E+02,      /* I = 34 */
(PID.TID 0000.0001)                 1.380000000000000E+02,      /* I = 35 */
(PID.TID 0000.0001)                 1.420000000000000E+02,      /* I = 36 */
(PID.TID 0000.0001)                 1.460000000000000E+02,      /* I = 37 */
(PID.TID 0000.0001)                 1.500000000000000E+02,      /* I = 38 */
(PID.TID 0000.0001)                 1.540000000000000E+02,      /* I = 39 */
(PID.TID 0000.0001)                 1.580000000000000E+02,      /* I = 40 */
(PID.TID 0000.0001)                 1.620000000000000E+02,      /* I = 41 */
(PID.TID 0000.0001)                 1.660000000000000E+02,      /* I = 42 */
(PID.TID 0000.0001)                 1.700000000000000E+02,      /* I = 43 */
(PID.TID 0000.0001)                 1.740000000000000E+02,      /* I = 44 */
(PID.TID 0000.0001)                 1.780000000000000E+02,      /* I = 45 */
(PID.TID 0000.0001)                 1.820000000000000E+02,      /* I = 46 */
(PID.TID 0000.0001)                 1.860000000000000E+02,      /* I = 47 */
(PID.TID 0000.0001)                 1.900000000000000E+02,      /* I = 48 */
(PID.TID 0000.0001)                 1.940000000000000E+02,      /* I = 49 */
(PID.TID 0000.0001)                 1.980000000000000E+02,      /* I = 50 */
(PID.TID 0000.0001)                 2.020000000000000E+02,      /* I = 51 */
(PID.TID 0000.0001)                 2.060000000000000E+02,      /* I = 52 */
(PID.TID 0000.0001)                 2.100000000000000E+02,      /* I = 53 */
(PID.TID 0000.0001)                 2.140000000000000E+02,      /* I = 54 */
(PID.TID 0000.0001)                 2.180000000000000E+02,      /* I = 55 */
(PID.TID 0000.0001)                 2.220000000000000E+02,      /* I = 56 */
(PID.TID 0000.0001)                 2.260000000000000E+02,      /* I = 57 */
(PID.TID 0000.0001)                 2.300000000000000E+02,      /* I = 58 */
(PID.TID 0000.0001)                 2.340000000000000E+02,      /* I = 59 */
(PID.TID 0000.0001)                 2.380000000000000E+02,      /* I = 60 */
(PID.TID 0000.0001)                 2.420000000000000E+02,      /* I = 61 */
(PID.TID 0000.0001)                 2.460000000000000E+02,      /* I = 62 */
(PID.TID 0000.0001)                 2.500000000000000E+02,      /* I = 63 */
(PID.TID 0000.0001)                 2.540000000000000E+02,      /* I = 64 */
(PID.TID 0000.0001)                 2.580000000000000E+02,      /* I = 65 */
(PID.TID 0000.0001)                 2.620000000000000E+02,      /* I = 66 */
(PID.TID 0000.0001)                 2.660000000000000E+02,      /* I = 67 */
(PID.TID 0000.0001)                 2.700000000000000E+02,      /* I = 68 */
(PID.TID 0000.0001)                 2.740000000000000E+02,      /* I = 69 */
(PID.TID 0000.0001)                 2.780000000000000E+02,      /* I = 70 */
(PID.TID 0000.0001)                 2.820000000000000E+02,      /* I = 71 */
(PID.TID 0000.0001)                 2.860000000000000E+02,      /* I = 72 */
(PID.TID 0000.0001)                 2.900000000000000E+02,      /* I = 73 */
(PID.TID 0000.0001)                 2.940000000000000E+02,      /* I = 74 */
(PID.TID 0000.0001)                 2.980000000000000E+02,      /* I = 75 */
(PID.TID 0000.0001)                 3.020000000000000E+02,      /* I = 76 */
(PID.TID 0000.0001)                 3.060000000000000E+02,      /* I = 77 */
(PID.TID 0000.0001)                 3.100000000000000E+02,      /* I = 78 */
(PID.TID 0000.0001)                 3.140000000000000E+02,      /* I = 79 */
(PID.TID 0000.0001)                 3.180000000000000E+02,      /* I = 80 */
(PID.TID 0000.0001)                 3.220000000000000E+02,      /* I = 81 */
(PID.TID 0000.0001)                 3.260000000000000E+02,      /* I = 82 */
(PID.TID 0000.0001)                 3.300000000000000E+02,      /* I = 83 */
(PID.TID 0000.0001)                 3.340000000000000E+02,      /* I = 84 */
(PID.TID 0000.0001)                 3.380000000000000E+02,      /* I = 85 */
(PID.TID 0000.0001)                 3.420000000000000E+02,      /* I = 86 */
(PID.TID 0000.0001)                 3.460000000000000E+02,      /* I = 87 */
(PID.TID 0000.0001)                 3.500000000000000E+02,      /* I = 88 */
(PID.TID 0000.0001)                 3.540000000000000E+02,      /* I = 89 */
(PID.TID 0000.0001)                 3.580000000000000E+02       /* I = 90 */
(PID.TID 0000.0001)     ;
(PID.TID 0000.0001) ycoord =   /* P-point Y coord ( m - cartesian, degrees - spherical ) */
(PID.TID 0000.0001)                -7.800000000000000E+01,      /* J =  1 */
(PID.TID 0000.0001)                -7.400000000000000E+01,      /* J =  2 */
(PID.TID 0000.0001)                -7.000000000000000E+01,      /* J =  3 */
(PID.TID 0000.0001)                -6.600000000000000E+01,      /* J =  4 */
(PID.TID 0000.0001)                -6.200000000000000E+01,      /* J =  5 */
(PID.TID 0000.0001)                -5.800000000000000E+01,      /* J =  6 */
(PID.TID 0000.0001)                -5.400000000000000E+01,      /* J =  7 */
(PID.TID 0000.0001)                -5.000000000000000E+01,      /* J =  8 */
(PID.TID 0000.0001)                -4.600000000000000E+01,      /* J =  9 */
(PID.TID 0000.0001)                -4.200000000000000E+01,      /* J = 10 */
(PID.TID 0000.0001)                -3.800000000000000E+01,      /* J = 11 */
(PID.TID 0000.0001)                -3.400000000000000E+01,      /* J = 12 */
(PID.TID 0000.0001)                -3.000000000000000E+01,      /* J = 13 */
(PID.TID 0000.0001)                -2.600000000000000E+01,      /* J = 14 */
(PID.TID 0000.0001)                -2.200000000000000E+01,      /* J = 15 */
(PID.TID 0000.0001)                -1.800000000000000E+01,      /* J = 16 */
(PID.TID 0000.0001)                -1.400000000000000E+01,      /* J = 17 */
(PID.TID 0000.0001)                -1.000000000000000E+01,      /* J = 18 */
(PID.TID 0000.0001)                -6.000000000000000E+00,      /* J = 19 */
(PID.TID 0000.0001)                -2.000000000000000E+00,      /* J = 20 */
(PID.TID 0000.0001)                 2.000000000000000E+00,      /* J = 21 */
(PID.TID 0000.0001)                 6.000000000000000E+00,      /* J = 22 */
(PID.TID 0000.0001)                 1.000000000000000E+01,      /* J = 23 */
(PID.TID 0000.0001)                 1.400000000000000E+01,      /* J = 24 */
(PID.TID 0000.0001)                 1.800000000000000E+01,      /* J = 25 */
(PID.TID 0000.0001)                 2.200000000000000E+01,      /* J = 26 */
(PID.TID 0000.0001)                 2.600000000000000E+01,      /* J = 27 */
(PID.TID 0000.0001)                 3.000000000000000E+01,      /* J = 28 */
(PID.TID 0000.0001)                 3.400000000000000E+01,      /* J = 29 */
(PID.TID 0000.0001)                 3.800000000000000E+01,      /* J = 30 */
(PID.TID 0000.0001)                 4.200000000000000E+01,      /* J = 31 */
(PID.TID 0000.0001)                 4.600000000000000E+01,      /* J = 32 */
(PID.TID 0000.0001)                 5.000000000000000E+01,      /* J = 33 */
(PID.TID 0000.0001)                 5.400000000000000E+01,      /* J = 34 */
(PID.TID 0000.0001)                 5.800000000000000E+01,      /* J = 35 */
(PID.TID 0000.0001)                 6.200000000000000E+01,      /* J = 36 */
(PID.TID 0000.0001)                 6.600000000000000E+01,      /* J = 37 */
(PID.TID 0000.0001)                 7.000000000000000E+01,      /* J = 38 */
(PID.TID 0000.0001)                 7.400000000000000E+01,      /* J = 39 */
(PID.TID 0000.0001)                 7.800000000000000E+01       /* J = 40 */
(PID.TID 0000.0001)     ;
(PID.TID 0000.0001) rcoord =   /* P-point R coordinate (  units of r ) */
(PID.TID 0000.0001)                -2.500000000000000E+01,      /* K =  1 */
(PID.TID 0000.0001)                -7.500000000000000E+01,      /* K =  2 */
(PID.TID 0000.0001)                -1.275000000000000E+02,      /* K =  3 */
(PID.TID 0000.0001)                -1.850000000000000E+02,      /* K =  4 */
(PID.TID 0000.0001)                -2.475000000000000E+02,      /* K =  5 */
(PID.TID 0000.0001)                -3.150000000000000E+02,      /* K =  6 */
(PID.TID 0000.0001)                -3.900000000000000E+02,      /* K =  7 */
(PID.TID 0000.0001)                -4.775000000000000E+02,      /* K =  8 */
(PID.TID 0000.0001)                -5.850000000000000E+02,      /* K =  9 */
(PID.TID 0000.0001)                -7.225000000000000E+02,      /* K = 10 */
(PID.TID 0000.0001)                -9.000000000000000E+02,      /* K = 11 */
(PID.TID 0000.0001)                -1.130000000000000E+03,      /* K = 12 */
(PID.TID 0000.0001)                -1.420000000000000E+03,      /* K = 13 */
(PID.TID 0000.0001)                -1.780000000000000E+03,      /* K = 14 */
(PID.TID 0000.0001)                -2.220000000000000E+03,      /* K = 15 */
(PID.TID 0000.0001)                -2.745000000000000E+03,      /* K = 16 */
(PID.TID 0000.0001)                -3.357500000000000E+03,      /* K = 17 */
(PID.TID 0000.0001)                -4.047500000000000E+03,      /* K = 18 */
(PID.TID 0000.0001)                -4.797500000000000E+03,      /* K = 19 */
(PID.TID 0000.0001)                -5.592500000000000E+03       /* K = 20 */
(PID.TID 0000.0001)     ;
(PID.TID 0000.0001) dxF =  /* dxF(:,1,:,1) ( m - cartesian, degrees - spherical ) */
(PID.TID 0000.0001)    90 @  9.246038586187513E+04              /* I =  1: 90 */
(PID.TID 0000.0001)     ;
(PID.TID 0000.0001) dxF =  /* dxF(1,:,1,:) ( m - cartesian, degrees - spherical ) */
(PID.TID 0000.0001)                 9.246038586187513E+04,      /* J =  1 */
(PID.TID 0000.0001)                 1.225786591246834E+05,      /* J =  2 */
(PID.TID 0000.0001)                 1.520997414818001E+05,      /* J =  3 */
(PID.TID 0000.0001)                 1.808798091874300E+05,      /* J =  4 */
(PID.TID 0000.0001)                 2.087786486446736E+05,      /* J =  5 */
(PID.TID 0000.0001)                 2.356603395120766E+05,      /* J =  6 */
(PID.TID 0000.0001)                 2.613939168938713E+05,      /* J =  7 */
(PID.TID 0000.0001)                 2.858540093877838E+05,      /* J =  8 */
(PID.TID 0000.0001)                 3.089214498819035E+05,      /* J =  9 */
(PID.TID 0000.0001)                 3.304838561248741E+05,      /* J = 10 */
(PID.TID 0000.0001)                 3.504361782409254E+05,      /* J = 11 */
(PID.TID 0000.0001)                 3.686812105223083E+05,      /* J = 12 */
(PID.TID 0000.0001)                 3.851300650057322E+05,      /* J = 13 */
(PID.TID 0000.0001)                 3.997026045255871E+05,      /* J = 14 */
(PID.TID 0000.0001)                 4.123278331341585E+05,      /* J = 15 */
(PID.TID 0000.0001)                 4.229442419867491E+05,      /* J = 16 */
(PID.TID 0000.0001)                 4.315001090065869E+05,      /* J = 17 */
(PID.TID 0000.0001)                 4.379537508695839E+05,      /* J = 18 */
(PID.TID 0000.0001)                 4.422737260813013E+05,      /* J = 19 */
(PID.TID 0000.0001)     2 @  4.444389881567501E+05,             /* J = 20: 21 */
(PID.TID 0000.0001)                 4.422737260813013E+05,      /* J = 22 */
(PID.TID 0000.0001)                 4.379537508695839E+05,      /* J = 23 */
(PID.TID 0000.0001)                 4.315001090065869E+05,      /* J = 24 */
(PID.TID 0000.0001)                 4.229442419867491E+05,      /* J = 25 */
(PID.TID 0000.0001)                 4.123278331341585E+05,      /* J = 26 */
(PID.TID 0000.0001)                 3.997026045255871E+05,      /* J = 27 */
(PID.TID 0000.0001)                 3.851300650057322E+05,      /* J = 28 */
(PID.TID 0000.0001)                 3.686812105223083E+05,      /* J = 29 */
(PID.TID 0000.0001)                 3.504361782409254E+05,      /* J = 30 */
(PID.TID 0000.0001)                 3.304838561248741E+05,      /* J = 31 */
(PID.TID 0000.0001)                 3.089214498819035E+05,      /* J = 32 */
(PID.TID 0000.0001)                 2.858540093877838E+05,      /* J = 33 */
(PID.TID 0000.0001)                 2.613939168938713E+05,      /* J = 34 */
(PID.TID 0000.0001)                 2.356603395120766E+05,      /* J = 35 */
(PID.TID 0000.0001)                 2.087786486446736E+05,      /* J = 36 */
(PID.TID 0000.0001)                 1.808798091874300E+05,      /* J = 37 */
(PID.TID 0000.0001)                 1.520997414818001E+05,      /* J = 38 */
(PID.TID 0000.0001)                 1.225786591246834E+05,      /* J = 39 */
(PID.TID 0000.0001)                 9.246038586187513E+04       /* J = 40 */
(PID.TID 0000.0001)     ;
(PID.TID 0000.0001) dyF =  /* dyF(:,1,:,1) ( m - cartesian, degrees - spherical ) */
(PID.TID 0000.0001)    90 @  4.447098934081552E+05              /* I =  1: 90 */
(PID.TID 0000.0001)     ;
(PID.TID 0000.0001) dyF =  /* dyF(1,:,1,:) ( m - cartesian, degrees - spherical ) */
(PID.TID 0000.0001)    40 @  4.447098934081552E+05              /* J =  1: 40 */
(PID.TID 0000.0001)     ;
(PID.TID 0000.0001) dxG =  /* dxG(:,1,:,1) ( m - cartesian, degrees - spherical ) */
(PID.TID 0000.0001)    90 @  7.722306258078101E+04              /* I =  1: 90 */
(PID.TID 0000.0001)     ;
(PID.TID 0000.0001) dxG =  /* dxG(1,:,1,:) ( m - cartesian, degrees - spherical ) */
(PID.TID 0000.0001)                 7.722306258078101E+04,      /* J =  1 */
(PID.TID 0000.0001)                 1.075850604052271E+05,      /* J =  2 */
(PID.TID 0000.0001)                 1.374229146297914E+05,      /* J =  3 */
(PID.TID 0000.0001)                 1.665912582279823E+05,      /* J =  4 */
(PID.TID 0000.0001)                 1.949479859617814E+05,      /* J =  5 */
(PID.TID 0000.0001)                 2.223549467040776E+05,      /* J =  6 */
(PID.TID 0000.0001)                 2.486786164970726E+05,      /* J =  7 */
(PID.TID 0000.0001)                 2.737907490675810E+05,      /* J =  8 */
(PID.TID 0000.0001)                 2.975690006299820E+05,      /* J =  9 */
(PID.TID 0000.0001)                 3.198975259328452E+05,      /* J = 10 */
(PID.TID 0000.0001)                 3.406675426453503E+05,      /* J = 11 */
(PID.TID 0000.0001)                 3.597778613338689E+05,      /* J = 12 */
(PID.TID 0000.0001)                 3.771353784467131E+05,      /* J = 13 */
(PID.TID 0000.0001)                 3.926555299052806E+05,      /* J = 14 */
(PID.TID 0000.0001)                 4.062627030917454E+05,      /* J = 15 */
(PID.TID 0000.0001)                 4.178906052261313E+05,      /* J = 16 */
(PID.TID 0000.0001)                 4.274825863380723E+05,      /* J = 17 */
(PID.TID 0000.0001)                 4.349919152597734E+05,      /* J = 18 */
(PID.TID 0000.0001)                 4.403820072955634E+05,      /* J = 19 */
(PID.TID 0000.0001)                 4.436266024588540E+05,      /* J = 20 */
(PID.TID 0000.0001)                 4.447098934081552E+05,      /* J = 21 */
(PID.TID 0000.0001)                 4.436266024588540E+05,      /* J = 22 */
(PID.TID 0000.0001)                 4.403820072955634E+05,      /* J = 23 */
(PID.TID 0000.0001)                 4.349919152597734E+05,      /* J = 24 */
(PID.TID 0000.0001)                 4.274825863380723E+05,      /* J = 25 */
(PID.TID 0000.0001)                 4.178906052261313E+05,      /* J = 26 */
(PID.TID 0000.0001)                 4.062627030917454E+05,      /* J = 27 */
(PID.TID 0000.0001)                 3.926555299052806E+05,      /* J = 28 */
(PID.TID 0000.0001)                 3.771353784467131E+05,      /* J = 29 */
(PID.TID 0000.0001)                 3.597778613338689E+05,      /* J = 30 */
(PID.TID 0000.0001)                 3.406675426453503E+05,      /* J = 31 */
(PID.TID 0000.0001)                 3.198975259328452E+05,      /* J = 32 */
(PID.TID 0000.0001)                 2.975690006299820E+05,      /* J = 33 */
(PID.TID 0000.0001)                 2.737907490675810E+05,      /* J = 34 */
(PID.TID 0000.0001)                 2.486786164970726E+05,      /* J = 35 */
(PID.TID 0000.0001)                 2.223549467040776E+05,      /* J = 36 */
(PID.TID 0000.0001)                 1.949479859617814E+05,      /* J = 37 */
(PID.TID 0000.0001)                 1.665912582279823E+05,      /* J = 38 */
(PID.TID 0000.0001)                 1.374229146297914E+05,      /* J = 39 */
(PID.TID 0000.0001)                 1.075850604052271E+05       /* J = 40 */
(PID.TID 0000.0001)     ;
(PID.TID 0000.0001) dyG =  /* dyG(:,1,:,1) ( m - cartesian, degrees - spherical ) */
(PID.TID 0000.0001)    90 @  4.447098934081552E+05              /* I =  1: 90 */
(PID.TID 0000.0001)     ;
(PID.TID 0000.0001) dyG =  /* dyG(1,:,1,:) ( m - cartesian, degrees - spherical ) */
(PID.TID 0000.0001)    40 @  4.447098934081552E+05              /* J =  1: 40 */
(PID.TID 0000.0001)     ;
(PID.TID 0000.0001) dxC =  /* dxC(:,1,:,1) ( m - cartesian, degrees - spherical ) */
(PID.TID 0000.0001)    90 @  9.246038586187513E+04              /* I =  1: 90 */
(PID.TID 0000.0001)     ;
(PID.TID 0000.0001) dxC =  /* dxC(1,:,1,:) ( m - cartesian, degrees - spherical ) */
(PID.TID 0000.0001)                 9.246038586187513E+04,      /* J =  1 */
(PID.TID 0000.0001)                 1.225786591246834E+05,      /* J =  2 */
(PID.TID 0000.0001)                 1.520997414818001E+05,      /* J =  3 */
(PID.TID 0000.0001)                 1.808798091874300E+05,      /* J =  4 */
(PID.TID 0000.0001)                 2.087786486446736E+05,      /* J =  5 */
(PID.TID 0000.0001)                 2.356603395120766E+05,      /* J =  6 */
(PID.TID 0000.0001)                 2.613939168938713E+05,      /* J =  7 */
(PID.TID 0000.0001)                 2.858540093877838E+05,      /* J =  8 */
(PID.TID 0000.0001)                 3.089214498819035E+05,      /* J =  9 */
(PID.TID 0000.0001)                 3.304838561248741E+05,      /* J = 10 */
(PID.TID 0000.0001)                 3.504361782409254E+05,      /* J = 11 */
(PID.TID 0000.0001)                 3.686812105223083E+05,      /* J = 12 */
(PID.TID 0000.0001)                 3.851300650057322E+05,      /* J = 13 */
(PID.TID 0000.0001)                 3.997026045255871E+05,      /* J = 14 */
(PID.TID 0000.0001)                 4.123278331341585E+05,      /* J = 15 */
(PID.TID 0000.0001)                 4.229442419867491E+05,      /* J = 16 */
(PID.TID 0000.0001)                 4.315001090065869E+05,      /* J = 17 */
(PID.TID 0000.0001)                 4.379537508695839E+05,      /* J = 18 */
(PID.TID 0000.0001)                 4.422737260813013E+05,      /* J = 19 */
(PID.TID 0000.0001)     2 @  4.444389881567501E+05,             /* J = 20: 21 */
(PID.TID 0000.0001)                 4.422737260813013E+05,      /* J = 22 */
(PID.TID 0000.0001)                 4.379537508695839E+05,      /* J = 23 */
(PID.TID 0000.0001)                 4.315001090065869E+05,      /* J = 24 */
(PID.TID 0000.0001)                 4.229442419867491E+05,      /* J = 25 */
(PID.TID 0000.0001)                 4.123278331341585E+05,      /* J = 26 */
(PID.TID 0000.0001)                 3.997026045255871E+05,      /* J = 27 */
(PID.TID 0000.0001)                 3.851300650057322E+05,      /* J = 28 */
(PID.TID 0000.0001)                 3.686812105223083E+05,      /* J = 29 */
(PID.TID 0000.0001)                 3.504361782409254E+05,      /* J = 30 */
(PID.TID 0000.0001)                 3.304838561248741E+05,      /* J = 31 */
(PID.TID 0000.0001)                 3.089214498819035E+05,      /* J = 32 */
(PID.TID 0000.0001)                 2.858540093877838E+05,      /* J = 33 */
(PID.TID 0000.0001)                 2.613939168938713E+05,      /* J = 34 */
(PID.TID 0000.0001)                 2.356603395120766E+05,      /* J = 35 */
(PID.TID 0000.0001)                 2.087786486446736E+05,      /* J = 36 */
(PID.TID 0000.0001)                 1.808798091874300E+05,      /* J = 37 */
(PID.TID 0000.0001)                 1.520997414818001E+05,      /* J = 38 */
(PID.TID 0000.0001)                 1.225786591246834E+05,      /* J = 39 */
(PID.TID 0000.0001)                 9.246038586187513E+04       /* J = 40 */
(PID.TID 0000.0001)     ;
(PID.TID 0000.0001) dyC =  /* dyC(:,1,:,1) ( m - cartesian, degrees - spherical ) */
(PID.TID 0000.0001)    90 @  4.447098934081552E+05              /* I =  1: 90 */
(PID.TID 0000.0001)     ;
(PID.TID 0000.0001) dyC =  /* dyC(1,:,1,:) ( m - cartesian, degrees - spherical ) */
(PID.TID 0000.0001)    40 @  4.447098934081552E+05              /* J =  1: 40 */
(PID.TID 0000.0001)     ;
(PID.TID 0000.0001) dxV =  /* dxV(:,1,:,1) ( m - cartesian, degrees - spherical ) */
(PID.TID 0000.0001)    90 @  7.722306258078101E+04              /* I =  1: 90 */
(PID.TID 0000.0001)     ;
(PID.TID 0000.0001) dxV =  /* dxV(1,:,1,:) ( m - cartesian, degrees - spherical ) */
(PID.TID 0000.0001)                 7.722306258078101E+04,      /* J =  1 */
(PID.TID 0000.0001)                 1.075850604052271E+05,      /* J =  2 */
(PID.TID 0000.0001)                 1.374229146297914E+05,      /* J =  3 */
(PID.TID 0000.0001)                 1.665912582279823E+05,      /* J =  4 */
(PID.TID 0000.0001)                 1.949479859617814E+05,      /* J =  5 */
(PID.TID 0000.0001)                 2.223549467040776E+05,      /* J =  6 */
(PID.TID 0000.0001)                 2.486786164970726E+05,      /* J =  7 */
(PID.TID 0000.0001)                 2.737907490675810E+05,      /* J =  8 */
(PID.TID 0000.0001)                 2.975690006299820E+05,      /* J =  9 */
(PID.TID 0000.0001)                 3.198975259328452E+05,      /* J = 10 */
(PID.TID 0000.0001)                 3.406675426453503E+05,      /* J = 11 */
(PID.TID 0000.0001)                 3.597778613338689E+05,      /* J = 12 */
(PID.TID 0000.0001)                 3.771353784467131E+05,      /* J = 13 */
(PID.TID 0000.0001)                 3.926555299052806E+05,      /* J = 14 */
(PID.TID 0000.0001)                 4.062627030917454E+05,      /* J = 15 */
(PID.TID 0000.0001)                 4.178906052261313E+05,      /* J = 16 */
(PID.TID 0000.0001)                 4.274825863380723E+05,      /* J = 17 */
(PID.TID 0000.0001)                 4.349919152597734E+05,      /* J = 18 */
(PID.TID 0000.0001)                 4.403820072955634E+05,      /* J = 19 */
(PID.TID 0000.0001)                 4.436266024588540E+05,      /* J = 20 */
(PID.TID 0000.0001)                 4.447098934081552E+05,      /* J = 21 */
(PID.TID 0000.0001)                 4.436266024588540E+05,      /* J = 22 */
(PID.TID 0000.0001)                 4.403820072955634E+05,      /* J = 23 */
(PID.TID 0000.0001)                 4.349919152597734E+05,      /* J = 24 */
(PID.TID 0000.0001)                 4.274825863380723E+05,      /* J = 25 */
(PID.TID 0000.0001)                 4.178906052261313E+05,      /* J = 26 */
(PID.TID 0000.0001)                 4.062627030917454E+05,      /* J = 27 */
(PID.TID 0000.0001)                 3.926555299052806E+05,      /* J = 28 */
(PID.TID 0000.0001)                 3.771353784467131E+05,      /* J = 29 */
(PID.TID 0000.0001)                 3.597778613338689E+05,      /* J = 30 */
(PID.TID 0000.0001)                 3.406675426453503E+05,      /* J = 31 */
(PID.TID 0000.0001)                 3.198975259328452E+05,      /* J = 32 */
(PID.TID 0000.0001)                 2.975690006299820E+05,      /* J = 33 */
(PID.TID 0000.0001)                 2.737907490675810E+05,      /* J = 34 */
(PID.TID 0000.0001)                 2.486786164970726E+05,      /* J = 35 */
(PID.TID 0000.0001)                 2.223549467040776E+05,      /* J = 36 */
(PID.TID 0000.0001)                 1.949479859617814E+05,      /* J = 37 */
(PID.TID 0000.0001)                 1.665912582279823E+05,      /* J = 38 */
(PID.TID 0000.0001)                 1.374229146297914E+05,      /* J = 39 */
(PID.TID 0000.0001)                 1.075850604052271E+05       /* J = 40 */
(PID.TID 0000.0001)     ;
(PID.TID 0000.0001) dyU =  /* dyU(:,1,:,1) ( m - cartesian, degrees - spherical ) */
(PID.TID 0000.0001)    90 @  4.447098934081552E+05              /* I =  1: 90 */
(PID.TID 0000.0001)     ;
(PID.TID 0000.0001) dyU =  /* dyU(1,:,1,:) ( m - cartesian, degrees - spherical ) */
(PID.TID 0000.0001)    40 @  4.447098934081552E+05              /* J =  1: 40 */
(PID.TID 0000.0001)     ;
(PID.TID 0000.0001) rA =  /* rA(:,1,:,1) ( m - cartesian, degrees - spherical ) */
(PID.TID 0000.0001)    90 @  4.110969866729052E+10              /* I =  1: 90 */
(PID.TID 0000.0001)     ;
(PID.TID 0000.0001) rA =  /* rA(1,:,1,:) ( m - cartesian, degrees - spherical ) */
(PID.TID 0000.0001)                 4.110969866729052E+10,      /* J =  1 */
(PID.TID 0000.0001)                 5.450087291636662E+10,      /* J =  2 */
(PID.TID 0000.0001)                 6.762652439100241E+10,      /* J =  3 */
(PID.TID 0000.0001)                 8.042270623660014E+10,      /* J =  4 */
(PID.TID 0000.0001)                 9.282707674147511E+10,      /* J =  5 */
(PID.TID 0000.0001)                 1.047792030594104E+11,      /* J =  6 */
(PID.TID 0000.0001)                 1.162208556324094E+11,      /* J =  7 */
(PID.TID 0000.0001)                 1.270962918792466E+11,      /* J =  8 */
(PID.TID 0000.0001)                 1.373525277677230E+11,      /* J =  9 */
(PID.TID 0000.0001)                 1.469395959475424E+11,      /* J = 10 */
(PID.TID 0000.0001)                 1.558107891862222E+11,      /* J = 11 */
(PID.TID 0000.0001)                 1.639228879220324E+11,      /* J = 12 */
(PID.TID 0000.0001)                 1.712363708253575E+11,      /* J = 13 */
(PID.TID 0000.0001)                 1.777156073426414E+11,      /* J = 14 */
(PID.TID 0000.0001)                 1.833290312848624E+11,      /* J = 15 */
(PID.TID 0000.0001)                 1.880492946148330E+11,      /* J = 16 */
(PID.TID 0000.0001)                 1.918534006840893E+11,      /* J = 17 */
(PID.TID 0000.0001)                 1.947228162702492E+11,      /* J = 18 */
(PID.TID 0000.0001)                 1.966435618690094E+11,      /* J = 19 */
(PID.TID 0000.0001)     2 @  1.976062798008856E+11,             /* J = 20: 21 */
(PID.TID 0000.0001)                 1.966435618690094E+11,      /* J = 22 */
(PID.TID 0000.0001)                 1.947228162702492E+11,      /* J = 23 */
(PID.TID 0000.0001)                 1.918534006840893E+11,      /* J = 24 */
(PID.TID 0000.0001)                 1.880492946148330E+11,      /* J = 25 */
(PID.TID 0000.0001)                 1.833290312848624E+11,      /* J = 26 */
(PID.TID 0000.0001)                 1.777156073426414E+11,      /* J = 27 */
(PID.TID 0000.0001)                 1.712363708253575E+11,      /* J = 28 */
(PID.TID 0000.0001)                 1.639228879220324E+11,      /* J = 29 */
(PID.TID 0000.0001)                 1.558107891862222E+11,      /* J = 30 */
(PID.TID 0000.0001)                 1.469395959475424E+11,      /* J = 31 */
(PID.TID 0000.0001)                 1.373525277677230E+11,      /* J = 32 */
(PID.TID 0000.0001)                 1.270962918792466E+11,      /* J = 33 */
(PID.TID 0000.0001)                 1.162208556324094E+11,      /* J = 34 */
(PID.TID 0000.0001)                 1.047792030594104E+11,      /* J = 35 */
(PID.TID 0000.0001)                 9.282707674147511E+10,      /* J = 36 */
(PID.TID 0000.0001)                 8.042270623660014E+10,      /* J = 37 */
(PID.TID 0000.0001)                 6.762652439100241E+10,      /* J = 38 */
(PID.TID 0000.0001)                 5.450087291636662E+10,      /* J = 39 */
(PID.TID 0000.0001)                 4.110969866729052E+10       /* J = 40 */
(PID.TID 0000.0001)     ;
(PID.TID 0000.0001) rAw =  /* rAw(:,1,:,1) ( m - cartesian, degrees - spherical ) */
(PID.TID 0000.0001)    90 @  4.110969866729052E+10              /* I =  1: 90 */
(PID.TID 0000.0001)     ;
(PID.TID 0000.0001) rAw =  /* rAw(1,:,1,:) ( m - cartesian, degrees - spherical ) */
(PID.TID 0000.0001)                 4.110969866729052E+10,      /* J =  1 */
(PID.TID 0000.0001)                 5.450087291636662E+10,      /* J =  2 */
(PID.TID 0000.0001)                 6.762652439100241E+10,      /* J =  3 */
(PID.TID 0000.0001)                 8.042270623660014E+10,      /* J =  4 */
(PID.TID 0000.0001)                 9.282707674147511E+10,      /* J =  5 */
(PID.TID 0000.0001)                 1.047792030594104E+11,      /* J =  6 */
(PID.TID 0000.0001)                 1.162208556324094E+11,      /* J =  7 */
(PID.TID 0000.0001)                 1.270962918792466E+11,      /* J =  8 */
(PID.TID 0000.0001)                 1.373525277677230E+11,      /* J =  9 */
(PID.TID 0000.0001)                 1.469395959475424E+11,      /* J = 10 */
(PID.TID 0000.0001)                 1.558107891862222E+11,      /* J = 11 */
(PID.TID 0000.0001)                 1.639228879220324E+11,      /* J = 12 */
(PID.TID 0000.0001)                 1.712363708253575E+11,      /* J = 13 */
(PID.TID 0000.0001)                 1.777156073426414E+11,      /* J = 14 */
(PID.TID 0000.0001)                 1.833290312848624E+11,      /* J = 15 */
(PID.TID 0000.0001)                 1.880492946148330E+11,      /* J = 16 */
(PID.TID 0000.0001)                 1.918534006840893E+11,      /* J = 17 */
(PID.TID 0000.0001)                 1.947228162702492E+11,      /* J = 18 */
(PID.TID 0000.0001)                 1.966435618690094E+11,      /* J = 19 */
(PID.TID 0000.0001)     2 @  1.976062798008856E+11,             /* J = 20: 21 */
(PID.TID 0000.0001)                 1.966435618690094E+11,      /* J = 22 */
(PID.TID 0000.0001)                 1.947228162702492E+11,      /* J = 23 */
(PID.TID 0000.0001)                 1.918534006840893E+11,      /* J = 24 */
(PID.TID 0000.0001)                 1.880492946148330E+11,      /* J = 25 */
(PID.TID 0000.0001)                 1.833290312848624E+11,      /* J = 26 */
(PID.TID 0000.0001)                 1.777156073426414E+11,      /* J = 27 */
(PID.TID 0000.0001)                 1.712363708253575E+11,      /* J = 28 */
(PID.TID 0000.0001)                 1.639228879220324E+11,      /* J = 29 */
(PID.TID 0000.0001)                 1.558107891862222E+11,      /* J = 30 */
(PID.TID 0000.0001)                 1.469395959475424E+11,      /* J = 31 */
(PID.TID 0000.0001)                 1.373525277677230E+11,      /* J = 32 */
(PID.TID 0000.0001)                 1.270962918792466E+11,      /* J = 33 */
(PID.TID 0000.0001)                 1.162208556324094E+11,      /* J = 34 */
(PID.TID 0000.0001)                 1.047792030594104E+11,      /* J = 35 */
(PID.TID 0000.0001)                 9.282707674147511E+10,      /* J = 36 */
(PID.TID 0000.0001)                 8.042270623660014E+10,      /* J = 37 */
(PID.TID 0000.0001)                 6.762652439100241E+10,      /* J = 38 */
(PID.TID 0000.0001)                 5.450087291636662E+10,      /* J = 39 */
(PID.TID 0000.0001)                 4.110969866729052E+10       /* J = 40 */
(PID.TID 0000.0001)     ;
(PID.TID 0000.0001) rAs =  /* rAs(:,1,:,1) ( m - cartesian, degrees - spherical ) */
(PID.TID 0000.0001)    90 @  3.433488626798226E+10              /* I =  1: 90 */
(PID.TID 0000.0001)     ;
(PID.TID 0000.0001) rAs =  /* rAs(1,:,1,:) ( m - cartesian, degrees - spherical ) */
(PID.TID 0000.0001)                 3.433488626798226E+10,      /* J =  1 */
(PID.TID 0000.0001)                 4.783442523123644E+10,      /* J =  2 */
(PID.TID 0000.0001)                 6.110091968306396E+10,      /* J =  3 */
(PID.TID 0000.0001)                 7.406973659603816E+10,      /* J =  4 */
(PID.TID 0000.0001)                 8.667769319778082E+10,      /* J =  5 */
(PID.TID 0000.0001)                 9.886336479107460E+10,      /* J =  6 */
(PID.TID 0000.0001)                 1.105673840088176E+11,      /* J =  7 */
(PID.TID 0000.0001)                 1.217327300458637E+11,      /* J =  8 */
(PID.TID 0000.0001)                 1.323050064586577E+11,      /* J =  9 */
(PID.TID 0000.0001)                 1.422327061792379E+11,      /* J = 10 */
(PID.TID 0000.0001)                 1.514674624524945E+11,      /* J = 11 */
(PID.TID 0000.0001)                 1.599642844741386E+11,      /* J = 12 */
(PID.TID 0000.0001)                 1.676817765813786E+11,      /* J = 13 */
(PID.TID 0000.0001)                 1.745823399284268E+11,      /* J = 14 */
(PID.TID 0000.0001)                 1.806323556642997E+11,      /* J = 15 */
(PID.TID 0000.0001)                 1.858023487204767E+11,      /* J = 16 */
(PID.TID 0000.0001)                 1.900671314104744E+11,      /* J = 17 */
(PID.TID 0000.0001)                 1.934059261417216E+11,      /* J = 18 */
(PID.TID 0000.0001)                 1.958024666419019E+11,      /* J = 19 */
(PID.TID 0000.0001)                 1.972450772065981E+11,      /* J = 20 */
(PID.TID 0000.0001)                 1.977267295821496E+11,      /* J = 21 */
(PID.TID 0000.0001)                 1.972450772065981E+11,      /* J = 22 */
(PID.TID 0000.0001)                 1.958024666419019E+11,      /* J = 23 */
(PID.TID 0000.0001)                 1.934059261417216E+11,      /* J = 24 */
(PID.TID 0000.0001)                 1.900671314104744E+11,      /* J = 25 */
(PID.TID 0000.0001)                 1.858023487204767E+11,      /* J = 26 */
(PID.TID 0000.0001)                 1.806323556642997E+11,      /* J = 27 */
(PID.TID 0000.0001)                 1.745823399284268E+11,      /* J = 28 */
(PID.TID 0000.0001)                 1.676817765813786E+11,      /* J = 29 */
(PID.TID 0000.0001)                 1.599642844741386E+11,      /* J = 30 */
(PID.TID 0000.0001)                 1.514674624524945E+11,      /* J = 31 */
(PID.TID 0000.0001)                 1.422327061792379E+11,      /* J = 32 */
(PID.TID 0000.0001)                 1.323050064586577E+11,      /* J = 33 */
(PID.TID 0000.0001)                 1.217327300458637E+11,      /* J = 34 */
(PID.TID 0000.0001)                 1.105673840088176E+11,      /* J = 35 */
(PID.TID 0000.0001)                 9.886336479107460E+10,      /* J = 36 */
(PID.TID 0000.0001)                 8.667769319778082E+10,      /* J = 37 */
(PID.TID 0000.0001)                 7.406973659603816E+10,      /* J = 38 */
(PID.TID 0000.0001)                 6.110091968306396E+10,      /* J = 39 */
(PID.TID 0000.0001)                 4.783442523123644E+10       /* J = 40 */
(PID.TID 0000.0001)     ;
(PID.TID 0000.0001) 
(PID.TID 0000.0001)  MDSREADFIELD: opening global file: theta.bin
(PID.TID 0000.0001) // =======================================================
(PID.TID 0000.0001) // Field Initial Temperature at iteration          1
(PID.TID 0000.0001) // CMIN =         -1.668560028076172E+00
(PID.TID 0000.0001) // CMAX =          2.932958030700684E+01
(PID.TID 0000.0001) // CINT =          1.148079271669741E+00
(PID.TID 0000.0001) // SYMBOLS (CMIN->CMAX): -abcdefghijklmnopqrstuvwxyz+
(PID.TID 0000.0001) //                  0.0: .
(PID.TID 0000.0001) // RANGE I (Lo:Hi:Step):(   1:  90:   1)
(PID.TID 0000.0001) // RANGE J (Lo:Hi:Step):(  40:   1:  -1)
(PID.TID 0000.0001) // RANGE K (Lo:Hi:Step):(   1:   1:   1)
(PID.TID 0000.0001) // =======================================================
(PID.TID 0000.0001) K =   1
(PID.TID 0000.0001)                I=10      I=20      I=30      I=40      I=50      I=60      I=70      I=80      I=90
(PID.TID 0000.0001) |--J--|123456789|123456789|123456789|123456789|123456789|123456789|123456789|123456789|123456789|
(PID.TID 0000.0001)     40 ..........................................................................................
(PID.TID 0000.0001)     39 efffgf...................................................................bbb.........bbccd
(PID.TID 0000.0001)     38 hhhh......................................................................bc........dddefg
(PID.TID 0000.0001)     37 ij........................................................................ccc...ffgg..hhii
(PID.TID 0000.0001)     36 i..........................................efeed..........................deee.fhhijjkkjji
(PID.TID 0000.0001)     35 jj.................................dddd.ffffffffff.ghhiii..................defgghijkllll..
(PID.TID 0000.0001)     34 ....................................deeefffgggggghhhhiijjj..................dfhijklmmmml..
(PID.TID 0000.0001)     33 ....................................eeeffgggghhhhiiiiijjkkk...............ee.egkmmnnnnnmm.
(PID.TID 0000.0001)     32 ....................................hhhiiiijjjjjkkkkklllmml...............iiihkopppoooon..
(PID.TID 0000.0001)     31 ....................................mnnnnnnnnnnnnnnnnnooonm.............oprrrqrsrrrqqqp...
(PID.TID 0000.0001)     30 ...................................rrrrrqqqqqqqpppppqqqqpon............suuuuutttsssrrrrq..
(PID.TID 0000.0001)     29 ...............................ruuuuttttttttsssssssssssrrqpoo.........vvuuuuuutttttsssrr..
(PID.TID 0000.0001)     28 ..............................uvvvvvvvvvvvvvvvvuuuuuuutssrrqq......wv.wwvvvvvvvuuutttss...
(PID.TID 0000.0001)     27 ...............................xxxxwxxxxwxwwwwwwwwwvvuutttsssst...wxxxxxxxxxxwwwvvvuus....
(PID.TID 0000.0001)     26 ...............xyy....y.....xxyyyyyyyyyyyyyxxxxxxxxwwvvvvuuuuvvw..w.yyyyyyyxxxxwwvvuts....
(PID.TID 0000.0001)     25 .............xxyyz..yzzy...xyy.zzzzzzzzzzyyyyyyyxxxxwwwwwwwwxxxyy....zzyyyyyyxxxwwwvut....
(PID.TID 0000.0001)     24 ............xxyzzzz.zzzz...yyz.zzzzzzzzzzzzyyyyyyyxxxxxxxxxxxyyyyxww.yyy.yyyyyxxxwwwvu....
(PID.TID 0000.0001)     23 .............xyzzzzzzzzz.zyyzzzzzz++++zzzzzzzzzzzyyyyyyyyyyyyyyyxxwvw......yyyyyyxxxxww...
(PID.TID 0000.0001)     22 xx..........yyzz+zzzzzzz..zz..zzz++++++++++zzzzzzzzzzyyyyyxxxxxxxxxwww.......yyyyyyyyyyxww
(PID.TID 0000.0001)     21 ww.........yyyzzzzzzzz+++.....zzzz++++++++zzzzzzyyyyyyxxxwwwvvvvuuutut........yyyyyxxxxwww
(PID.TID 0000.0001)     20 vvu.......yyyyyyzzzzzzzzz.......y...++++++++++zzzzzzzyyyyxxxwwwvvuuut............yyyxxxwvv
(PID.TID 0000.0001)     19 vut.......yxyxxyyyyyyyzzzzz.zzzzzy...zz++++++++++++zzzzyyyyyxxxwwvvvus...........yyyxxxwww
(PID.TID 0000.0001)     18 uut.......yyyyxyyyyyyyyyyyyyzzzz....yyyzzzzzz++z++zzzzzzyyyxxxwwvvuutsr..........yyxxxwvvv
(PID.TID 0000.0001)     17 tts.......y..xxxxxxxxxxxxxxxyyy......xyyyyyyyyzzzzzzzzyyyyxxxwwvvuuutsr..........xxxwwvuut
(PID.TID 0000.0001)     16 tsq......xx.xxwwwwwwwvvvvwwww........wwwxxxxxxxxxxxxxxxxxxxxxwvvvuuttssr........xxxxwvvuut
(PID.TID 0000.0001)     15 srq......ww.wwwvvvvvuuuuuuuv..........vvvvvvvvvvvvvvvvvwwwwwwvvvuuttsrrq.......vwwwwvvuutt
(PID.TID 0000.0001)     14 ssrp....vvvvvvuuuuuttstttstt...........uuuttutttttttuuuuuuuuuvuuuttssrqp......uvvvuuuuuuts
(PID.TID 0000.0001)     13 rrrq...ttsssssrrrrrrqrqqqqqr..........uttsssssrrrrsrrsssssssssrrrrrrrqpo.....tttttsttttssr
(PID.TID 0000.0001)     12 ppqqrssssrrqqqqpppooooooopppq.qppp....ssrqqqqqpppppppppppppoooopooppppon....orrrrrqqqqqqqp
(PID.TID 0000.0001)     11 mlmopqpppppoooononnmmmlmmmmmnnnnnnnoopppppp.pooonnnnnnnnnmmmmmmmmmmnnnn....lmpoooooonnnnmm
(PID.TID 0000.0001)     10 iiijkkkkkjjiijkkkkkkkkjjjjjjkkkkllllmnnnnn.lmmmnmmlllllmllllllkkkjkllll...kjlmlkkkkkjjjjii
(PID.TID 0000.0001)      9 ffffffffffffefffeefgggggfggghhiiiiijjkllllkkkkkkkkkkkkjjjjjjiiiiiiijjjk...ihiiihggggfffeee
(PID.TID 0000.0001)      8 ccccccddddddddeedddddddedeeeefffgfggghhhiiiiiiiihhhhhhhhhgggggghggggghi..hhhgffedddddddccc
(PID.TID 0000.0001)      7 aaabbbccccccccccccccbccccccccddddddddeeffghhgggggfeedddeeffffffffggfggggggffeddccbbbbbbbbb
(PID.TID 0000.0001)      6 aaaabbbbbbbbbbbbbbbbbbbbbbbbbcccccccccccdeeeeeeedcbbbbbccccdddddeeeeeeeeddcccbbbaaaaaaaaaa
(PID.TID 0000.0001)      5 aaabbbbbbbbaaaaabbbaaaaaa.aaabbbbbbbbbbbbbbbbbbbbbaaaaaaaabbbbcccccccbbbbb.aaaaaaaaaaaaaaa
(PID.TID 0000.0001)      4 aaaaaaaa.a..............................aaaaaaaaaaaaaaaaaaaaaaaaaaaaaaaa...aa--aaaaaaaaaaa
(PID.TID 0000.0001)      3 ...........................................aaaaaa------------aaaa..........------aaaaa....
(PID.TID 0000.0001)      2 ...........................................aaaaaa--...........................----........
(PID.TID 0000.0001)      1 ..........................................................................................
(PID.TID 0000.0001) // =======================================================
(PID.TID 0000.0001) // END OF FIELD                                          =
(PID.TID 0000.0001) // =======================================================
(PID.TID 0000.0001) 
(PID.TID 0000.0001)  MDSREADFIELD: opening global file: salt.bin
(PID.TID 0000.0001) // =======================================================
(PID.TID 0000.0001) // Field Initial Salinity at iteration          1
(PID.TID 0000.0001) // CMIN =          3.102835273742676E+01
(PID.TID 0000.0001) // CMAX =          3.743946075439453E+01
(PID.TID 0000.0001) // CINT =          2.374484450728805E-01
(PID.TID 0000.0001) // SYMBOLS (CMIN->CMAX): -abcdefghijklmnopqrstuvwxyz+
(PID.TID 0000.0001) //                  0.0: .
(PID.TID 0000.0001) // RANGE I (Lo:Hi:Step):(   1:  90:   1)
(PID.TID 0000.0001) // RANGE J (Lo:Hi:Step):(  40:   1:  -1)
(PID.TID 0000.0001) // RANGE K (Lo:Hi:Step):(   1:   1:   1)
(PID.TID 0000.0001) // =======================================================
(PID.TID 0000.0001) K =   1
(PID.TID 0000.0001)                I=10      I=20      I=30      I=40      I=50      I=60      I=70      I=80      I=90
(PID.TID 0000.0001) |--J--|123456789|123456789|123456789|123456789|123456789|123456789|123456789|123456789|123456789|
(PID.TID 0000.0001)     40 ..........................................................................................
(PID.TID 0000.0001)     39 qqqqpp...................................................................ghi.........kmnpp
(PID.TID 0000.0001)     38 rqpn......................................................................gh........mnoppq
(PID.TID 0000.0001)     37 qo........................................................................hjj...noqq..pqqq
(PID.TID 0000.0001)     36 p..........................................hhgeb..........................jmom.npqqrrrrrrq
(PID.TID 0000.0001)     35 po.................................gghh.ghiiiihfdb.egggec..................gloppppqqrrrr..
(PID.TID 0000.0001)     34 ....................................fghghhhhhhhhgfgggggfed..................flopppqrrsrr..
(PID.TID 0000.0001)     33 ....................................gghhhhhhhhgghhgggggggfe...............-b.glprsrrssssr.
(PID.TID 0000.0001)     32 ....................................hhijjjjjkjjjjiihhhhhggf...............cghiosttttssts..
(PID.TID 0000.0001)     31 ....................................llmmmmmmmmmmmllkjkjihgh.............mpsttsuvuuuuuut...
(PID.TID 0000.0001)     30 ...................................nooooooooonnnnnmmmmlkjih............qvwwwwwvvvvvvvvvv..
(PID.TID 0000.0001)     29 ...............................knooooooopppppppppppppppomkjjj.........vwwwwwwwwxxxxxxwww..
(PID.TID 0000.0001)     28 ..............................lnopoppppqqqqqqrrrrrrrrrrqpnlkk......tu.vwwxxxyyyzzzzyyxw...
(PID.TID 0000.0001)     27 ...............................pppppqqqqqrrrrrrrrrqqqqqqponmmmp...wwvuwwwwxxyz++++zzyx....
(PID.TID 0000.0001)     26 ...............vwu....h.....mmnooppppqqqqqrqqqqqqpppoppoooonnnoo..v.uuvvvuuuwyzzyyyxwu....
(PID.TID 0000.0001)     25 .............uuvwv..gihf...llk.nnooopppppppppppoooonnoonnnnnmmmmm....uttsssstwwwwwwvut....
(PID.TID 0000.0001)     24 ............utuvvuq.kkig...kjk.nnnnnoooooooooooonnnnnnnmmmmmlllllmmm.vuu.vsrrtuvuuuuts....
(PID.TID 0000.0001)     23 .............stttspommki.eijjkmnmmmnnnnnnnnnnnnoonnnnnnnnmmmmmllklmml......srstttuttssp...
(PID.TID 0000.0001)     22 qm..........ssrrrrqponml..jj..mnnnnoonnonopopppqqppppppppooonnnmlllkjj.......outtttssrrqrr
(PID.TID 0000.0001)     21 qp.........rrrrrqqqpppnml.....mmnoooooppppqqrrrrrrrqqqqqqppppppppooonm........tuuuuutttsrr
(PID.TID 0000.0001)     20 ssq.......rrrrqqqqppponmm.......n...noppppqqrssssssrssrrrrqqqqqqppppp............uuuutttts
(PID.TID 0000.0001)     19 usr.......qqrqppppooonnmmml.kklmmm...nppoppppqrrssssssssssrrrrrrqqrqqq...........wvvuuuuuu
(PID.TID 0000.0001)     18 vut.......qqqppoooonnnnnnnnnnnno....qqpppppppqrrsttttttuutttttttssssrrq..........xxxxxwwww
(PID.TID 0000.0001)     17 uut.......q..qpppoooooooooooooo......rqqpqqqqrsrsttuuuvvvvvvvvvuuttssrq..........yzzyyxwwv
(PID.TID 0000.0001)     16 tts......qq.qqqppqpqpppqqqqqq........rrrrrrrqrsssstttuuvvvwwwwvvvutsrrqq........yyzzyxxwvu
(PID.TID 0000.0001)     15 tsr......rr.qqrrrrssrssssssr..........sssssssssssssssssstuvwvvuuvtsrqppp.......wxxxxxxwwvu
(PID.TID 0000.0001)     14 ttsr....rrrrrrssstttttttttts...........sttttsssssssssrrrssttttttssrqpoon......vwwuuvvvvuuu
(PID.TID 0000.0001)     13 tsss...rssssssssstttsttttttt..........sssssttssssrrssrrqqqqrrqqppppooonm.....svuuttttstttt
(PID.TID 0000.0001)     12 rrrsrrrssssssrrssrrrrrrqrssss.srrs....ssssssssrrqqqqqqpqpoooonnnnnnnnmml....ksutsssrrrrrqr
(PID.TID 0000.0001)     11 oooqrrrrrqqqppprrrqqpppppqqqqqpppqqrrsrrrrr.rrrqppponnnnnmmmmmmmllmmlml....korqppqrqqpppoo
(PID.TID 0000.0001)     10 mmmnnooonmllkklnnnoonnonooooooopooppqqqppp.ooppppoonnnnnnmmmmmmmllmlllk...kmoponoonnnnnnnn
(PID.TID 0000.0001)      9 lllllllllllkkklkkklllmmmmmmmnnnnnnnooooooonnnnoooooooonnnnnnnnmmmmmmmmk...kmnnnnmmmlllllll
(PID.TID 0000.0001)      8 lllmmmmlllllllllllllllllllllllllllmmmmmmnnnnnnnnnnnnnnnnnnnnnnmnnmmmmml..ikmmmllllllllllll
(PID.TID 0000.0001)      7 mmmmmmmllllllllllllllllllllllllllllllllllmmmmmmmmlllmmmmmmmmmmmmmmmmmmmlkllmmlllllllllllll
(PID.TID 0000.0001)      6 mmmlllllllllllllllllllllllllllllllllllllllllllllllmmmmmmmmmmmmmmmmmmmmmmmlllmmmmmllllllmmm
(PID.TID 0000.0001)      5 nnmmmllllllllllllllllllll.lllmmllllllllmmmmmmmmmmmmmmlllllllllllllllllllll.mmmmmmmmmmmmmmn
(PID.TID 0000.0001)      4 nmmmllll.l..............................mmmmmmlmmmllkkkkkkkkkkkkkkkkkkkk...mnnnnnnnnnnmmnn
(PID.TID 0000.0001)      3 ...........................................nmmmlllllkkkkklmmmmllk..........nnnnnmmmmmm....
(PID.TID 0000.0001)      2 ...........................................nnnmmmmm...........................nnnm........
(PID.TID 0000.0001)      1 ..........................................................................................
(PID.TID 0000.0001) // =======================================================
(PID.TID 0000.0001) // END OF FIELD                                          =
(PID.TID 0000.0001) // =======================================================
(PID.TID 0000.0001) 
(PID.TID 0000.0001)  MDSREADFIELD: opening global file: windx.bin
(PID.TID 0000.0001)  MDSREADFIELD: opening global file: windy.bin
(PID.TID 0000.0001)  MDSREADFIELD: opening global file: SST.bin
(PID.TID 0000.0001)  MDSREADFIELD: opening global file: SSS.bin
(PID.TID 0000.0001) // =======================================================
(PID.TID 0000.0001) // Model current state
(PID.TID 0000.0001) // =======================================================
(PID.TID 0000.0001) 
(PID.TID 0000.0001) // =======================================================
(PID.TID 0000.0001) // Begin MONITOR dynamic field statistics
(PID.TID 0000.0001) // =======================================================
(PID.TID 0000.0001) %MON time_tsnumber                =                     0
(PID.TID 0000.0001) %MON time_secondsf                =   0.0000000000000E+00
(PID.TID 0000.0001) %MON time_secondsi                =                     0
(PID.TID 0000.0001) %MON dynstat_eta_max              =   0.0000000000000E+00
(PID.TID 0000.0001) %MON dynstat_eta_min              =   0.0000000000000E+00
(PID.TID 0000.0001) %MON dynstat_eta_mean             =   0.0000000000000E+00
(PID.TID 0000.0001) %MON dynstat_eta_sd               =   0.0000000000000E+00
(PID.TID 0000.0001) %MON dynstat_uvel_max             =   0.0000000000000E+00
(PID.TID 0000.0001) %MON dynstat_uvel_min             =   0.0000000000000E+00
(PID.TID 0000.0001) %MON dynstat_uvel_mean            =   0.0000000000000E+00
(PID.TID 0000.0001) %MON dynstat_uvel_sd              =   0.0000000000000E+00
(PID.TID 0000.0001) %MON dynstat_vvel_max             =   0.0000000000000E+00
(PID.TID 0000.0001) %MON dynstat_vvel_min             =   0.0000000000000E+00
(PID.TID 0000.0001) %MON dynstat_vvel_mean            =   0.0000000000000E+00
(PID.TID 0000.0001) %MON dynstat_vvel_sd              =   0.0000000000000E+00
(PID.TID 0000.0001) %MON dynstat_wvel_max             =   0.0000000000000E+00
(PID.TID 0000.0001) %MON dynstat_wvel_min             =   0.0000000000000E+00
(PID.TID 0000.0001) %MON dynstat_wvel_mean            =   0.0000000000000E+00
(PID.TID 0000.0001) %MON dynstat_wvel_sd              =   0.0000000000000E+00
(PID.TID 0000.0001) %MON dynstat_theta_max            =   2.9329580307007E+01
(PID.TID 0000.0001) %MON dynstat_theta_min            =  -1.8496928215027E+00
(PID.TID 0000.0001) %MON dynstat_theta_mean           =   6.5921214425735E+00
(PID.TID 0000.0001) %MON dynstat_theta_sd             =   6.7153298905915E+00
(PID.TID 0000.0001) %MON dynstat_salt_max             =   3.7439460754395E+01
(PID.TID 0000.0001) %MON dynstat_salt_min             =   3.1028352737427E+01
(PID.TID 0000.0001) %MON dynstat_salt_mean            =   3.4726310438564E+01
(PID.TID 0000.0001) %MON dynstat_salt_sd              =   4.9945628309327E-01
(PID.TID 0000.0001) %MON advcfl_uvel_max              =   0.0000000000000E+00
(PID.TID 0000.0001) %MON advcfl_vvel_max              =   0.0000000000000E+00
(PID.TID 0000.0001) %MON advcfl_wvel_max              =   0.0000000000000E+00
(PID.TID 0000.0001) %MON ke_max                       =   0.0000000000000E+00
(PID.TID 0000.0001) %MON ke_mean                      =   0.0000000000000E+00
(PID.TID 0000.0001) // =======================================================
(PID.TID 0000.0001) // End MONITOR dynamic field statistics
(PID.TID 0000.0001) // =======================================================
 cg2d: Sum(rhs),rhsMax =  -8.84708972748172E-15  1.36840245544309E+01
(PID.TID 0000.0001)                    cg2d_init_res =    3.26388605515292E+00
(PID.TID 0000.0001)                       cg2d_iters =    41
(PID.TID 0000.0001)                         cg2d_res =    6.05817968918574E-14
(PID.TID 0000.0001) // =======================================================
(PID.TID 0000.0001) // Begin MONITOR dynamic field statistics
(PID.TID 0000.0001) // =======================================================
(PID.TID 0000.0001) %MON time_tsnumber                =                     1
(PID.TID 0000.0001) %MON time_secondsf                =   1.0800000000000E+05
(PID.TID 0000.0001) %MON time_secondsi                =                108000
(PID.TID 0000.0001) %MON dynstat_eta_max              =   1.3946197796846E+00
(PID.TID 0000.0001) %MON dynstat_eta_min              =  -5.6899838027049E-01
(PID.TID 0000.0001) %MON dynstat_eta_mean             =  -1.4858469880250E-02
(PID.TID 0000.0001) %MON dynstat_eta_sd               =   1.4935342792190E-01
(PID.TID 0000.0001) %MON dynstat_uvel_max             =   9.3701897258885E-02
(PID.TID 0000.0001) %MON dynstat_uvel_min             =  -1.9865079800640E-01
(PID.TID 0000.0001) %MON dynstat_uvel_mean            =  -9.7120301678686E-04
(PID.TID 0000.0001) %MON dynstat_uvel_sd              =   4.7920490219628E-03
(PID.TID 0000.0001) %MON dynstat_vvel_max             =   1.7286602529238E-01
(PID.TID 0000.0001) %MON dynstat_vvel_min             =  -2.4498203566834E-01
(PID.TID 0000.0001) %MON dynstat_vvel_mean            =   3.7137724184490E-03
(PID.TID 0000.0001) %MON dynstat_vvel_sd              =   1.1708209239271E-02
(PID.TID 0000.0001) %MON dynstat_wvel_max             =   0.0000000000000E+00
(PID.TID 0000.0001) %MON dynstat_wvel_min             =   0.0000000000000E+00
(PID.TID 0000.0001) %MON dynstat_wvel_mean            =   0.0000000000000E+00
(PID.TID 0000.0001) %MON dynstat_wvel_sd              =   0.0000000000000E+00
(PID.TID 0000.0001) %MON dynstat_theta_max            =   2.9326963214193E+01
(PID.TID 0000.0001) %MON dynstat_theta_min            =  -1.8480753684878E+00
(PID.TID 0000.0001) %MON dynstat_theta_mean           =   6.5929923887270E+00
(PID.TID 0000.0001) %MON dynstat_theta_sd             =   6.7133943088379E+00
(PID.TID 0000.0001) %MON dynstat_salt_max             =   3.7438527580927E+01
(PID.TID 0000.0001) %MON dynstat_salt_min             =   3.1032341924968E+01
(PID.TID 0000.0001) %MON dynstat_salt_mean            =   3.4726461736312E+01
(PID.TID 0000.0001) %MON dynstat_salt_sd              =   4.9907542127898E-01
(PID.TID 0000.0001) %MON advcfl_uvel_max              =   7.3083319048404E-02
(PID.TID 0000.0001) %MON advcfl_vvel_max              =   5.9495100613598E-02
(PID.TID 0000.0001) %MON advcfl_wvel_max              =   0.0000000000000E+00
(PID.TID 0000.0001) %MON ke_max                       =   1.8739481853247E-02
(PID.TID 0000.0001) %MON ke_mean                      =   8.0516861303238E-05
(PID.TID 0000.0001) // =======================================================
(PID.TID 0000.0001) // End MONITOR dynamic field statistics
(PID.TID 0000.0001) // =======================================================
 cg2d: Sum(rhs),rhsMax =  -2.49036902211230E-14  1.71420749843825E+01
(PID.TID 0000.0001)                    cg2d_init_res =    1.01846180636528E+00
(PID.TID 0000.0001)                       cg2d_iters =    40
(PID.TID 0000.0001)                         cg2d_res =    6.08834320149691E-14
(PID.TID 0000.0001) // =======================================================
(PID.TID 0000.0001) // Begin MONITOR dynamic field statistics
(PID.TID 0000.0001) // =======================================================
(PID.TID 0000.0001) %MON time_tsnumber                =                     2
(PID.TID 0000.0001) %MON time_secondsf                =   2.1600000000000E+05
(PID.TID 0000.0001) %MON time_secondsi                =                216000
(PID.TID 0000.0001) %MON dynstat_eta_max              =   1.8883706875231E+00
(PID.TID 0000.0001) %MON dynstat_eta_min              =  -9.3830469682960E-01
(PID.TID 0000.0001) %MON dynstat_eta_mean             =  -3.5512833273813E-02
(PID.TID 0000.0001) %MON dynstat_eta_sd               =   2.7525571788354E-01
(PID.TID 0000.0001) %MON dynstat_uvel_max             =   1.7897454520766E-01
(PID.TID 0000.0001) %MON dynstat_uvel_min             =  -2.6879493856820E-01
(PID.TID 0000.0001) %MON dynstat_uvel_mean            =  -2.5126194290283E-03
(PID.TID 0000.0001) %MON dynstat_uvel_sd              =   8.6091672828510E-03
(PID.TID 0000.0001) %MON dynstat_vvel_max             =   2.3999054099738E-01
(PID.TID 0000.0001) %MON dynstat_vvel_min             =  -3.3900862605595E-01
(PID.TID 0000.0001) %MON dynstat_vvel_mean            =   4.9591193328372E-03
(PID.TID 0000.0001) %MON dynstat_vvel_sd              =   1.7419540379939E-02
(PID.TID 0000.0001) %MON dynstat_wvel_max             =   9.9815030016061E-04
(PID.TID 0000.0001) %MON dynstat_wvel_min             =  -5.5993188014450E-04
(PID.TID 0000.0001) %MON dynstat_wvel_mean            =  -5.2326537533705E-06
(PID.TID 0000.0001) %MON dynstat_wvel_sd              =   6.5062319236892E-05
(PID.TID 0000.0001) %MON dynstat_theta_max            =   2.9348702837008E+01
(PID.TID 0000.0001) %MON dynstat_theta_min            =  -1.8470923712453E+00
(PID.TID 0000.0001) %MON dynstat_theta_mean           =   6.5763823875494E+00
(PID.TID 0000.0001) %MON dynstat_theta_sd             =   6.6957963753583E+00
(PID.TID 0000.0001) %MON dynstat_salt_max             =   3.7437333035480E+01
(PID.TID 0000.0001) %MON dynstat_salt_min             =   3.1017792397583E+01
(PID.TID 0000.0001) %MON dynstat_salt_mean            =   3.4723337946256E+01
(PID.TID 0000.0001) %MON dynstat_salt_sd              =   5.0147984707015E-01
(PID.TID 0000.0001) %MON advcfl_uvel_max              =   9.6285774046442E-02
(PID.TID 0000.0001) %MON advcfl_vvel_max              =   8.2329923747478E-02
(PID.TID 0000.0001) %MON advcfl_wvel_max              =   2.5103156034322E+00
(PID.TID 0000.0001) %MON ke_max                       =   3.5592889623787E-02
(PID.TID 0000.0001) %MON ke_mean                      =   1.8845115538131E-04
(PID.TID 0000.0001) // =======================================================
(PID.TID 0000.0001) // End MONITOR dynamic field statistics
(PID.TID 0000.0001) // =======================================================
 cg2d: Sum(rhs),rhsMax =   1.35197408823728E-13  1.04407488289413E+01
(PID.TID 0000.0001)                    cg2d_init_res =    2.55616839659908E+00
(PID.TID 0000.0001)                       cg2d_iters =    41
(PID.TID 0000.0001)                         cg2d_res =    5.12274443698328E-14
(PID.TID 0000.0001) // =======================================================
(PID.TID 0000.0001) // Begin MONITOR dynamic field statistics
(PID.TID 0000.0001) // =======================================================
(PID.TID 0000.0001) %MON time_tsnumber                =                     3
(PID.TID 0000.0001) %MON time_secondsf                =   3.2400000000000E+05
(PID.TID 0000.0001) %MON time_secondsi                =                324000
(PID.TID 0000.0001) %MON dynstat_eta_max              =   1.3773360007375E+00
(PID.TID 0000.0001) %MON dynstat_eta_min              =  -1.2000477977402E+00
(PID.TID 0000.0001) %MON dynstat_eta_mean             =  -5.8457751784124E-02
(PID.TID 0000.0001) %MON dynstat_eta_sd               =   3.8249245382978E-01
(PID.TID 0000.0001) %MON dynstat_uvel_max             =   2.5110636677335E-01
(PID.TID 0000.0001) %MON dynstat_uvel_min             =  -3.2262881534526E-01
(PID.TID 0000.0001) %MON dynstat_uvel_mean            =  -4.0934783714539E-03
(PID.TID 0000.0001) %MON dynstat_uvel_sd              =   1.2435104051160E-02
(PID.TID 0000.0001) %MON dynstat_vvel_max             =   3.0790381389703E-01
(PID.TID 0000.0001) %MON dynstat_vvel_min             =  -4.2254223613834E-01
(PID.TID 0000.0001) %MON dynstat_vvel_mean            =   5.2271267593946E-03
(PID.TID 0000.0001) %MON dynstat_vvel_sd              =   2.1738888709663E-02
(PID.TID 0000.0001) %MON dynstat_wvel_max             =   1.2480886035560E-03
(PID.TID 0000.0001) %MON dynstat_wvel_min             =  -7.3046968864161E-04
(PID.TID 0000.0001) %MON dynstat_wvel_mean            =  -7.3449421870469E-06
(PID.TID 0000.0001) %MON dynstat_wvel_sd              =   6.5522439293811E-05
(PID.TID 0000.0001) %MON dynstat_theta_max            =   2.9320224746486E+01
(PID.TID 0000.0001) %MON dynstat_theta_min            =  -1.8488060530368E+00
(PID.TID 0000.0001) %MON dynstat_theta_mean           =   6.5609069059862E+00
(PID.TID 0000.0001) %MON dynstat_theta_sd             =   6.6753803913721E+00
(PID.TID 0000.0001) %MON dynstat_salt_max             =   3.7434443784164E+01
(PID.TID 0000.0001) %MON dynstat_salt_min             =   3.0992570687973E+01
(PID.TID 0000.0001) %MON dynstat_salt_mean            =   3.4720464448703E+01
(PID.TID 0000.0001) %MON dynstat_salt_sd              =   5.0324054236572E-01
(PID.TID 0000.0001) %MON advcfl_uvel_max              =   1.1612136569208E-01
(PID.TID 0000.0001) %MON advcfl_vvel_max              =   1.0261647464869E-01
(PID.TID 0000.0001) %MON advcfl_wvel_max              =   8.8875163410937E-01
(PID.TID 0000.0001) %MON ke_max                       =   5.3556327375600E-02
(PID.TID 0000.0001) %MON ke_mean                      =   3.1016176487825E-04
(PID.TID 0000.0001) // =======================================================
(PID.TID 0000.0001) // End MONITOR dynamic field statistics
(PID.TID 0000.0001) // =======================================================
 cg2d: Sum(rhs),rhsMax =   1.97661331746701E-13  8.45920768917078E+00
(PID.TID 0000.0001)                    cg2d_init_res =    1.56466705874085E+00
(PID.TID 0000.0001)                       cg2d_iters =    40
(PID.TID 0000.0001)                         cg2d_res =    7.86959988576823E-14
(PID.TID 0000.0001) // =======================================================
(PID.TID 0000.0001) // Begin MONITOR dynamic field statistics
(PID.TID 0000.0001) // =======================================================
(PID.TID 0000.0001) %MON time_tsnumber                =                     4
(PID.TID 0000.0001) %MON time_secondsf                =   4.3200000000000E+05
(PID.TID 0000.0001) %MON time_secondsi                =                432000
(PID.TID 0000.0001) %MON dynstat_eta_max              =   1.4651751474933E+00
(PID.TID 0000.0001) %MON dynstat_eta_min              =  -1.4467493005980E+00
(PID.TID 0000.0001) %MON dynstat_eta_mean             =  -8.0517172562189E-02
(PID.TID 0000.0001) %MON dynstat_eta_sd               =   4.7776520159667E-01
(PID.TID 0000.0001) %MON dynstat_uvel_max             =   2.9744354670395E-01
(PID.TID 0000.0001) %MON dynstat_uvel_min             =  -4.0174784196088E-01
(PID.TID 0000.0001) %MON dynstat_uvel_mean            =  -5.2400673904117E-03
(PID.TID 0000.0001) %MON dynstat_uvel_sd              =   1.6169280698348E-02
(PID.TID 0000.0001) %MON dynstat_vvel_max             =   3.8113089495222E-01
(PID.TID 0000.0001) %MON dynstat_vvel_min             =  -5.4083316788218E-01
(PID.TID 0000.0001) %MON dynstat_vvel_mean            =   4.6407289712445E-03
(PID.TID 0000.0001) %MON dynstat_vvel_sd              =   2.4789466674152E-02
(PID.TID 0000.0001) %MON dynstat_wvel_max             =   1.4876679065824E-03
(PID.TID 0000.0001) %MON dynstat_wvel_min             =  -9.1263097279809E-04
(PID.TID 0000.0001) %MON dynstat_wvel_mean            =  -8.2817707625921E-06
(PID.TID 0000.0001) %MON dynstat_wvel_sd              =   6.4417722188550E-05
(PID.TID 0000.0001) %MON dynstat_theta_max            =   2.9320574405023E+01
(PID.TID 0000.0001) %MON dynstat_theta_min            =  -1.8705551684022E+00
(PID.TID 0000.0001) %MON dynstat_theta_mean           =   6.5456083824847E+00
(PID.TID 0000.0001) %MON dynstat_theta_sd             =   6.6529364919628E+00
(PID.TID 0000.0001) %MON dynstat_salt_max             =   3.7431461524733E+01
(PID.TID 0000.0001) %MON dynstat_salt_min             =   3.0963470723175E+01
(PID.TID 0000.0001) %MON dynstat_salt_mean            =   3.4717926026962E+01
(PID.TID 0000.0001) %MON dynstat_salt_sd              =   5.0456240004984E-01
(PID.TID 0000.0001) %MON advcfl_uvel_max              =   1.2804941476244E-01
(PID.TID 0000.0001) %MON advcfl_vvel_max              =   1.3134401324791E-01
(PID.TID 0000.0001) %MON advcfl_wvel_max              =   1.0496073751570E+00
(PID.TID 0000.0001) %MON ke_max                       =   8.5106641658655E-02
(PID.TID 0000.0001) %MON ke_mean                      =   4.2797364384264E-04
(PID.TID 0000.0001) // =======================================================
(PID.TID 0000.0001) // End MONITOR dynamic field statistics
(PID.TID 0000.0001) // =======================================================
 cg2d: Sum(rhs),rhsMax =   1.90070181815827E-13  9.75651401460793E+00
(PID.TID 0000.0001)                    cg2d_init_res =    1.17017303918547E+00
(PID.TID 0000.0001)                       cg2d_iters =    40
(PID.TID 0000.0001)                         cg2d_res =    6.48986321361468E-14
(PID.TID 0000.0001) // =======================================================
(PID.TID 0000.0001) // Begin MONITOR dynamic field statistics
(PID.TID 0000.0001) // =======================================================
(PID.TID 0000.0001) %MON time_tsnumber                =                     5
(PID.TID 0000.0001) %MON time_secondsf                =   5.4000000000000E+05
(PID.TID 0000.0001) %MON time_secondsi                =                540000
(PID.TID 0000.0001) %MON dynstat_eta_max              =   1.5623995461965E+00
(PID.TID 0000.0001) %MON dynstat_eta_min              =  -1.5871919375634E+00
(PID.TID 0000.0001) %MON dynstat_eta_mean             =  -9.9234592855545E-02
(PID.TID 0000.0001) %MON dynstat_eta_sd               =   5.5051697885465E-01
(PID.TID 0000.0001) %MON dynstat_uvel_max             =   3.3374057236462E-01
(PID.TID 0000.0001) %MON dynstat_uvel_min             =  -4.7656073364494E-01
(PID.TID 0000.0001) %MON dynstat_uvel_mean            =  -5.6336835665176E-03
(PID.TID 0000.0001) %MON dynstat_uvel_sd              =   2.0056294655522E-02
(PID.TID 0000.0001) %MON dynstat_vvel_max             =   4.5939898027705E-01
(PID.TID 0000.0001) %MON dynstat_vvel_min             =  -6.5235093053634E-01
(PID.TID 0000.0001) %MON dynstat_vvel_mean            =   3.4877309719003E-03
(PID.TID 0000.0001) %MON dynstat_vvel_sd              =   2.7097512076042E-02
(PID.TID 0000.0001) %MON dynstat_wvel_max             =   1.9308572150125E-03
(PID.TID 0000.0001) %MON dynstat_wvel_min             =  -1.2598906998563E-03
(PID.TID 0000.0001) %MON dynstat_wvel_mean            =  -8.1451125484873E-06
(PID.TID 0000.0001) %MON dynstat_wvel_sd              =   6.6904274166482E-05
(PID.TID 0000.0001) %MON dynstat_theta_max            =   2.9304740903791E+01
(PID.TID 0000.0001) %MON dynstat_theta_min            =  -2.1961718298884E+00
(PID.TID 0000.0001) %MON dynstat_theta_mean           =   6.5325243344811E+00
(PID.TID 0000.0001) %MON dynstat_theta_sd             =   6.6296242901208E+00
(PID.TID 0000.0001) %MON dynstat_salt_max             =   3.7429878126885E+01
(PID.TID 0000.0001) %MON dynstat_salt_min             =   3.0942540785718E+01
(PID.TID 0000.0001) %MON dynstat_salt_mean            =   3.4715868909289E+01
(PID.TID 0000.0001) %MON dynstat_salt_sd              =   5.0542309568520E-01
(PID.TID 0000.0001) %MON advcfl_uvel_max              =   1.2837588622543E-01
(PID.TID 0000.0001) %MON advcfl_vvel_max              =   1.5842665419018E-01
(PID.TID 0000.0001) %MON advcfl_wvel_max              =   7.7461683347346E-01
(PID.TID 0000.0001) %MON ke_max                       =   1.2183910414647E-01
(PID.TID 0000.0001) %MON ke_mean                      =   5.4693300903220E-04
(PID.TID 0000.0001) // =======================================================
(PID.TID 0000.0001) // End MONITOR dynamic field statistics
(PID.TID 0000.0001) // =======================================================
 cg2d: Sum(rhs),rhsMax =   2.25153229393982E-13  8.85845787995172E+00
(PID.TID 0000.0001)                    cg2d_init_res =    1.46864571657762E+00
(PID.TID 0000.0001)                       cg2d_iters =    40
(PID.TID 0000.0001)                         cg2d_res =    7.36105213518241E-14
(PID.TID 0000.0001) // =======================================================
(PID.TID 0000.0001) // Begin MONITOR dynamic field statistics
(PID.TID 0000.0001) // =======================================================
(PID.TID 0000.0001) %MON time_tsnumber                =                     6
(PID.TID 0000.0001) %MON time_secondsf                =   6.4800000000000E+05
(PID.TID 0000.0001) %MON time_secondsi                =                648000
(PID.TID 0000.0001) %MON dynstat_eta_max              =   1.5869655672472E+00
(PID.TID 0000.0001) %MON dynstat_eta_min              =  -1.7600177189192E+00
(PID.TID 0000.0001) %MON dynstat_eta_mean             =  -1.1320263626590E-01
(PID.TID 0000.0001) %MON dynstat_eta_sd               =   5.9518851579743E-01
(PID.TID 0000.0001) %MON dynstat_uvel_max             =   3.6595264762845E-01
(PID.TID 0000.0001) %MON dynstat_uvel_min             =  -5.2987490453385E-01
(PID.TID 0000.0001) %MON dynstat_uvel_mean            =  -5.1714189815365E-03
(PID.TID 0000.0001) %MON dynstat_uvel_sd              =   2.4045665703879E-02
(PID.TID 0000.0001) %MON dynstat_vvel_max             =   5.1870284187848E-01
(PID.TID 0000.0001) %MON dynstat_vvel_min             =  -7.3633602532515E-01
(PID.TID 0000.0001) %MON dynstat_vvel_mean            =   2.1575513307147E-03
(PID.TID 0000.0001) %MON dynstat_vvel_sd              =   2.8806139568578E-02
(PID.TID 0000.0001) %MON dynstat_wvel_max             =   2.3563312344829E-03
(PID.TID 0000.0001) %MON dynstat_wvel_min             =  -1.5145728210483E-03
(PID.TID 0000.0001) %MON dynstat_wvel_mean            =  -7.1547793606209E-06
(PID.TID 0000.0001) %MON dynstat_wvel_sd              =   6.7539548136832E-05
(PID.TID 0000.0001) %MON dynstat_theta_max            =   2.9284017830518E+01
(PID.TID 0000.0001) %MON dynstat_theta_min            =  -2.5066322209531E+00
(PID.TID 0000.0001) %MON dynstat_theta_mean           =   6.5220213568692E+00
(PID.TID 0000.0001) %MON dynstat_theta_sd             =   6.6062835739066E+00
(PID.TID 0000.0001) %MON dynstat_salt_max             =   3.7429666221440E+01
(PID.TID 0000.0001) %MON dynstat_salt_min             =   3.0936670569745E+01
(PID.TID 0000.0001) %MON dynstat_salt_mean            =   3.4714467336461E+01
(PID.TID 0000.0001) %MON dynstat_salt_sd              =   5.0574326111083E-01
(PID.TID 0000.0001) %MON advcfl_uvel_max              =   1.3066788348320E-01
(PID.TID 0000.0001) %MON advcfl_vvel_max              =   1.7882285038828E-01
(PID.TID 0000.0001) %MON advcfl_wvel_max              =   9.9577478901387E-01
(PID.TID 0000.0001) %MON ke_max                       =   1.5422714775688E-01
(PID.TID 0000.0001) %MON ke_mean                      =   6.6778737909298E-04
(PID.TID 0000.0001) // =======================================================
(PID.TID 0000.0001) // End MONITOR dynamic field statistics
(PID.TID 0000.0001) // =======================================================
 cg2d: Sum(rhs),rhsMax =   1.58970059338515E-13  9.72858502446607E+00
(PID.TID 0000.0001)                    cg2d_init_res =    1.25601123228406E+00
(PID.TID 0000.0001)                       cg2d_iters =    40
(PID.TID 0000.0001)                         cg2d_res =    4.56326520246571E-14
(PID.TID 0000.0001) // =======================================================
(PID.TID 0000.0001) // Begin MONITOR dynamic field statistics
(PID.TID 0000.0001) // =======================================================
(PID.TID 0000.0001) %MON time_tsnumber                =                     7
(PID.TID 0000.0001) %MON time_secondsf                =   7.5600000000000E+05
(PID.TID 0000.0001) %MON time_secondsi                =                756000
(PID.TID 0000.0001) %MON dynstat_eta_max              =   1.6031063644455E+00
(PID.TID 0000.0001) %MON dynstat_eta_min              =  -1.7895915355994E+00
(PID.TID 0000.0001) %MON dynstat_eta_mean             =  -1.2208990887344E-01
(PID.TID 0000.0001) %MON dynstat_eta_sd               =   6.1342889480201E-01
(PID.TID 0000.0001) %MON dynstat_uvel_max             =   3.8972702246785E-01
(PID.TID 0000.0001) %MON dynstat_uvel_min             =  -5.6866529498324E-01
(PID.TID 0000.0001) %MON dynstat_uvel_mean            =  -3.9481484853053E-03
(PID.TID 0000.0001) %MON dynstat_uvel_sd              =   2.7992696444172E-02
(PID.TID 0000.0001) %MON dynstat_vvel_max             =   5.6759719245661E-01
(PID.TID 0000.0001) %MON dynstat_vvel_min             =  -8.0310130490392E-01
(PID.TID 0000.0001) %MON dynstat_vvel_mean            =   1.0361590369517E-03
(PID.TID 0000.0001) %MON dynstat_vvel_sd              =   2.9751312062991E-02
(PID.TID 0000.0001) %MON dynstat_wvel_max             =   2.6755961784972E-03
(PID.TID 0000.0001) %MON dynstat_wvel_min             =  -1.5944599210696E-03
(PID.TID 0000.0001) %MON dynstat_wvel_mean            =  -5.6393056913011E-06
(PID.TID 0000.0001) %MON dynstat_wvel_sd              =   6.4139709309233E-05
(PID.TID 0000.0001) %MON dynstat_theta_max            =   2.9255932414188E+01
(PID.TID 0000.0001) %MON dynstat_theta_min            =  -2.7432744180314E+00
(PID.TID 0000.0001) %MON dynstat_theta_mean           =   6.5144296014812E+00
(PID.TID 0000.0001) %MON dynstat_theta_sd             =   6.5840213439890E+00
(PID.TID 0000.0001) %MON dynstat_salt_max             =   3.7430010729349E+01
(PID.TID 0000.0001) %MON dynstat_salt_min             =   3.0946249301999E+01
(PID.TID 0000.0001) %MON dynstat_salt_mean            =   3.4713761959277E+01
(PID.TID 0000.0001) %MON dynstat_salt_sd              =   5.0556569819667E-01
(PID.TID 0000.0001) %MON advcfl_uvel_max              =   1.4023364735716E-01
(PID.TID 0000.0001) %MON advcfl_vvel_max              =   1.9503712918304E-01
(PID.TID 0000.0001) %MON advcfl_wvel_max              =   1.0904314568461E+00
(PID.TID 0000.0001) %MON ke_max                       =   1.8297041895375E-01
(PID.TID 0000.0001) %MON ke_mean                      =   7.8296640924044E-04
(PID.TID 0000.0001) // =======================================================
(PID.TID 0000.0001) // End MONITOR dynamic field statistics
(PID.TID 0000.0001) // =======================================================
 cg2d: Sum(rhs),rhsMax =  -2.24181784247435E-13  9.42019568505268E+00
(PID.TID 0000.0001)                    cg2d_init_res =    9.68538695822900E-01
(PID.TID 0000.0001)                       cg2d_iters =    39
(PID.TID 0000.0001)                         cg2d_res =    6.42837625596239E-14
(PID.TID 0000.0001) // =======================================================
(PID.TID 0000.0001) // Begin MONITOR dynamic field statistics
(PID.TID 0000.0001) // =======================================================
(PID.TID 0000.0001) %MON time_tsnumber                =                     8
(PID.TID 0000.0001) %MON time_secondsf                =   8.6400000000000E+05
(PID.TID 0000.0001) %MON time_secondsi                =                864000
(PID.TID 0000.0001) %MON dynstat_eta_max              =   1.4892478955880E+00
(PID.TID 0000.0001) %MON dynstat_eta_min              =  -1.7069610825670E+00
(PID.TID 0000.0001) %MON dynstat_eta_mean             =  -1.2642614106744E-01
(PID.TID 0000.0001) %MON dynstat_eta_sd               =   6.1140017997668E-01
(PID.TID 0000.0001) %MON dynstat_uvel_max             =   4.0296480805575E-01
(PID.TID 0000.0001) %MON dynstat_uvel_min             =  -5.9746691348351E-01
(PID.TID 0000.0001) %MON dynstat_uvel_mean            =  -2.1887807187617E-03
(PID.TID 0000.0001) %MON dynstat_uvel_sd              =   3.1752050488625E-02
(PID.TID 0000.0001) %MON dynstat_vvel_max             =   6.1087919526182E-01
(PID.TID 0000.0001) %MON dynstat_vvel_min             =  -8.5556404994981E-01
(PID.TID 0000.0001) %MON dynstat_vvel_mean            =   4.1353671882898E-04
(PID.TID 0000.0001) %MON dynstat_vvel_sd              =   2.9808572264505E-02
(PID.TID 0000.0001) %MON dynstat_wvel_max             =   2.9363833181689E-03
(PID.TID 0000.0001) %MON dynstat_wvel_min             =  -1.6465136350275E-03
(PID.TID 0000.0001) %MON dynstat_wvel_mean            =  -3.9404131435053E-06
(PID.TID 0000.0001) %MON dynstat_wvel_sd              =   6.2157128028232E-05
(PID.TID 0000.0001) %MON dynstat_theta_max            =   2.9215285866908E+01
(PID.TID 0000.0001) %MON dynstat_theta_min            =  -2.9024780151431E+00
(PID.TID 0000.0001) %MON dynstat_theta_mean           =   6.5097134098340E+00
(PID.TID 0000.0001) %MON dynstat_theta_sd             =   6.5643248403585E+00
(PID.TID 0000.0001) %MON dynstat_salt_max             =   3.7430118520691E+01
(PID.TID 0000.0001) %MON dynstat_salt_min             =   3.0968066959040E+01
(PID.TID 0000.0001) %MON dynstat_salt_mean            =   3.4713673178669E+01
(PID.TID 0000.0001) %MON dynstat_salt_sd              =   5.0506248832415E-01
(PID.TID 0000.0001) %MON advcfl_uvel_max              =   1.4733616626892E-01
(PID.TID 0000.0001) %MON advcfl_vvel_max              =   2.0777796663447E-01
(PID.TID 0000.0001) %MON advcfl_wvel_max              =   1.1670426274197E+00
(PID.TID 0000.0001) %MON ke_max                       =   2.0925709689324E-01
(PID.TID 0000.0001) %MON ke_mean                      =   8.8473825597849E-04
(PID.TID 0000.0001) // =======================================================
(PID.TID 0000.0001) // End MONITOR dynamic field statistics
(PID.TID 0000.0001) // =======================================================
 cg2d: Sum(rhs),rhsMax =   2.36685671062276E-13  1.05337647568229E+01
(PID.TID 0000.0001)                    cg2d_init_res =    8.33682325498693E-01
(PID.TID 0000.0001)                       cg2d_iters =    39
(PID.TID 0000.0001)                         cg2d_res =    7.18379758058115E-14
(PID.TID 0000.0001) // =======================================================
(PID.TID 0000.0001) // Begin MONITOR dynamic field statistics
(PID.TID 0000.0001) // =======================================================
(PID.TID 0000.0001) %MON time_tsnumber                =                     9
(PID.TID 0000.0001) %MON time_secondsf                =   9.7200000000000E+05
(PID.TID 0000.0001) %MON time_secondsi                =                972000
(PID.TID 0000.0001) %MON dynstat_eta_max              =   1.3372477129395E+00
(PID.TID 0000.0001) %MON dynstat_eta_min              =  -1.5906656586247E+00
(PID.TID 0000.0001) %MON dynstat_eta_mean             =  -1.2727919611365E-01
(PID.TID 0000.0001) %MON dynstat_eta_sd               =   5.9712167787029E-01
(PID.TID 0000.0001) %MON dynstat_uvel_max             =   4.1106416504077E-01
(PID.TID 0000.0001) %MON dynstat_uvel_min             =  -6.1052537558899E-01
(PID.TID 0000.0001) %MON dynstat_uvel_mean            =  -1.8129976515994E-04
(PID.TID 0000.0001) %MON dynstat_uvel_sd              =   3.5098244298181E-02
(PID.TID 0000.0001) %MON dynstat_vvel_max             =   6.4242314692547E-01
(PID.TID 0000.0001) %MON dynstat_vvel_min             =  -8.8211918832530E-01
(PID.TID 0000.0001) %MON dynstat_vvel_mean            =   4.3954170103340E-04
(PID.TID 0000.0001) %MON dynstat_vvel_sd              =   2.9038316494824E-02
(PID.TID 0000.0001) %MON dynstat_wvel_max             =   3.1498246308152E-03
(PID.TID 0000.0001) %MON dynstat_wvel_min             =  -1.6984200475696E-03
(PID.TID 0000.0001) %MON dynstat_wvel_mean            =  -2.3359432999597E-06
(PID.TID 0000.0001) %MON dynstat_wvel_sd              =   6.2461072228068E-05
(PID.TID 0000.0001) %MON dynstat_theta_max            =   2.9175135653482E+01
(PID.TID 0000.0001) %MON dynstat_theta_min            =  -2.9888085987572E+00
(PID.TID 0000.0001) %MON dynstat_theta_mean           =   6.5075386607296E+00
(PID.TID 0000.0001) %MON dynstat_theta_sd             =   6.5482748307486E+00
(PID.TID 0000.0001) %MON dynstat_salt_max             =   3.7429675075739E+01
(PID.TID 0000.0001) %MON dynstat_salt_min             =   3.0998337850613E+01
(PID.TID 0000.0001) %MON dynstat_salt_mean            =   3.4714051708248E+01
(PID.TID 0000.0001) %MON dynstat_salt_sd              =   5.0441658629260E-01
(PID.TID 0000.0001) %MON advcfl_uvel_max              =   1.5055640106447E-01
(PID.TID 0000.0001) %MON advcfl_vvel_max              =   2.1422701350090E-01
(PID.TID 0000.0001) %MON advcfl_wvel_max              =   1.2692719881080E+00
(PID.TID 0000.0001) %MON ke_max                       =   2.2677647291040E-01
(PID.TID 0000.0001) %MON ke_mean                      =   9.6697448339851E-04
(PID.TID 0000.0001) // =======================================================
(PID.TID 0000.0001) // End MONITOR dynamic field statistics
(PID.TID 0000.0001) // =======================================================
 cg2d: Sum(rhs),rhsMax =   6.18394224716212E-14  1.28616460718288E+01
(PID.TID 0000.0001)                    cg2d_init_res =    7.47216024518026E-01
(PID.TID 0000.0001)                       cg2d_iters =    39
(PID.TID 0000.0001)                         cg2d_res =    7.94588231594993E-14
(PID.TID 0000.0001) // =======================================================
(PID.TID 0000.0001) // Begin MONITOR dynamic field statistics
(PID.TID 0000.0001) // =======================================================
(PID.TID 0000.0001) %MON time_tsnumber                =                    10
(PID.TID 0000.0001) %MON time_secondsf                =   1.0800000000000E+06
(PID.TID 0000.0001) %MON time_secondsi                =               1080000
(PID.TID 0000.0001) %MON dynstat_eta_max              =   1.5758736186589E+00
(PID.TID 0000.0001) %MON dynstat_eta_min              =  -1.5567951373628E+00
(PID.TID 0000.0001) %MON dynstat_eta_mean             =  -1.2593181538736E-01
(PID.TID 0000.0001) %MON dynstat_eta_sd               =   5.7796814179549E-01
(PID.TID 0000.0001) %MON dynstat_uvel_max             =   4.1228117197602E-01
(PID.TID 0000.0001) %MON dynstat_uvel_min             =  -6.0747023825843E-01
(PID.TID 0000.0001) %MON dynstat_uvel_mean            =   1.7732830920147E-03
(PID.TID 0000.0001) %MON dynstat_uvel_sd              =   3.7720618360731E-02
(PID.TID 0000.0001) %MON dynstat_vvel_max             =   6.6065551269894E-01
(PID.TID 0000.0001) %MON dynstat_vvel_min             =  -8.8020247596137E-01
(PID.TID 0000.0001) %MON dynstat_vvel_mean            =   1.1253084974996E-03
(PID.TID 0000.0001) %MON dynstat_vvel_sd              =   2.7734748227187E-02
(PID.TID 0000.0001) %MON dynstat_wvel_max             =   3.2669386281959E-03
(PID.TID 0000.0001) %MON dynstat_wvel_min             =  -1.6693299178971E-03
(PID.TID 0000.0001) %MON dynstat_wvel_mean            =  -1.0063823500528E-06
(PID.TID 0000.0001) %MON dynstat_wvel_sd              =   6.2212748072839E-05
(PID.TID 0000.0001) %MON dynstat_theta_max            =   2.9146135375989E+01
(PID.TID 0000.0001) %MON dynstat_theta_min            =  -3.0103927451472E+00
(PID.TID 0000.0001) %MON dynstat_theta_mean           =   6.5073399964856E+00
(PID.TID 0000.0001) %MON dynstat_theta_sd             =   6.5365137586792E+00
(PID.TID 0000.0001) %MON dynstat_salt_max             =   3.7428864460779E+01
(PID.TID 0000.0001) %MON dynstat_salt_min             =   3.1033447860230E+01
(PID.TID 0000.0001) %MON dynstat_salt_mean            =   3.4714724415346E+01
(PID.TID 0000.0001) %MON dynstat_salt_sd              =   5.0376765088063E-01
(PID.TID 0000.0001) %MON advcfl_uvel_max              =   1.4980299997807E-01
(PID.TID 0000.0001) %MON advcfl_vvel_max              =   2.1376153041097E-01
(PID.TID 0000.0001) %MON advcfl_wvel_max              =   1.3090825451858E+00
(PID.TID 0000.0001) %MON ke_max                       =   2.3527560431539E-01
(PID.TID 0000.0001) %MON ke_mean                      =   1.0248236216331E-03
(PID.TID 0000.0001) // =======================================================
(PID.TID 0000.0001) // End MONITOR dynamic field statistics
(PID.TID 0000.0001) // =======================================================
 cg2d: Sum(rhs),rhsMax =   4.14390743941340E-14  1.31228214175497E+01
(PID.TID 0000.0001)                    cg2d_init_res =    6.71742573265140E-01
(PID.TID 0000.0001)                       cg2d_iters =    39
(PID.TID 0000.0001)                         cg2d_res =    7.57087997201943E-14
(PID.TID 0000.0001) // =======================================================
(PID.TID 0000.0001) // Begin MONITOR dynamic field statistics
(PID.TID 0000.0001) // =======================================================
(PID.TID 0000.0001) %MON time_tsnumber                =                    11
(PID.TID 0000.0001) %MON time_secondsf                =   1.1880000000000E+06
(PID.TID 0000.0001) %MON time_secondsi                =               1188000
(PID.TID 0000.0001) %MON dynstat_eta_max              =   1.7665658248975E+00
(PID.TID 0000.0001) %MON dynstat_eta_min              =  -1.4747593965286E+00
(PID.TID 0000.0001) %MON dynstat_eta_mean             =  -1.2361935508168E-01
(PID.TID 0000.0001) %MON dynstat_eta_sd               =   5.5933072064335E-01
(PID.TID 0000.0001) %MON dynstat_uvel_max             =   4.0502389452525E-01
(PID.TID 0000.0001) %MON dynstat_uvel_min             =  -5.9298225823426E-01
(PID.TID 0000.0001) %MON dynstat_uvel_mean            =   3.4053773223465E-03
(PID.TID 0000.0001) %MON dynstat_uvel_sd              =   3.9338869869625E-02
(PID.TID 0000.0001) %MON dynstat_vvel_max             =   6.6929917709045E-01
(PID.TID 0000.0001) %MON dynstat_vvel_min             =  -8.5591092918094E-01
(PID.TID 0000.0001) %MON dynstat_vvel_mean            =   2.3687576195585E-03
(PID.TID 0000.0001) %MON dynstat_vvel_sd              =   2.6430552656126E-02
(PID.TID 0000.0001) %MON dynstat_wvel_max             =   3.2852279925431E-03
(PID.TID 0000.0001) %MON dynstat_wvel_min             =  -1.5379708532609E-03
(PID.TID 0000.0001) %MON dynstat_wvel_mean            =  -3.5204925051554E-08
(PID.TID 0000.0001) %MON dynstat_wvel_sd              =   6.1081911689479E-05
(PID.TID 0000.0001) %MON dynstat_theta_max            =   2.9135945488611E+01
(PID.TID 0000.0001) %MON dynstat_theta_min            =  -2.9782218624395E+00
(PID.TID 0000.0001) %MON dynstat_theta_mean           =   6.5083143865553E+00
(PID.TID 0000.0001) %MON dynstat_theta_sd             =   6.5292265232266E+00
(PID.TID 0000.0001) %MON dynstat_salt_max             =   3.7427952233800E+01
(PID.TID 0000.0001) %MON dynstat_salt_min             =   3.1069240479913E+01
(PID.TID 0000.0001) %MON dynstat_salt_mean            =   3.4715514069224E+01
(PID.TID 0000.0001) %MON dynstat_salt_sd              =   5.0322013468103E-01
(PID.TID 0000.0001) %MON advcfl_uvel_max              =   1.4623024408888E-01
(PID.TID 0000.0001) %MON advcfl_vvel_max              =   2.0786220797364E-01
(PID.TID 0000.0001) %MON advcfl_wvel_max              =   1.2825386034315E+00
(PID.TID 0000.0001) %MON ke_max                       =   2.3632823112155E-01
(PID.TID 0000.0001) %MON ke_mean                      =   1.0570514110791E-03
(PID.TID 0000.0001) // =======================================================
(PID.TID 0000.0001) // End MONITOR dynamic field statistics
(PID.TID 0000.0001) // =======================================================
 cg2d: Sum(rhs),rhsMax =   2.20934381900406E-13  1.35051132597682E+01
(PID.TID 0000.0001)                    cg2d_init_res =    6.47871719767342E-01
(PID.TID 0000.0001)                       cg2d_iters =    39
(PID.TID 0000.0001)                         cg2d_res =    7.09414240004630E-14
(PID.TID 0000.0001) // =======================================================
(PID.TID 0000.0001) // Begin MONITOR dynamic field statistics
(PID.TID 0000.0001) // =======================================================
(PID.TID 0000.0001) %MON time_tsnumber                =                    12
(PID.TID 0000.0001) %MON time_secondsf                =   1.2960000000000E+06
(PID.TID 0000.0001) %MON time_secondsi                =               1296000
(PID.TID 0000.0001) %MON dynstat_eta_max              =   1.8581584930179E+00
(PID.TID 0000.0001) %MON dynstat_eta_min              =  -1.4345989395739E+00
(PID.TID 0000.0001) %MON dynstat_eta_mean             =  -1.2135547579781E-01
(PID.TID 0000.0001) %MON dynstat_eta_sd               =   5.4481256053553E-01
(PID.TID 0000.0001) %MON dynstat_uvel_max             =   3.9081846131819E-01
(PID.TID 0000.0001) %MON dynstat_uvel_min             =  -5.6910166943668E-01
(PID.TID 0000.0001) %MON dynstat_uvel_mean            =   4.5126851262113E-03
(PID.TID 0000.0001) %MON dynstat_uvel_sd              =   3.9795572128551E-02
(PID.TID 0000.0001) %MON dynstat_vvel_max             =   6.6959962742877E-01
(PID.TID 0000.0001) %MON dynstat_vvel_min             =  -8.1236033096871E-01
(PID.TID 0000.0001) %MON dynstat_vvel_mean            =   3.9855918538224E-03
(PID.TID 0000.0001) %MON dynstat_vvel_sd              =   2.5714769178889E-02
(PID.TID 0000.0001) %MON dynstat_wvel_max             =   3.2343691056632E-03
(PID.TID 0000.0001) %MON dynstat_wvel_min             =  -1.3518379374298E-03
(PID.TID 0000.0001) %MON dynstat_wvel_mean            =   5.7253020215355E-07
(PID.TID 0000.0001) %MON dynstat_wvel_sd              =   5.9826244538944E-05
(PID.TID 0000.0001) %MON dynstat_theta_max            =   2.9143425004664E+01
(PID.TID 0000.0001) %MON dynstat_theta_min            =  -2.9069428475524E+00
(PID.TID 0000.0001) %MON dynstat_theta_mean           =   6.5096196693133E+00
(PID.TID 0000.0001) %MON dynstat_theta_sd             =   6.5260490833310E+00
(PID.TID 0000.0001) %MON dynstat_salt_max             =   3.7426956495038E+01
(PID.TID 0000.0001) %MON dynstat_salt_min             =   3.1100971848272E+01
(PID.TID 0000.0001) %MON dynstat_salt_mean            =   3.4716269689863E+01
(PID.TID 0000.0001) %MON dynstat_salt_sd              =   5.0281809291111E-01
(PID.TID 0000.0001) %MON advcfl_uvel_max              =   1.4034125790023E-01
(PID.TID 0000.0001) %MON advcfl_vvel_max              =   1.9728572951737E-01
(PID.TID 0000.0001) %MON advcfl_wvel_max              =   1.2293338165698E+00
(PID.TID 0000.0001) %MON ke_max                       =   2.3066911814491E-01
(PID.TID 0000.0001) %MON ke_mean                      =   1.0657673371308E-03
(PID.TID 0000.0001) // =======================================================
(PID.TID 0000.0001) // End MONITOR dynamic field statistics
(PID.TID 0000.0001) // =======================================================
 cg2d: Sum(rhs),rhsMax =   8.62504512255668E-14  1.36575632570632E+01
(PID.TID 0000.0001)                    cg2d_init_res =    5.52577680508844E-01
(PID.TID 0000.0001)                       cg2d_iters =    39
(PID.TID 0000.0001)                         cg2d_res =    5.63363245255574E-14
(PID.TID 0000.0001) // =======================================================
(PID.TID 0000.0001) // Begin MONITOR dynamic field statistics
(PID.TID 0000.0001) // =======================================================
(PID.TID 0000.0001) %MON time_tsnumber                =                    13
(PID.TID 0000.0001) %MON time_secondsf                =   1.4040000000000E+06
(PID.TID 0000.0001) %MON time_secondsi                =               1404000
(PID.TID 0000.0001) %MON dynstat_eta_max              =   1.9107946784743E+00
(PID.TID 0000.0001) %MON dynstat_eta_min              =  -1.4070824802091E+00
(PID.TID 0000.0001) %MON dynstat_eta_mean             =  -1.1984535794726E-01
(PID.TID 0000.0001) %MON dynstat_eta_sd               =   5.3670765257216E-01
(PID.TID 0000.0001) %MON dynstat_uvel_max             =   3.7137328750005E-01
(PID.TID 0000.0001) %MON dynstat_uvel_min             =  -5.3714334636251E-01
(PID.TID 0000.0001) %MON dynstat_uvel_mean            =   4.9785968040754E-03
(PID.TID 0000.0001) %MON dynstat_uvel_sd              =   3.9083922176334E-02
(PID.TID 0000.0001) %MON dynstat_vvel_max             =   6.6097118114581E-01
(PID.TID 0000.0001) %MON dynstat_vvel_min             =  -7.5103314229751E-01
(PID.TID 0000.0001) %MON dynstat_vvel_mean            =   5.7435939144252E-03
(PID.TID 0000.0001) %MON dynstat_vvel_sd              =   2.5898952876714E-02
(PID.TID 0000.0001) %MON dynstat_wvel_max             =   3.1225251901421E-03
(PID.TID 0000.0001) %MON dynstat_wvel_min             =  -1.1196599004292E-03
(PID.TID 0000.0001) %MON dynstat_wvel_mean            =   8.6384294173016E-07
(PID.TID 0000.0001) %MON dynstat_wvel_sd              =   5.8524069636129E-05
(PID.TID 0000.0001) %MON dynstat_theta_max            =   2.9164720602978E+01
(PID.TID 0000.0001) %MON dynstat_theta_min            =  -2.8147532088615E+00
(PID.TID 0000.0001) %MON dynstat_theta_mean           =   6.5105744800393E+00
(PID.TID 0000.0001) %MON dynstat_theta_sd             =   6.5262489916226E+00
(PID.TID 0000.0001) %MON dynstat_salt_max             =   3.7425699745525E+01
(PID.TID 0000.0001) %MON dynstat_salt_min             =   3.1124041193563E+01
(PID.TID 0000.0001) %MON dynstat_salt_mean            =   3.4716884297002E+01
(PID.TID 0000.0001) %MON dynstat_salt_sd              =   5.0253631775648E-01
(PID.TID 0000.0001) %MON advcfl_uvel_max              =   1.3246029127954E-01
(PID.TID 0000.0001) %MON advcfl_vvel_max              =   1.8239211803117E-01
(PID.TID 0000.0001) %MON advcfl_wvel_max              =   1.1500903415154E+00
(PID.TID 0000.0001) %MON ke_max                       =   2.1867240892191E-01
(PID.TID 0000.0001) %MON ke_mean                      =   1.0536471454600E-03
(PID.TID 0000.0001) // =======================================================
(PID.TID 0000.0001) // End MONITOR dynamic field statistics
(PID.TID 0000.0001) // =======================================================
 cg2d: Sum(rhs),rhsMax =   8.13238365537927E-14  1.35817718950937E+01
(PID.TID 0000.0001)                    cg2d_init_res =    5.80760366356908E-01
(PID.TID 0000.0001)                       cg2d_iters =    38
(PID.TID 0000.0001)                         cg2d_res =    9.84181447469783E-14
(PID.TID 0000.0001) // =======================================================
(PID.TID 0000.0001) // Begin MONITOR dynamic field statistics
(PID.TID 0000.0001) // =======================================================
(PID.TID 0000.0001) %MON time_tsnumber                =                    14
(PID.TID 0000.0001) %MON time_secondsf                =   1.5120000000000E+06
(PID.TID 0000.0001) %MON time_secondsi                =               1512000
(PID.TID 0000.0001) %MON dynstat_eta_max              =   1.9277207512238E+00
(PID.TID 0000.0001) %MON dynstat_eta_min              =  -1.3849009349741E+00
(PID.TID 0000.0001) %MON dynstat_eta_mean             =  -1.1946958972888E-01
(PID.TID 0000.0001) %MON dynstat_eta_sd               =   5.3613350450727E-01
(PID.TID 0000.0001) %MON dynstat_uvel_max             =   3.4749885303203E-01
(PID.TID 0000.0001) %MON dynstat_uvel_min             =  -5.0023967490838E-01
(PID.TID 0000.0001) %MON dynstat_uvel_mean            =   4.7744197015380E-03
(PID.TID 0000.0001) %MON dynstat_uvel_sd              =   3.7346707950262E-02
(PID.TID 0000.0001) %MON dynstat_vvel_max             =   6.4478080821818E-01
(PID.TID 0000.0001) %MON dynstat_vvel_min             =  -6.7602321572952E-01
(PID.TID 0000.0001) %MON dynstat_vvel_mean            =   7.4002755230895E-03
(PID.TID 0000.0001) %MON dynstat_vvel_sd              =   2.6816164543258E-02
(PID.TID 0000.0001) %MON dynstat_wvel_max             =   2.9454314227501E-03
(PID.TID 0000.0001) %MON dynstat_wvel_min             =  -8.6780651871246E-04
(PID.TID 0000.0001) %MON dynstat_wvel_mean            =   9.1209888315725E-07
(PID.TID 0000.0001) %MON dynstat_wvel_sd              =   5.7104116108079E-05
(PID.TID 0000.0001) %MON dynstat_theta_max            =   2.9195426229555E+01
(PID.TID 0000.0001) %MON dynstat_theta_min            =  -2.7216007907372E+00
(PID.TID 0000.0001) %MON dynstat_theta_mean           =   6.5106830869215E+00
(PID.TID 0000.0001) %MON dynstat_theta_sd             =   6.5289146132296E+00
(PID.TID 0000.0001) %MON dynstat_salt_max             =   3.7424009489531E+01
(PID.TID 0000.0001) %MON dynstat_salt_min             =   3.1134978949186E+01
(PID.TID 0000.0001) %MON dynstat_salt_mean            =   3.4717287993755E+01
(PID.TID 0000.0001) %MON dynstat_salt_sd              =   5.0235377054067E-01
(PID.TID 0000.0001) %MON advcfl_uvel_max              =   1.2335979491632E-01
(PID.TID 0000.0001) %MON advcfl_vvel_max              =   1.6417558588421E-01
(PID.TID 0000.0001) %MON advcfl_wvel_max              =   1.0376075154069E+00
(PID.TID 0000.0001) %MON ke_max                       =   2.0217909300535E-01
(PID.TID 0000.0001) %MON ke_mean                      =   1.0224174942584E-03
(PID.TID 0000.0001) // =======================================================
(PID.TID 0000.0001) // End MONITOR dynamic field statistics
(PID.TID 0000.0001) // =======================================================
 cg2d: Sum(rhs),rhsMax =   6.64884813872391E-14  1.27505328471684E+01
(PID.TID 0000.0001)                    cg2d_init_res =    7.10986203603806E-01
(PID.TID 0000.0001)                       cg2d_iters =    39
(PID.TID 0000.0001)                         cg2d_res =    5.99716213557252E-14
(PID.TID 0000.0001) // =======================================================
(PID.TID 0000.0001) // Begin MONITOR dynamic field statistics
(PID.TID 0000.0001) // =======================================================
(PID.TID 0000.0001) %MON time_tsnumber                =                    15
(PID.TID 0000.0001) %MON time_secondsf                =   1.6200000000000E+06
(PID.TID 0000.0001) %MON time_secondsi                =               1620000
(PID.TID 0000.0001) %MON dynstat_eta_max              =   1.8781554673908E+00
(PID.TID 0000.0001) %MON dynstat_eta_min              =  -1.3827071867447E+00
(PID.TID 0000.0001) %MON dynstat_eta_mean             =  -1.2031852664899E-01
(PID.TID 0000.0001) %MON dynstat_eta_sd               =   5.4309802192424E-01
(PID.TID 0000.0001) %MON dynstat_uvel_max             =   3.2124222216413E-01
(PID.TID 0000.0001) %MON dynstat_uvel_min             =  -4.6081299104621E-01
(PID.TID 0000.0001) %MON dynstat_uvel_mean            =   3.9517525169117E-03
(PID.TID 0000.0001) %MON dynstat_uvel_sd              =   3.4859999978906E-02
(PID.TID 0000.0001) %MON dynstat_vvel_max             =   6.2338918033771E-01
(PID.TID 0000.0001) %MON dynstat_vvel_min             =  -5.9239088423538E-01
(PID.TID 0000.0001) %MON dynstat_vvel_mean            =   8.7367619039592E-03
(PID.TID 0000.0001) %MON dynstat_vvel_sd              =   2.7969784805532E-02
(PID.TID 0000.0001) %MON dynstat_wvel_max             =   2.7104633581259E-03
(PID.TID 0000.0001) %MON dynstat_wvel_min             =  -7.9449450241936E-04
(PID.TID 0000.0001) %MON dynstat_wvel_mean            =   7.9687392318075E-07
(PID.TID 0000.0001) %MON dynstat_wvel_sd              =   5.5266071209462E-05
(PID.TID 0000.0001) %MON dynstat_theta_max            =   2.9226283711696E+01
(PID.TID 0000.0001) %MON dynstat_theta_min            =  -2.6466468329638E+00
(PID.TID 0000.0001) %MON dynstat_theta_mean           =   6.5096972627921E+00
(PID.TID 0000.0001) %MON dynstat_theta_sd             =   6.5329395085379E+00
(PID.TID 0000.0001) %MON dynstat_salt_max             =   3.7421833907923E+01
(PID.TID 0000.0001) %MON dynstat_salt_min             =   3.1132371825404E+01
(PID.TID 0000.0001) %MON dynstat_salt_mean            =   3.4717461382007E+01
(PID.TID 0000.0001) %MON dynstat_salt_sd              =   5.0221323397999E-01
(PID.TID 0000.0001) %MON advcfl_uvel_max              =   1.1363712020772E-01
(PID.TID 0000.0001) %MON advcfl_vvel_max              =   1.5139314972397E-01
(PID.TID 0000.0001) %MON advcfl_wvel_max              =   9.0000552561398E-01
(PID.TID 0000.0001) %MON ke_max                       =   1.8325623761078E-01
(PID.TID 0000.0001) %MON ke_mean                      =   9.7345323456871E-04
(PID.TID 0000.0001) // =======================================================
(PID.TID 0000.0001) // End MONITOR dynamic field statistics
(PID.TID 0000.0001) // =======================================================
 cg2d: Sum(rhs),rhsMax =  -2.75335310107039E-14  1.13851439385313E+01
(PID.TID 0000.0001)                    cg2d_init_res =    7.45501536014241E-01
(PID.TID 0000.0001)                       cg2d_iters =    39
(PID.TID 0000.0001)                         cg2d_res =    6.84236866171845E-14
(PID.TID 0000.0001) // =======================================================
(PID.TID 0000.0001) // Begin MONITOR dynamic field statistics
(PID.TID 0000.0001) // =======================================================
(PID.TID 0000.0001) %MON time_tsnumber                =                    16
(PID.TID 0000.0001) %MON time_secondsf                =   1.7280000000000E+06
(PID.TID 0000.0001) %MON time_secondsi                =               1728000
(PID.TID 0000.0001) %MON dynstat_eta_max              =   1.7725798558136E+00
(PID.TID 0000.0001) %MON dynstat_eta_min              =  -1.4096478387948E+00
(PID.TID 0000.0001) %MON dynstat_eta_mean             =  -1.2225845957106E-01
(PID.TID 0000.0001) %MON dynstat_eta_sd               =   5.5645097138337E-01
(PID.TID 0000.0001) %MON dynstat_uvel_max             =   2.9413678013007E-01
(PID.TID 0000.0001) %MON dynstat_uvel_min             =  -4.1990775564062E-01
(PID.TID 0000.0001) %MON dynstat_uvel_mean            =   2.6284213119540E-03
(PID.TID 0000.0001) %MON dynstat_uvel_sd              =   3.1999393044135E-02
(PID.TID 0000.0001) %MON dynstat_vvel_max             =   5.9833792585953E-01
(PID.TID 0000.0001) %MON dynstat_vvel_min             =  -5.0378876684908E-01
(PID.TID 0000.0001) %MON dynstat_vvel_mean            =   9.5823930615702E-03
(PID.TID 0000.0001) %MON dynstat_vvel_sd              =   2.8854321488064E-02
(PID.TID 0000.0001) %MON dynstat_wvel_max             =   2.4381219008187E-03
(PID.TID 0000.0001) %MON dynstat_wvel_min             =  -8.1450083035322E-04
(PID.TID 0000.0001) %MON dynstat_wvel_mean            =   5.9018264433382E-07
(PID.TID 0000.0001) %MON dynstat_wvel_sd              =   5.2820658078904E-05
(PID.TID 0000.0001) %MON dynstat_theta_max            =   2.9250265745285E+01
(PID.TID 0000.0001) %MON dynstat_theta_min            =  -2.6060198915348E+00
(PID.TID 0000.0001) %MON dynstat_theta_mean           =   6.5076227900417E+00
(PID.TID 0000.0001) %MON dynstat_theta_sd             =   6.5373521430116E+00
(PID.TID 0000.0001) %MON dynstat_salt_max             =   3.7419280545692E+01
(PID.TID 0000.0001) %MON dynstat_salt_min             =   3.1117368687936E+01
(PID.TID 0000.0001) %MON dynstat_salt_mean            =   3.4717423547574E+01
(PID.TID 0000.0001) %MON dynstat_salt_sd              =   5.0206880180365E-01
(PID.TID 0000.0001) %MON advcfl_uvel_max              =   1.0354983264590E-01
(PID.TID 0000.0001) %MON advcfl_vvel_max              =   1.4530932850986E-01
(PID.TID 0000.0001) %MON advcfl_wvel_max              =   7.6387701724758E-01
(PID.TID 0000.0001) %MON ke_max                       =   1.6328159183745E-01
(PID.TID 0000.0001) %MON ke_mean                      =   9.0953281960894E-04
(PID.TID 0000.0001) // =======================================================
(PID.TID 0000.0001) // End MONITOR dynamic field statistics
(PID.TID 0000.0001) // =======================================================
 cg2d: Sum(rhs),rhsMax =   5.30409050014669E-14  1.21149812674628E+01
(PID.TID 0000.0001)                    cg2d_init_res =    6.13879820946722E-01
(PID.TID 0000.0001)                       cg2d_iters =    39
(PID.TID 0000.0001)                         cg2d_res =    6.45267905790998E-14
(PID.TID 0000.0001) // =======================================================
(PID.TID 0000.0001) // Begin MONITOR dynamic field statistics
(PID.TID 0000.0001) // =======================================================
(PID.TID 0000.0001) %MON time_tsnumber                =                    17
(PID.TID 0000.0001) %MON time_secondsf                =   1.8360000000000E+06
(PID.TID 0000.0001) %MON time_secondsi                =               1836000
(PID.TID 0000.0001) %MON dynstat_eta_max              =   1.6341219097526E+00
(PID.TID 0000.0001) %MON dynstat_eta_min              =  -1.4774165045088E+00
(PID.TID 0000.0001) %MON dynstat_eta_mean             =  -1.2501214018311E-01
(PID.TID 0000.0001) %MON dynstat_eta_sd               =   5.7411138749969E-01
(PID.TID 0000.0001) %MON dynstat_uvel_max             =   2.6865336258696E-01
(PID.TID 0000.0001) %MON dynstat_uvel_min             =  -3.8619336700815E-01
(PID.TID 0000.0001) %MON dynstat_uvel_mean            =   9.6928330612792E-04
(PID.TID 0000.0001) %MON dynstat_uvel_sd              =   2.9175671985067E-02
(PID.TID 0000.0001) %MON dynstat_vvel_max             =   5.7073339969391E-01
(PID.TID 0000.0001) %MON dynstat_vvel_min             =  -4.1243619391041E-01
(PID.TID 0000.0001) %MON dynstat_vvel_mean            =   9.8299921241045E-03
(PID.TID 0000.0001) %MON dynstat_vvel_sd              =   2.9151401833252E-02
(PID.TID 0000.0001) %MON dynstat_wvel_max             =   2.1479486537009E-03
(PID.TID 0000.0001) %MON dynstat_wvel_min             =  -8.2352604686807E-04
(PID.TID 0000.0001) %MON dynstat_wvel_mean            =   3.4829932850217E-07
(PID.TID 0000.0001) %MON dynstat_wvel_sd              =   4.9989630829939E-05
(PID.TID 0000.0001) %MON dynstat_theta_max            =   2.9266711776055E+01
(PID.TID 0000.0001) %MON dynstat_theta_min            =  -2.6107652985947E+00
(PID.TID 0000.0001) %MON dynstat_theta_mean           =   6.5046411273680E+00
(PID.TID 0000.0001) %MON dynstat_theta_sd             =   6.5414109203298E+00
(PID.TID 0000.0001) %MON dynstat_salt_max             =   3.7416606481347E+01
(PID.TID 0000.0001) %MON dynstat_salt_min             =   3.1093482029052E+01
(PID.TID 0000.0001) %MON dynstat_salt_mean            =   3.4717214954126E+01
(PID.TID 0000.0001) %MON dynstat_salt_sd              =   5.0190036081753E-01
(PID.TID 0000.0001) %MON advcfl_uvel_max              =   9.4305587642376E-02
(PID.TID 0000.0001) %MON advcfl_vvel_max              =   1.3860543262160E-01
(PID.TID 0000.0001) %MON advcfl_wvel_max              =   6.3796807005047E-01
(PID.TID 0000.0001) %MON ke_max                       =   1.4328361917887E-01
(PID.TID 0000.0001) %MON ke_mean                      =   8.3554621503018E-04
(PID.TID 0000.0001) // =======================================================
(PID.TID 0000.0001) // End MONITOR dynamic field statistics
(PID.TID 0000.0001) // =======================================================
 cg2d: Sum(rhs),rhsMax =   1.01169073118967E-14  1.39887261596307E+01
(PID.TID 0000.0001)                    cg2d_init_res =    5.07759309863264E-01
(PID.TID 0000.0001)                       cg2d_iters =    39
(PID.TID 0000.0001)                         cg2d_res =    5.69472731486694E-14
(PID.TID 0000.0001) // =======================================================
(PID.TID 0000.0001) // Begin MONITOR dynamic field statistics
(PID.TID 0000.0001) // =======================================================
(PID.TID 0000.0001) %MON time_tsnumber                =                    18
(PID.TID 0000.0001) %MON time_secondsf                =   1.9440000000000E+06
(PID.TID 0000.0001) %MON time_secondsi                =               1944000
(PID.TID 0000.0001) %MON dynstat_eta_max              =   1.6236634204173E+00
(PID.TID 0000.0001) %MON dynstat_eta_min              =  -1.5568815655736E+00
(PID.TID 0000.0001) %MON dynstat_eta_mean             =  -1.2823808072064E-01
(PID.TID 0000.0001) %MON dynstat_eta_sd               =   5.9367062188143E-01
(PID.TID 0000.0001) %MON dynstat_uvel_max             =   2.5546047990255E-01
(PID.TID 0000.0001) %MON dynstat_uvel_min             =  -4.0000482708546E-01
(PID.TID 0000.0001) %MON dynstat_uvel_mean            =  -8.3598442123227E-04
(PID.TID 0000.0001) %MON dynstat_uvel_sd              =   2.6744787306149E-02
(PID.TID 0000.0001) %MON dynstat_vvel_max             =   5.4174631114707E-01
(PID.TID 0000.0001) %MON dynstat_vvel_min             =  -3.3413023094111E-01
(PID.TID 0000.0001) %MON dynstat_vvel_mean            =   9.4430464325419E-03
(PID.TID 0000.0001) %MON dynstat_vvel_sd              =   2.8767342196004E-02
(PID.TID 0000.0001) %MON dynstat_wvel_max             =   1.8492136293601E-03
(PID.TID 0000.0001) %MON dynstat_wvel_min             =  -8.1894444762698E-04
(PID.TID 0000.0001) %MON dynstat_wvel_mean            =   1.0856634849204E-07
(PID.TID 0000.0001) %MON dynstat_wvel_sd              =   4.6900449523841E-05
(PID.TID 0000.0001) %MON dynstat_theta_max            =   2.9276541974398E+01
(PID.TID 0000.0001) %MON dynstat_theta_min            =  -2.6652382343454E+00
(PID.TID 0000.0001) %MON dynstat_theta_mean           =   6.5010472208844E+00
(PID.TID 0000.0001) %MON dynstat_theta_sd             =   6.5445295566228E+00
(PID.TID 0000.0001) %MON dynstat_salt_max             =   3.7414146457297E+01
(PID.TID 0000.0001) %MON dynstat_salt_min             =   3.1065728188568E+01
(PID.TID 0000.0001) %MON dynstat_salt_mean            =   3.4716888509579E+01
(PID.TID 0000.0001) %MON dynstat_salt_sd              =   5.0170064497734E-01
(PID.TID 0000.0001) %MON advcfl_uvel_max              =   9.7678244891464E-02
(PID.TID 0000.0001) %MON advcfl_vvel_max              =   1.3156577461205E-01
(PID.TID 0000.0001) %MON advcfl_wvel_max              =   5.9261126135814E-01
(PID.TID 0000.0001) %MON ke_max                       =   1.2408683009680E-01
(PID.TID 0000.0001) %MON ke_mean                      =   7.5782277034385E-04
(PID.TID 0000.0001) // =======================================================
(PID.TID 0000.0001) // End MONITOR dynamic field statistics
(PID.TID 0000.0001) // =======================================================
 cg2d: Sum(rhs),rhsMax =   8.91370310895923E-14  1.54307750871102E+01
(PID.TID 0000.0001)                    cg2d_init_res =    4.35712045770784E-01
(PID.TID 0000.0001)                       cg2d_iters =    38
(PID.TID 0000.0001)                         cg2d_res =    9.88484464084819E-14
(PID.TID 0000.0001) // =======================================================
(PID.TID 0000.0001) // Begin MONITOR dynamic field statistics
(PID.TID 0000.0001) // =======================================================
(PID.TID 0000.0001) %MON time_tsnumber                =                    19
(PID.TID 0000.0001) %MON time_secondsf                =   2.0520000000000E+06
(PID.TID 0000.0001) %MON time_secondsi                =               2052000
(PID.TID 0000.0001) %MON dynstat_eta_max              =   1.6262353676488E+00
(PID.TID 0000.0001) %MON dynstat_eta_min              =  -1.6776420165475E+00
(PID.TID 0000.0001) %MON dynstat_eta_mean             =  -1.3159729044801E-01
(PID.TID 0000.0001) %MON dynstat_eta_sd               =   6.1293018289530E-01
(PID.TID 0000.0001) %MON dynstat_uvel_max             =   2.3910548199058E-01
(PID.TID 0000.0001) %MON dynstat_uvel_min             =  -4.1061091936740E-01
(PID.TID 0000.0001) %MON dynstat_uvel_mean            =  -2.5947980284241E-03
(PID.TID 0000.0001) %MON dynstat_uvel_sd              =   2.4915148241754E-02
(PID.TID 0000.0001) %MON dynstat_vvel_max             =   5.1229869246721E-01
(PID.TID 0000.0001) %MON dynstat_vvel_min             =  -3.1508731241101E-01
(PID.TID 0000.0001) %MON dynstat_vvel_mean            =   8.4540824455188E-03
(PID.TID 0000.0001) %MON dynstat_vvel_sd              =   2.7809456453396E-02
(PID.TID 0000.0001) %MON dynstat_wvel_max             =   1.5466182641891E-03
(PID.TID 0000.0001) %MON dynstat_wvel_min             =  -7.7970431176377E-04
(PID.TID 0000.0001) %MON dynstat_wvel_mean            =  -1.0954832037112E-07
(PID.TID 0000.0001) %MON dynstat_wvel_sd              =   4.3732389216350E-05
(PID.TID 0000.0001) %MON dynstat_theta_max            =   2.9279800844116E+01
(PID.TID 0000.0001) %MON dynstat_theta_min            =  -2.7664342272508E+00
(PID.TID 0000.0001) %MON dynstat_theta_mean           =   6.4971902568566E+00
(PID.TID 0000.0001) %MON dynstat_theta_sd             =   6.5463486090959E+00
(PID.TID 0000.0001) %MON dynstat_salt_max             =   3.7412202601761E+01
(PID.TID 0000.0001) %MON dynstat_salt_min             =   3.1039431098682E+01
(PID.TID 0000.0001) %MON dynstat_salt_mean            =   3.4716497909758E+01
(PID.TID 0000.0001) %MON dynstat_salt_sd              =   5.0147865096813E-01
(PID.TID 0000.0001) %MON advcfl_uvel_max              =   1.0026817483507E-01
(PID.TID 0000.0001) %MON advcfl_vvel_max              =   1.2441427457895E-01
(PID.TID 0000.0001) %MON advcfl_wvel_max              =   6.3034760788124E-01
(PID.TID 0000.0001) %MON ke_max                       =   1.0619097247983E-01
(PID.TID 0000.0001) %MON ke_mean                      =   6.8317393621866E-04
(PID.TID 0000.0001) // =======================================================
(PID.TID 0000.0001) // End MONITOR dynamic field statistics
(PID.TID 0000.0001) // =======================================================
 cg2d: Sum(rhs),rhsMax =  -5.14727149791838E-14  1.56839815719623E+01
(PID.TID 0000.0001)                    cg2d_init_res =    3.99906719833408E-01
(PID.TID 0000.0001)                       cg2d_iters =    38
(PID.TID 0000.0001)                         cg2d_res =    8.79069229734064E-14
(PID.TID 0000.0001) // =======================================================
(PID.TID 0000.0001) // Begin MONITOR dynamic field statistics
(PID.TID 0000.0001) // =======================================================
(PID.TID 0000.0001) %MON time_tsnumber                =                    20
(PID.TID 0000.0001) %MON time_secondsf                =   2.1600000000000E+06
(PID.TID 0000.0001) %MON time_secondsi                =               2160000
(PID.TID 0000.0001) %MON dynstat_eta_max              =   1.5993339555899E+00
(PID.TID 0000.0001) %MON dynstat_eta_min              =  -1.8037414892044E+00
(PID.TID 0000.0001) %MON dynstat_eta_mean             =  -1.3480125823684E-01
(PID.TID 0000.0001) %MON dynstat_eta_sd               =   6.3024676621204E-01
(PID.TID 0000.0001) %MON dynstat_uvel_max             =   2.3183389057032E-01
(PID.TID 0000.0001) %MON dynstat_uvel_min             =  -4.1862023736576E-01
(PID.TID 0000.0001) %MON dynstat_uvel_mean            =  -4.1308508444089E-03
(PID.TID 0000.0001) %MON dynstat_uvel_sd              =   2.3697040432028E-02
(PID.TID 0000.0001) %MON dynstat_vvel_max             =   4.8295696018135E-01
(PID.TID 0000.0001) %MON dynstat_vvel_min             =  -3.6247926554914E-01
(PID.TID 0000.0001) %MON dynstat_vvel_mean            =   6.9549818955377E-03
(PID.TID 0000.0001) %MON dynstat_vvel_sd              =   2.6541663029819E-02
(PID.TID 0000.0001) %MON dynstat_wvel_max             =   1.2446741508823E-03
(PID.TID 0000.0001) %MON dynstat_wvel_min             =  -7.0808215008568E-04
(PID.TID 0000.0001) %MON dynstat_wvel_mean            =  -3.0053267096001E-07
(PID.TID 0000.0001) %MON dynstat_wvel_sd              =   4.0968876848517E-05
(PID.TID 0000.0001) %MON dynstat_theta_max            =   2.9286001240955E+01
(PID.TID 0000.0001) %MON dynstat_theta_min            =  -2.9044950052343E+00
(PID.TID 0000.0001) %MON dynstat_theta_mean           =   6.4934216406494E+00
(PID.TID 0000.0001) %MON dynstat_theta_sd             =   6.5467450792616E+00
(PID.TID 0000.0001) %MON dynstat_salt_max             =   3.7410948915077E+01
(PID.TID 0000.0001) %MON dynstat_salt_min             =   3.1019086444913E+01
(PID.TID 0000.0001) %MON dynstat_salt_mean            =   3.4716089339030E+01
(PID.TID 0000.0001) %MON dynstat_salt_sd              =   5.0125516010776E-01
(PID.TID 0000.0001) %MON advcfl_uvel_max              =   1.0222399154498E-01
(PID.TID 0000.0001) %MON advcfl_vvel_max              =   1.1728848958104E-01
(PID.TID 0000.0001) %MON advcfl_wvel_max              =   6.4399640390857E-01
(PID.TID 0000.0001) %MON ke_max                       =   8.9893284451373E-02
(PID.TID 0000.0001) %MON ke_mean                      =   6.1792874960118E-04
(PID.TID 0000.0001) // =======================================================
(PID.TID 0000.0001) // End MONITOR dynamic field statistics
(PID.TID 0000.0001) // =======================================================
 cg2d: Sum(rhs),rhsMax =  -2.72462608030821E-13  1.50396956209349E+01
(PID.TID 0000.0001)                    cg2d_init_res =    4.06342585985112E-01
(PID.TID 0000.0001)                       cg2d_iters =    38
(PID.TID 0000.0001)                         cg2d_res =    8.30628458755532E-14
(PID.TID 0000.0001) // =======================================================
(PID.TID 0000.0001) // Begin MONITOR dynamic field statistics
(PID.TID 0000.0001) // =======================================================
(PID.TID 0000.0001) %MON time_tsnumber                =                    21
(PID.TID 0000.0001) %MON time_secondsf                =   2.2680000000000E+06
(PID.TID 0000.0001) %MON time_secondsi                =               2268000
(PID.TID 0000.0001) %MON dynstat_eta_max              =   1.5453449048172E+00
(PID.TID 0000.0001) %MON dynstat_eta_min              =  -1.8984381413498E+00
(PID.TID 0000.0001) %MON dynstat_eta_mean             =  -1.3763917724595E-01
(PID.TID 0000.0001) %MON dynstat_eta_sd               =   6.4465653871825E-01
(PID.TID 0000.0001) %MON dynstat_uvel_max             =   2.3570890756837E-01
(PID.TID 0000.0001) %MON dynstat_uvel_min             =  -4.2423389174593E-01
(PID.TID 0000.0001) %MON dynstat_uvel_mean            =  -5.2993218569848E-03
(PID.TID 0000.0001) %MON dynstat_uvel_sd              =   2.2943125979729E-02
(PID.TID 0000.0001) %MON dynstat_vvel_max             =   4.5412602813222E-01
(PID.TID 0000.0001) %MON dynstat_vvel_min             =  -4.1582835222980E-01
(PID.TID 0000.0001) %MON dynstat_vvel_mean            =   5.0819758511264E-03
(PID.TID 0000.0001) %MON dynstat_vvel_sd              =   2.5317504650281E-02
(PID.TID 0000.0001) %MON dynstat_wvel_max             =   1.2009842574773E-03
(PID.TID 0000.0001) %MON dynstat_wvel_min             =  -6.1175968445522E-04
(PID.TID 0000.0001) %MON dynstat_wvel_mean            =  -4.6763560903399E-07
(PID.TID 0000.0001) %MON dynstat_wvel_sd              =   3.9029018832440E-05
(PID.TID 0000.0001) %MON dynstat_theta_max            =   2.9289819942650E+01
(PID.TID 0000.0001) %MON dynstat_theta_min            =  -3.0644650881509E+00
(PID.TID 0000.0001) %MON dynstat_theta_mean           =   6.4900487516500E+00
(PID.TID 0000.0001) %MON dynstat_theta_sd             =   6.5458011915351E+00
(PID.TID 0000.0001) %MON dynstat_salt_max             =   3.7410387195838E+01
(PID.TID 0000.0001) %MON dynstat_salt_min             =   3.1007591575209E+01
(PID.TID 0000.0001) %MON dynstat_salt_mean            =   3.4715695930735E+01
(PID.TID 0000.0001) %MON dynstat_salt_sd              =   5.0105747830877E-01
(PID.TID 0000.0001) %MON advcfl_uvel_max              =   1.0359480477061E-01
(PID.TID 0000.0001) %MON advcfl_vvel_max              =   1.1028675495030E-01
(PID.TID 0000.0001) %MON advcfl_wvel_max              =   6.3895163682031E-01
(PID.TID 0000.0001) %MON ke_max                       =   7.5376289785554E-02
(PID.TID 0000.0001) %MON ke_mean                      =   5.6707057349789E-04
(PID.TID 0000.0001) // =======================================================
(PID.TID 0000.0001) // End MONITOR dynamic field statistics
(PID.TID 0000.0001) // =======================================================
 cg2d: Sum(rhs),rhsMax =  -4.32376356940267E-13  1.39254447517460E+01
(PID.TID 0000.0001)                    cg2d_init_res =    4.35397973833918E-01
(PID.TID 0000.0001)                       cg2d_iters =    38
(PID.TID 0000.0001)                         cg2d_res =    8.50518059985837E-14
(PID.TID 0000.0001) // =======================================================
(PID.TID 0000.0001) // Begin MONITOR dynamic field statistics
(PID.TID 0000.0001) // =======================================================
(PID.TID 0000.0001) %MON time_tsnumber                =                    22
(PID.TID 0000.0001) %MON time_secondsf                =   2.3760000000000E+06
(PID.TID 0000.0001) %MON time_secondsi                =               2376000
(PID.TID 0000.0001) %MON dynstat_eta_max              =   1.4716491355812E+00
(PID.TID 0000.0001) %MON dynstat_eta_min              =  -1.9755377105304E+00
(PID.TID 0000.0001) %MON dynstat_eta_mean             =  -1.3998594695421E-01
(PID.TID 0000.0001) %MON dynstat_eta_sd               =   6.5576558163855E-01
(PID.TID 0000.0001) %MON dynstat_uvel_max             =   2.3933399279118E-01
(PID.TID 0000.0001) %MON dynstat_uvel_min             =  -4.2779704415239E-01
(PID.TID 0000.0001) %MON dynstat_uvel_mean            =  -5.9974131776680E-03
(PID.TID 0000.0001) %MON dynstat_uvel_sd              =   2.2471415894029E-02
(PID.TID 0000.0001) %MON dynstat_vvel_max             =   4.2609562578808E-01
(PID.TID 0000.0001) %MON dynstat_vvel_min             =  -4.5940205083769E-01
(PID.TID 0000.0001) %MON dynstat_vvel_mean            =   2.9981494685272E-03
(PID.TID 0000.0001) %MON dynstat_vvel_sd              =   2.4483654446237E-02
(PID.TID 0000.0001) %MON dynstat_wvel_max             =   1.2391101380384E-03
(PID.TID 0000.0001) %MON dynstat_wvel_min             =  -5.5545370486822E-04
(PID.TID 0000.0001) %MON dynstat_wvel_mean            =  -6.1758408857055E-07
(PID.TID 0000.0001) %MON dynstat_wvel_sd              =   3.8031273183730E-05
(PID.TID 0000.0001) %MON dynstat_theta_max            =   2.9292816089019E+01
(PID.TID 0000.0001) %MON dynstat_theta_min            =  -3.2289693648248E+00
(PID.TID 0000.0001) %MON dynstat_theta_mean           =   6.4873210850816E+00
(PID.TID 0000.0001) %MON dynstat_theta_sd             =   6.5437467980652E+00
(PID.TID 0000.0001) %MON dynstat_salt_max             =   3.7410364956870E+01
(PID.TID 0000.0001) %MON dynstat_salt_min             =   3.1005956877571E+01
(PID.TID 0000.0001) %MON dynstat_salt_mean            =   3.4715339030386E+01
(PID.TID 0000.0001) %MON dynstat_salt_sd              =   5.0091025089757E-01
(PID.TID 0000.0001) %MON advcfl_uvel_max              =   1.0446490045390E-01
(PID.TID 0000.0001) %MON advcfl_vvel_max              =   1.1156806319335E-01
(PID.TID 0000.0001) %MON advcfl_wvel_max              =   6.1739212076326E-01
(PID.TID 0000.0001) %MON ke_max                       =   6.2681084177497E-02
(PID.TID 0000.0001) %MON ke_mean                      =   5.3390529634448E-04
(PID.TID 0000.0001) // =======================================================
(PID.TID 0000.0001) // End MONITOR dynamic field statistics
(PID.TID 0000.0001) // =======================================================
 cg2d: Sum(rhs),rhsMax =  -5.26606536155327E-13  1.21789107825859E+01
(PID.TID 0000.0001)                    cg2d_init_res =    5.08595094219891E-01
(PID.TID 0000.0001)                       cg2d_iters =    38
(PID.TID 0000.0001)                         cg2d_res =    9.21082263484632E-14
(PID.TID 0000.0001) // =======================================================
(PID.TID 0000.0001) // Begin MONITOR dynamic field statistics
(PID.TID 0000.0001) // =======================================================
(PID.TID 0000.0001) %MON time_tsnumber                =                    23
(PID.TID 0000.0001) %MON time_secondsf                =   2.4840000000000E+06
(PID.TID 0000.0001) %MON time_secondsi                =               2484000
(PID.TID 0000.0001) %MON dynstat_eta_max              =   1.3844956933767E+00
(PID.TID 0000.0001) %MON dynstat_eta_min              =  -2.0510844605752E+00
(PID.TID 0000.0001) %MON dynstat_eta_mean             =  -1.4179527526105E-01
(PID.TID 0000.0001) %MON dynstat_eta_sd               =   6.6358018286979E-01
(PID.TID 0000.0001) %MON dynstat_uvel_max             =   2.4236180990597E-01
(PID.TID 0000.0001) %MON dynstat_uvel_min             =  -4.2996978049705E-01
(PID.TID 0000.0001) %MON dynstat_uvel_mean            =  -6.1698245307787E-03
(PID.TID 0000.0001) %MON dynstat_uvel_sd              =   2.2184979969931E-02
(PID.TID 0000.0001) %MON dynstat_vvel_max             =   3.9900527103895E-01
(PID.TID 0000.0001) %MON dynstat_vvel_min             =  -4.9259468199466E-01
(PID.TID 0000.0001) %MON dynstat_vvel_mean            =   8.7522007227569E-04
(PID.TID 0000.0001) %MON dynstat_vvel_sd              =   2.4259910273751E-02
(PID.TID 0000.0001) %MON dynstat_wvel_max             =   1.2406132227202E-03
(PID.TID 0000.0001) %MON dynstat_wvel_min             =  -5.6228279038406E-04
(PID.TID 0000.0001) %MON dynstat_wvel_mean            =  -7.5617688777585E-07
(PID.TID 0000.0001) %MON dynstat_wvel_sd              =   3.7829784693399E-05
(PID.TID 0000.0001) %MON dynstat_theta_max            =   2.9435962107632E+01
(PID.TID 0000.0001) %MON dynstat_theta_min            =  -3.3816859049602E+00
(PID.TID 0000.0001) %MON dynstat_theta_mean           =   6.4854112521095E+00
(PID.TID 0000.0001) %MON dynstat_theta_sd             =   6.5408775226942E+00
(PID.TID 0000.0001) %MON dynstat_salt_max             =   3.7410642052322E+01
(PID.TID 0000.0001) %MON dynstat_salt_min             =   3.1013426369076E+01
(PID.TID 0000.0001) %MON dynstat_salt_mean            =   3.4715031218225E+01
(PID.TID 0000.0001) %MON dynstat_salt_sd              =   5.0082943681128E-01
(PID.TID 0000.0001) %MON advcfl_uvel_max              =   1.0499546673307E-01
(PID.TID 0000.0001) %MON advcfl_vvel_max              =   1.1962905805335E-01
(PID.TID 0000.0001) %MON advcfl_wvel_max              =   5.8039030851987E-01
(PID.TID 0000.0001) %MON ke_max                       =   6.9427215569211E-02
(PID.TID 0000.0001) %MON ke_mean                      =   5.2009072581598E-04
(PID.TID 0000.0001) // =======================================================
(PID.TID 0000.0001) // End MONITOR dynamic field statistics
(PID.TID 0000.0001) // =======================================================
 cg2d: Sum(rhs),rhsMax =  -6.41153796721028E-13  9.83554778569510E+00
(PID.TID 0000.0001)                    cg2d_init_res =    6.37979806817015E-01
(PID.TID 0000.0001)                       cg2d_iters =    39
(PID.TID 0000.0001)                         cg2d_res =    4.40877752189329E-14
(PID.TID 0000.0001) // =======================================================
(PID.TID 0000.0001) // Begin MONITOR dynamic field statistics
(PID.TID 0000.0001) // =======================================================
(PID.TID 0000.0001) %MON time_tsnumber                =                    24
(PID.TID 0000.0001) %MON time_secondsf                =   2.5920000000000E+06
(PID.TID 0000.0001) %MON time_secondsi                =               2592000
(PID.TID 0000.0001) %MON dynstat_eta_max              =   1.2892470117595E+00
(PID.TID 0000.0001) %MON dynstat_eta_min              =  -2.0945501552464E+00
(PID.TID 0000.0001) %MON dynstat_eta_mean             =  -1.4308352734181E-01
(PID.TID 0000.0001) %MON dynstat_eta_sd               =   6.6838959666524E-01
(PID.TID 0000.0001) %MON dynstat_uvel_max             =   2.4448348377588E-01
(PID.TID 0000.0001) %MON dynstat_uvel_min             =  -4.3110089316073E-01
(PID.TID 0000.0001) %MON dynstat_uvel_mean            =  -5.8092956023649E-03
(PID.TID 0000.0001) %MON dynstat_uvel_sd              =   2.2123128463587E-02
(PID.TID 0000.0001) %MON dynstat_vvel_max             =   3.7293093031586E-01
(PID.TID 0000.0001) %MON dynstat_vvel_min             =  -5.1506162909754E-01
(PID.TID 0000.0001) %MON dynstat_vvel_mean            =  -1.1235826506040E-03
(PID.TID 0000.0001) %MON dynstat_vvel_sd              =   2.4653004325358E-02
(PID.TID 0000.0001) %MON dynstat_wvel_max             =   1.2396193519812E-03
(PID.TID 0000.0001) %MON dynstat_wvel_min             =  -5.7062716481546E-04
(PID.TID 0000.0001) %MON dynstat_wvel_mean            =  -8.8546463638930E-07
(PID.TID 0000.0001) %MON dynstat_wvel_sd              =   3.8092529084107E-05
(PID.TID 0000.0001) %MON dynstat_theta_max            =   2.9998861315375E+01
(PID.TID 0000.0001) %MON dynstat_theta_min            =  -3.5091504718561E+00
(PID.TID 0000.0001) %MON dynstat_theta_mean           =   6.4843879099938E+00
(PID.TID 0000.0001) %MON dynstat_theta_sd             =   6.5375250780935E+00
(PID.TID 0000.0001) %MON dynstat_salt_max             =   3.7410972237746E+01
(PID.TID 0000.0001) %MON dynstat_salt_min             =   3.1027850706122E+01
(PID.TID 0000.0001) %MON dynstat_salt_mean            =   3.4714773622059E+01
(PID.TID 0000.0001) %MON dynstat_salt_sd              =   5.0083045775224E-01
(PID.TID 0000.0001) %MON advcfl_uvel_max              =   1.0527167614926E-01
(PID.TID 0000.0001) %MON advcfl_vvel_max              =   1.2508526742282E-01
(PID.TID 0000.0001) %MON advcfl_wvel_max              =   5.3323263572709E-01
(PID.TID 0000.0001) %MON ke_max                       =   7.5773644035491E-02
(PID.TID 0000.0001) %MON ke_mean                      =   5.2582358394815E-04
(PID.TID 0000.0001) // =======================================================
(PID.TID 0000.0001) // End MONITOR dynamic field statistics
(PID.TID 0000.0001) // =======================================================
(PID.TID 0000.0001) // =======================================================
(PID.TID 0000.0001) // Field Current uVel   at iteration         24
(PID.TID 0000.0001) // CMIN =         -2.877231814460641E-01
(PID.TID 0000.0001) // CMAX =          2.053325085033422E-01
(PID.TID 0000.0001) // CINT =          1.826132184997801E-02
(PID.TID 0000.0001) // SYMBOLS (CMIN->CMAX): -abcdefghijklmnopqrstuvwxyz+
(PID.TID 0000.0001) //                  0.0: .
(PID.TID 0000.0001) // RANGE I (Lo:Hi:Step):(   1:  90:   1)
(PID.TID 0000.0001) // RANGE J (Lo:Hi:Step):(  40:   1:  -1)
(PID.TID 0000.0001) // RANGE K (Lo:Hi:Step):(   1:   1:   1)
(PID.TID 0000.0001) // =======================================================
(PID.TID 0000.0001) K =   1
(PID.TID 0000.0001)                I=10      I=20      I=30      I=40      I=50      I=60      I=70      I=80      I=90
(PID.TID 0000.0001) |--J--|123456789|123456789|123456789|123456789|123456789|123456789|123456789|123456789|123456789|
(PID.TID 0000.0001)     40 ..........................................................................................
(PID.TID 0000.0001)     39 oooopo....................................................................pp..........pooo
(PID.TID 0000.0001)     38 ooop.......................................................................p.........pqqpo
(PID.TID 0000.0001)     37 pp.........................................................................pp....ono...tsq
(PID.TID 0000.0001)     36 s...........................................onnp...........................qqp..onnnnoqsts
(PID.TID 0000.0001)     35 .p..................................poo..oooooooop..poonn...................qppoonnnnnpq..
(PID.TID 0000.0001)     34 .....................................ppppppoppppppqpppoooo...................qqpqpppoppq..
(PID.TID 0000.0001)     33 .....................................pppppppppppppppppppppp................p..popqqpppppp.
(PID.TID 0000.0001)     32 .....................................pppppppppppppppppppppp................ppppooppppppp..
(PID.TID 0000.0001)     31 .....................................ppppppppppppppppppppop..............poopppoppppppp...
(PID.TID 0000.0001)     30 ....................................qqqppppppppppppppppppoo.............oppopppppppppppp..
(PID.TID 0000.0001)     29 ................................pqqpqqqqqqpqqqqpqqqqqppppoooo..........ppppooppppppppooo..
(PID.TID 0000.0001)     28 ...............................pqpppppppqqqqqqqqqqqqqqqpppooo.......p..pppppooooooooooo...
(PID.TID 0000.0001)     27 ................................pooopppppqppqpqqqqqqqppppoooopp....qqqqpppppoooooonnnn....
(PID.TID 0000.0001)     26 ................pp...........oxrpnmnnnonooooooooooonnnnnnmmnnopq.....oononmoonnmmmmmmn....
(PID.TID 0000.0001)     25 ..............qqqq...ppp....lo..onlkklllllllmllllllkkkkkkkklmnopp.....lklkmlnmlllkkklm....
(PID.TID 0000.0001)     24 .............rrrrqq..pqq....hq..mqmkkkkjkjkkkjkkkkkkkkklkllmmnoooppp..lk..lmmlllllllmn....
(PID.TID 0000.0001)     23 ..............qqqqqqppqq..dajzskissnmmlmmllmmmlmmmmnnnnoooooopppppqpp.......mmmmmnnoppq...
(PID.TID 0000.0001)     22 pq...........ppppqqqqqqq...-...n+yuqooooononnnnnnnnooooooopoopopppqqqp........mmnnoopppqqp
(PID.TID 0000.0001)     21 pp..........oopppqqqqqqqq......vzvuqoopppoonnnnnmmnnnnnnnnonnoooooooop.........mmmnooooppp
(PID.TID 0000.0001)     20 ooo........oooppppppppppq............oopooononnnmmmmmmmmmmmmmmmnnnnno.............mmmmnnon
(PID.TID 0000.0001)     19 noo........nnlmmmmmmmmmnmmn..qplmn....nnnnnnnnnnnmmmmmmmllllkklllllmnn............llllmmmn
(PID.TID 0000.0001)     18 mmn........olhhhiijjiijkllmmlnnm.....mlklllmmmmmmmmmmmmmmlllklkkkklllmn...........mllklllm
(PID.TID 0000.0001)     17 klm...........kiiijjjjkllmmnmmn.......lkkklllllmmmmmnnmmmmmllllllllkllm...........mmlkkkkk
(PID.TID 0000.0001)     16 kkk.......p..pnmmmmnnnnnooooo.........mmlllmmmmnnnooooonnnnnnnmmmmmlllmn.........ponmllkkk
(PID.TID 0000.0001)     15 lkk.......o..rqpppppqqqppppp...........onmnnooopppqqqpqppppppooooonnnmmn........qqponmmlll
(PID.TID 0000.0001)     14 mllm.....qppqqqqpppppqpppppp............pooooopqpqqqqqqqqqqqqqpppooooonn.......pqqqpoonnnm
(PID.TID 0000.0001)     13 nnnn....pqqqqpppooooooooooop...........pqponnoopppqpqqqqqqqpqqqppppppoon......pqqqqqppooon
(PID.TID 0000.0001)     12 ooooqorrrrqqqpooooonnnnnnnoop..ppp.....pppooooooooopoppppppoppppppppppoo.....ppqqpqqppoooo
(PID.TID 0000.0001)     11 oonnonpqqqqqqqpooonmmnnnnnnnnoppoppqrrooopp..poooooooopoooooooooooooppp.....oopqpppppooonn
(PID.TID 0000.0001)     10 nnnnooooppppqpoopnnnmmmnnnmmmmnnnonooonoop..ooooonnooonnnnnnnnnmnnnoooo....moopoooooooooon
(PID.TID 0000.0001)      9 noooononooooooooonoommnoonnnnnmnnnonnnoopqsrqpooopoooonnnnnonnmmnoooppp....qoopoooonnnoppo
(PID.TID 0000.0001)      8 ppppoooonnooooooopqrqpopooooonnnooooopppppqrqqpqqqqqpooooooonnnnopopppp...sqqrrqponnmnoppp
(PID.TID 0000.0001)      7 rrqqpppooooooppooprrqpppppooooooopppppponnopqqqqrqqqponoonnoooppqqqqqppppqpopqqqppponoppqr
(PID.TID 0000.0001)      6 qqqppppppppppppoppppppqqqpppqqqppppppppooopqrrrrrrrqqppoooopqrrrrrrrqqqqqqoqrqqpppppoppqqq
(PID.TID 0000.0001)      5 ppppppppqpppppoopppppqqqq..ppppppppooppppqqpqqqqqqqpppoooppqqrrrqqqppqqqqq..rqpppppppppppp
(PID.TID 0000.0001)      4 pppppppp.................................ppooppppppppppppqqqqqqqqpoopppp....pppppppppppppp
(PID.TID 0000.0001)      3 ............................................oooppppppqqqqqqqqpppp...........pppppppppp....
(PID.TID 0000.0001)      2 ............................................ooopppp............................pop........
(PID.TID 0000.0001)      1 ..........................................................................................
(PID.TID 0000.0001) // =======================================================
(PID.TID 0000.0001) // END OF FIELD                                          =
(PID.TID 0000.0001) // =======================================================
(PID.TID 0000.0001) 
(PID.TID 0000.0001) // =======================================================
(PID.TID 0000.0001) // Field Current vVel   at iteration         24
(PID.TID 0000.0001) // CMIN =         -5.150616290975372E-01
(PID.TID 0000.0001) // CMAX =          2.942564380683571E-01
(PID.TID 0000.0001) // CINT =          2.997474322836646E-02
(PID.TID 0000.0001) // SYMBOLS (CMIN->CMAX): -abcdefghijklmnopqrstuvwxyz+
(PID.TID 0000.0001) //                  0.0: .
(PID.TID 0000.0001) // RANGE I (Lo:Hi:Step):(   1:  90:   1)
(PID.TID 0000.0001) // RANGE J (Lo:Hi:Step):(  40:   1:  -1)
(PID.TID 0000.0001) // RANGE K (Lo:Hi:Step):(   1:   1:   1)
(PID.TID 0000.0001) // =======================================================
(PID.TID 0000.0001) K =   1
(PID.TID 0000.0001)                I=10      I=20      I=30      I=40      I=50      I=60      I=70      I=80      I=90
(PID.TID 0000.0001) |--J--|123456789|123456789|123456789|123456789|123456789|123456789|123456789|123456789|123456789|
(PID.TID 0000.0001)     40 ..........................................................................................
(PID.TID 0000.0001)     39 ssss......................................................................pp.........qrrss
(PID.TID 0000.0001)     38 sr........................................................................pp..........rrss
(PID.TID 0000.0001)     37 s.........................................................................ppq...qrss..pqrs
(PID.TID 0000.0001)     36 r..........................................qqqqq...........................qqq.qqrrssrqr..
(PID.TID 0000.0001)     35 ....................................qqr.qqqqqqqqpp.pqrrrr...................qqqqqrrssssr..
(PID.TID 0000.0001)     34 ....................................qqqqqqqqqqqqqqqqrrrrrq...................qrrrssssssr..
(PID.TID 0000.0001)     33 ....................................qqqqqqqqqrqqrqqqqrqqqqq...............rr.qrrqrrrrrrq..
(PID.TID 0000.0001)     32 ....................................qqqqqqqqqqqqqqqqqqqqqqq...............qqqqqqqqqqqrq...
(PID.TID 0000.0001)     31 ....................................qqpppppppppppppppppqqqq.............qrqqqqqqqqqqqrr...
(PID.TID 0000.0001)     30 ...................................qqpppppppppppppppppqqqqp............qqppppppqqqqqqqqq..
(PID.TID 0000.0001)     29 ...............................rqqqppppppppppppppppppqqqqqppp.........qqppqqqqqqqqrrrrr...
(PID.TID 0000.0001)     28 ...............................rqqqqpqqqqqqqqqqqqqqqqqqqqqqpp......rr.qqqqqqqrrrrrrrrr....
(PID.TID 0000.0001)     27 ...............................rqqrrrrrrrrrrrrrrrrrrrrrrrqqqppp...r.rrrqqqqrrrrrssrrrq....
(PID.TID 0000.0001)     26 ...............ppq....q.....y+.rrrrrrrrrrrrrrrrrrrrrrsrrrrqqqppq.....srrqsqrrrrsrrrrqq....
(PID.TID 0000.0001)     25 .............qpppp..qqqp...vzq.qsrrrrrrrrrrrrrrrrrrrrrrrqrqqqqqqq....rsr.rsrrrrrrrrqqq....
(PID.TID 0000.0001)     24 .............qqpppp.qqpp...sn-.ioqqqqqrrrrrrrrrqqrrrrrrrrrrrrqqqqqqq.......qrrrrrrrqqq....
(PID.TID 0000.0001)     23 .............qppopppppqq..st..ywoopqqqqqqqqqqrrrrrrrssssssrrrrrqqrrrr........rrrrrrrrrr...
(PID.TID 0000.0001)     22 rq..........qppppppppppq......njloqqrrqqqqqqrrrrrrrrrrrrrrrrqqqqqqqqqq........qrrsrrrrrrrr
(PID.TID 0000.0001)     21 rq.........rqpppppppqqqqq.......n...rrrrrrrrrrrrrrrrssssrrrrrrrrrrrrq............tsssrrrrr
(PID.TID 0000.0001)     20 rrq.......tsrrrqqqqqqrqqr.......r....rrrrrrrrrqqqqqrrrrrrrsssssssssrr............tssssrrsr
(PID.TID 0000.0001)     19 qqq.......tsstttssrrrrrrqqq.pqrq.....ssrrrrqqqqqqqqqqqqqqqqrrrrrrrrrrr...........ssrrrrrrr
(PID.TID 0000.0001)     18 rrr.......s..tsrrqqqqqqqqqqqpqq......srqqqqqqqqqqqqqqqqqqppqqqqqqqqrrrr..........ssrrqrrrr
(PID.TID 0000.0001)     17 rrr.......r..qqpppoooooopppqp........qqqpppppppppppppppqpppppppqqqqqrrr..........rrqqqqqqq
(PID.TID 0000.0001)     16 qqq......rr.qqqppppppppppppp..........qqqppppqpppppppppppppppppqqpqqqqrr........qrrqqqppqq
(PID.TID 0000.0001)     15 pqq......qq.pqqqqqppppqqqqqq...........qqqqqrrqqqqqqqqqqqqqqqqqqqqqqqrrr.......qrrqqqqpppp
(PID.TID 0000.0001)     14 qqqp....qrqqqrrqqqqqqqqrrqqq...........qrrrrrrrrrrrrrrqrrrrrrrrrrrrrrrrr......qrrrrrrqqqqq
(PID.TID 0000.0001)     13 rrrq...rrssrrrsrrrrqrrrrrrrq..........qqrrrrssssrrrrrrrrrrrrrrrrsssrrrrq.....rrssssrrrrrrr
(PID.TID 0000.0001)     12 sssssrsssssssssssrrrrrrrrrrrr.rrrq....qqqqr.qrrrrrrrrrrrrrrrrrrssssssrr.....rrssssssrrrsss
(PID.TID 0000.0001)     11 sssssstttssssssrrrrrrsssrrsssrrrrrrrqqqqpq..qrsssrrrrqrrrrrqqrrrsrrrrrr....pqrsssssrrrqrrs
(PID.TID 0000.0001)     10 rrrrrrsssrrstsrqppqqrrsrqqqrrqrrrrrrqqqrqr.qpqrrsrrrrrrrrrrqqrrrsssssrr...qooqrrrrrqqqppqq
(PID.TID 0000.0001)      9 qqqqqqrrqqpqrrrrqppppqqqqqpqqpppqppppppppppppppqppooooopppppoppqqrrrrqq...rpoppqqqqqppppop
(PID.TID 0000.0001)      8 ppppqqrrqqpppqqqqpooppqqpqqqqqqpppppoooopopqqqpqpponnnooooppppqqrrrrrrq..qponoopqqqppppooo
(PID.TID 0000.0001)      7 pqqqqqrqqqqppqpppppoppqpppppppppppqqqpoonnoopoopppooooooonooooppppppppooooonnooopqqqppppop
(PID.TID 0000.0001)      6 qqqqqqqqqpppppppppppppqpp.pppppoooopppppoonnoooooppppppppoooppppppppooonoo.opppppqqqqqqqqq
(PID.TID 0000.0001)      5 qqqqqqqq.q..............................qqppppppppqqqqqqqqpppppppppppppo...qppqqqqqqqqqqqq
(PID.TID 0000.0001)      4 ...........................................qpqqqqqqqqqqqqqqqppppp..........qpppqqqqqrr....
(PID.TID 0000.0001)      3 ...........................................qqqpqqqq...........................qqqq........
(PID.TID 0000.0001)      2 ..........................................................................................
(PID.TID 0000.0001)      1 ..........................................................................................
(PID.TID 0000.0001) // =======================================================
(PID.TID 0000.0001) // END OF FIELD                                          =
(PID.TID 0000.0001) // =======================================================
(PID.TID 0000.0001) 
(PID.TID 0000.0001) // =======================================================
(PID.TID 0000.0001) // Field Current theta  at iteration         24
(PID.TID 0000.0001) // CMIN =         -1.849894607537729E+00
(PID.TID 0000.0001) // CMAX =          2.999886131537485E+01
(PID.TID 0000.0001) // CINT =          1.179583552700466E+00
(PID.TID 0000.0001) // SYMBOLS (CMIN->CMAX): -abcdefghijklmnopqrstuvwxyz+
(PID.TID 0000.0001) //                  0.0: .
(PID.TID 0000.0001) // RANGE I (Lo:Hi:Step):(   1:  90:   1)
(PID.TID 0000.0001) // RANGE J (Lo:Hi:Step):(  40:   1:  -1)
(PID.TID 0000.0001) // RANGE K (Lo:Hi:Step):(   1:   1:   1)
(PID.TID 0000.0001) // =======================================================
(PID.TID 0000.0001) K =   1
(PID.TID 0000.0001)                I=10      I=20      I=30      I=40      I=50      I=60      I=70      I=80      I=90
(PID.TID 0000.0001) |--J--|123456789|123456789|123456789|123456789|123456789|123456789|123456789|123456789|123456789|
(PID.TID 0000.0001)     40 ..........................................................................................
(PID.TID 0000.0001)     39 efgggg...................................................................bbc.........bccde
(PID.TID 0000.0001)     38 hhhh......................................................................cc........dddefg
(PID.TID 0000.0001)     37 ij........................................................................cdd...fggg..ggii
(PID.TID 0000.0001)     36 i..........................................ffeed..........................deee.ghhijjjjjjj
(PID.TID 0000.0001)     35 jj.................................deee.ffffffffff.ghhiii..................eefgghijkklll..
(PID.TID 0000.0001)     34 ....................................eeefffggggggghhhhiijjj..................degijjklmmml..
(PID.TID 0000.0001)     33 ....................................eeeffgggghhhhhiiiijjjkj...............ee.egjlmmnnnmml.
(PID.TID 0000.0001)     32 ....................................hhhiiiiijjjjjkkkkklllll...............hhhgjnooooonnn..
(PID.TID 0000.0001)     31 ....................................lmmmmmmmmmmmmmnnnnnnnnm.............npqqqpqrrqqqppp...
(PID.TID 0000.0001)     30 ...................................qqrqqqqqpppppoppppppppon............rtttttssssrrrqqqq..
(PID.TID 0000.0001)     29 ...............................rtttttssssssssrrrrrsrrrrrqqpon.........uuuutttttsssssrrqq..
(PID.TID 0000.0001)     28 ..............................tuvvuuuuuuuuuuuuuuuuuttttsrrqqp......vv.wvvuvuvuuuutttssr...
(PID.TID 0000.0001)     27 ...............................wwwwwwwwwwwwwvvwvvvvvuuuttssrrst...wwxxxwwwwwwwvvvuutts....
(PID.TID 0000.0001)     26 ...............xxx....y.....wwxxxxxyyyxxxxxxxxxwwwwvvvvuuuutuuvw..w.yyyxxxxxwwwwvvuusr....
(PID.TID 0000.0001)     25 .............wxxyy..yyyy...xxv.yyyyyyyyyyyxxxxxxxwwwwwwvvvvwwwxxy....yyyxxxxxxwwwvvuts....
(PID.TID 0000.0001)     24 ............xxxyzzz.yyyy...xwt.yyzzzzzyyyyyyyyxxxxxxxwwwwwwxxxyyyxww.xxx.xxxxxxwwwvvut....
(PID.TID 0000.0001)     23 .............xyyzzyyyyyy.yxuwv+zyzzzzzzzzzzyyyyyyyyyyyyxxxxxxyyyyxxww......yxxxxxxxwwvv...
(PID.TID 0000.0001)     22 ww..........xxyzzzzyyyyy..yw..wwyzzzzzzzzzzzzzzyyyyyyyyxxxxwwwwwwwwwww.......xyxxxxxxxxwww
(PID.TID 0000.0001)     21 vv.........xxyyzzzzzzzzzz.....xyyzzzzzzzzzzzyyyyyyxxxxxxwwwvvvvuuuuuuu........xxxxxxxxwvvw
(PID.TID 0000.0001)     20 vut.......xxxyyyyyyyyyyyy.......y...zzzzzzzzzzzzzyyyyyyxxwwwwwvvuuuut............yxxxwwvvv
(PID.TID 0000.0001)     19 utt.......xxxxxxxxxxxxyyyyx.xyyyxx...zzzzzzzzzzzzzzzzzyyyxxxwwwvvvvuts...........yxxxwwwvv
(PID.TID 0000.0001)     18 uts.......xxxxxxxxxxxxxxxxxxxyxy....xyyyzzzzzzzzzzzzzzyyyxxxwwvvuuuutsr..........xxxwwvvvu
(PID.TID 0000.0001)     17 ssr.......x..wwwwwwwwwwwwwwwxxx......xxxyyyyyyyyyyyyyyyyxxxwwwvvuutttsr..........xxwwvuuut
(PID.TID 0000.0001)     16 srq......ww.wwvvvvwwvvvvvvvvw........wwwwwwwxwwxxxxxxxxxxxwwwvvvuuttsrrr........wwwwwvuutt
(PID.TID 0000.0001)     15 srp......vu.vvvuuuvuuuutttuu..........vuuvvvvvvvvvvvvvvvvwwvvvvvuttsrrqq.......uvvvvvuuuts
(PID.TID 0000.0001)     14 rrqp....uuuuuuutttttssssssst...........ttttttttttttttuuuuuuuuuutttssrrqp......uuuuuuuuttss
(PID.TID 0000.0001)     13 rrqq...sssrrssrqrqqqqqqppqqr..........ttssrrrrrrrrrrrrsssssssrrrrrrqqqpo.....ststsssssssrr
(PID.TID 0000.0001)     12 pppqqrrrrrqqqqpopoonnoooooopp.ppop....rrqqqqqppppppppppppppoooooooppppon....oqrqqqqqqqqppp
(PID.TID 0000.0001)     11 lllnpppooooonnnnnnmmllllllllmnmmmnnoopppppp.ooonnnnnnnnnnmmmmmmmmlmnnnn....kmoonnnnnnnnmml
(PID.TID 0000.0001)     10 ihiijjjjjiiihijjjjkkjjjiijjjjkkkklllmmnmmn.lmmmmmmlllllllllllkkkjjjkkkl...kjlmlkjjjjjjjjii
(PID.TID 0000.0001)      9 eeeeeeefefffeefffeffgggfffggghhiiiiijjkkklkkkkkkkkkkkjjjjiiiiiiiiiiiijj...iiiiihgffffffeee
(PID.TID 0000.0001)      8 ccccccddddddddeeedddddddddddeffffffggghhhiiiiiiihghhhhggggggggggggggghi..hhhgffeddddddddcc
(PID.TID 0000.0001)      7 baabbccccccccccccccccccccccccddddddddeeffghgggggffeedddeeffffffffffffgggggffeedccbbbbbbbbb
(PID.TID 0000.0001)      6 aaabbbccccccccccccccbbbccbbbbcccccccccccdeeeeeeedcbbbbbcccddddddeeeeeeeedddccbbbbbbabbbbba
(PID.TID 0000.0001)      5 aabbbbbbbbbbbbbbbbbbbaaaa.abbbbbbbbbbbbbbbccbbbbbbbbbbbbbbbbbcccccccccbbbb.baaaaaaaaaaaaaa
(PID.TID 0000.0001)      4 aaaaaaaa.a..............................aaaaaaaaaaaaaaaaaaaaaaaaaaaaaaaa...aa---aaaaaaaaaa
(PID.TID 0000.0001)      3 ...........................................aaaaaaa---aaaaaaaaaaaa..........a-a--aaaaaa....
(PID.TID 0000.0001)      2 ...........................................aaaaaaaa...........................--aa........
(PID.TID 0000.0001)      1 ..........................................................................................
(PID.TID 0000.0001) // =======================================================
(PID.TID 0000.0001) // END OF FIELD                                          =
(PID.TID 0000.0001) // =======================================================
(PID.TID 0000.0001) 
(PID.TID 0000.0001) // =======================================================
(PID.TID 0000.0001) // Field Current etaN   at iteration         24
(PID.TID 0000.0001) // CMIN =         -2.094550155246417E+00
(PID.TID 0000.0001) // CMAX =          1.289247011759456E+00
(PID.TID 0000.0001) // CINT =          1.253258210002175E-01
(PID.TID 0000.0001) // SYMBOLS (CMIN->CMAX): -abcdefghijklmnopqrstuvwxyz+
(PID.TID 0000.0001) //                  0.0: .
(PID.TID 0000.0001) // RANGE I (Lo:Hi:Step):(  -2:  93:   1)
(PID.TID 0000.0001) // RANGE J (Lo:Hi:Step):(  43:  -2:  -1)
(PID.TID 0000.0001) // RANGE K (Lo:Hi:Step):(   1:   1:   1)
(PID.TID 0000.0001) // =======================================================
(PID.TID 0000.0001) K =   1
(PID.TID 0000.0001)                I=7       I=17      I=27      I=37      I=47      I=57      I=67      I=77      I=87
(PID.TID 0000.0001) |--J--|**0123456|890123456|890123456|890123456|890123456|890123456|890123456|890123456|890123456|890123
(PID.TID 0000.0001)     43 ..............................................ccccddddddddddddddddde..........aaaabbbbccc.......
(PID.TID 0000.0001)     42 ..............................................cccccddd...........................baaa...........
(PID.TID 0000.0001)     41 ................................................................................................
(PID.TID 0000.0001)     40 ................................................................................................
(PID.TID 0000.0001)     39 fgghhiijk...................................................................ffe.........fffgghhi
(PID.TID 0000.0001)     38 ghiiijj......................................................................gg........fefghiiij
(PID.TID 0000.0001)     37 jjijj........................................................................ihh...mmnn..mjjijj.
(PID.TID 0000.0001)     36 mljk..........................................mmnno..........................jiij.mmmnpqqomljk..
(PID.TID 0000.0001)     35 s..np.................................jiij.lllmmmnnnn.nnnopq..................kjjjkllmopqrs..np.
(PID.TID 0000.0001)     34 u......................................kjkllllmmmmnnnmnnnopqq..................kkkllmnoqrsu.....
(PID.TID 0000.0001)     33 uv.....................................kkkklllmmmnnnnnooooppqq...............pp.mnopqqrstuuv....
(PID.TID 0000.0001)     32 v......................................llllmmnnooooppppppqqqqq...............qqqpqqrrsttuuv.....
(PID.TID 0000.0001)     31 .......................................mnoooppqqqqqqqqqrrrrrrq.............rsssssssttttuvv......
(PID.TID 0000.0001)     30 w.....................................qqrrrrrssssssssrrrrrrrrr............ttuvvuuuuuuuuvvvw.....
(PID.TID 0000.0001)     29 w.................................vvuuuuuutttttttttttssssssrrrqp.........vvvvvvvuuuuvvvvvww.....
(PID.TID 0000.0001)     28 .................................vvvvvvvuuuuuuuttttttttssssrrrqq......tt.wvvvvuuuuuuuuuuvv......
(PID.TID 0000.0001)     27 ..................................vvvvuuuuuuuuuttttttttssssrrrqppo...ssuvwvvvvuuuuuuuuuuu.......
(PID.TID 0000.0001)     26 ..................rrr....s.....wywwvuuuuuuuuuuuttttttttsssrrrqqqpoo..s.uvvvvvuvuutttttttt.......
(PID.TID 0000.0001)     25 ................rrrrr..tttt...vy+.wvuuuuuttttttttttttssssrrrqqqqppoo....vvvvwuuutttttttts.......
(PID.TID 0000.0001)     24 ...............rrrrrrr.tttt...xwt.uwvutttttttttttttsssssrrrrqqqqpppoonn.vuu.uuuutttttssss.......
(PID.TID 0000.0001)     23 ................ssssssstttt.uwtrooquwutttttttttttsssssssrrrrqqqqpppooonn......uttttsssssss......
(PID.TID 0000.0001)     22 rrrss..........sssssssttttt..ww..sxywutttssssssssssssssrrrrrqqqppppoooooo.......tttsssssssrrrss.
(PID.TID 0000.0001)     21 rrrrr.........sssssssttttttu.....xzvvtssssssrsssssssrrrrrrrqqqppppoooonnn........tsssssrrrrrrrr.
(PID.TID 0000.0001)     20 rrrrrr.......tsssssstttttuuu.......u...srrrrrssssssssrrrrrrrqqqqpppooooo............ssrrrrrrrrrr
(PID.TID 0000.0001)     19 rrrrrr.......tttttttttttuuuuuv.vvuuuu...rrrrrsssssssssssrrrrrqqqqppppoooo...........ssrrrrrrrrrr
(PID.TID 0000.0001)     18 rrrrrr.......uttutttuuuuuuuuuuuvvuv....qqqrrrrssssssssrrrrrrrrqqqqppppppop..........ssrrrrrrrrrr
(PID.TID 0000.0001)     17 rrrrrr.......v..vuuttutuuuuuuuuvvv......rqqrrrrrsssssssrrrrrrrqqqqqppppppp..........tsrrrrrrrrrr
(PID.TID 0000.0001)     16 rrrrrr......yw.xwvuuuuuuuuuttuuu........rrrrrrrrrsrrrrrrrrrrrrqqqqqqqqppppo........utssrrrrrrrrr
(PID.TID 0000.0001)     15 rrrrrr......yw.wvuuuttttttttttt..........srrrrrrrrrrrrrrrrrrrqqqqrqqqqqpppo.......vutssrrrrrrrrr
(PID.TID 0000.0001)     14 ssssrrr....zxwwvvutttssssssssss...........sssrrrrrrrqqqqqqrrqqqrrrrqqqqqppo......vuttsssssssssrr
(PID.TID 0000.0001)     13 ssssssr...xxxxwvvuttsssssssrrrr..........sssssssrrqqqqqppqqqqqqqqqrrqqqppoo.....uuuttsssssssssss
(PID.TID 0000.0001)     12 ssssssssuvwwwwwwvvuttttssssrrrqq.qqpp....rrrsstsrrqpppppppppppppqqqqqppppon....rttsssrrrrsssssss
(PID.TID 0000.0001)     11 rsssrrsstttsttttttsssssssssrrrqppqppppoopqqrst.srrqpppppppoooppppqqppooooo....nqrrqqqqpqqrrsssrr
(PID.TID 0000.0001)     10 pqqqqqqqqponnnnnnooppqqrrqqqqqqqpqqppppppqqqr.nqrrqqppooopppooppppqpooonnn...mlopponnmmnnopqqqqq
(PID.TID 0000.0001)      9 klnnnnmmmlkkjkkkjjijkmnoponmmnnnooppoooppqppqoopqqqppppoooppppppqqrqpponnn...ijmnnmlkjjjkkklnnnn
(PID.TID 0000.0001)      8 hikkkjjiiihhhhiiihhhijklllkkjjjkllmmmllmmllllmlmmmmmllllllllmmmnoppponmlll..ihikkkjihgghhhhikkkj
(PID.TID 0000.0001)      7 fgggggggggggggghhhhggggiiiiiiiijjjjjjiihhiijjkkkkkjiihhhhiijklmnnoonnmlkjjiigeffgggggfeffffggggg
(PID.TID 0000.0001)      6 ddeeeefffffffffgffggfffghhhhhhhiihhhhhhgffghhhhhhhggfeeeffghijjkkkkjjiihhhhhhhgfeeeeeeddddddeeee
(PID.TID 0000.0001)      5 dddddeeeeeeeeeeeefffffggffff.fffggggggggggffeeeeeeeeeedeefffgghhhhhgggggffggg.acccddddddccddddde
(PID.TID 0000.0001)      4 ccccccddddd.e..............................dcccddddddeeeeffffffffffffggffff...-abbcccccccccccccc
(PID.TID 0000.0001)      3 ..............................................ccccddddddddddddddddde..........aaaabbbbccc.......
(PID.TID 0000.0001)      2 ..............................................cccccddd...........................baaa...........
(PID.TID 0000.0001)      1 ................................................................................................
(PID.TID 0000.0001)      0 ................................................................................................
(PID.TID 0000.0001)     -1 fgghhiijk...................................................................ffe.........fffgghhi
(PID.TID 0000.0001)     -2 ghiiijj......................................................................gg........fefghiiij
(PID.TID 0000.0001) // =======================================================
(PID.TID 0000.0001) // END OF FIELD                                          =
(PID.TID 0000.0001) // =======================================================
(PID.TID 0000.0001) 
 cg2d: Sum(rhs),rhsMax =  -5.96050986345631E-13  8.57842818035353E+00
(PID.TID 0000.0001)                    cg2d_init_res =    7.06118258228431E-01
(PID.TID 0000.0001)                       cg2d_iters =    39
(PID.TID 0000.0001)                         cg2d_res =    4.66370599561156E-14
(PID.TID 0000.0001) // =======================================================
(PID.TID 0000.0001) // Begin MONITOR dynamic field statistics
(PID.TID 0000.0001) // =======================================================
(PID.TID 0000.0001) %MON time_tsnumber                =                    25
(PID.TID 0000.0001) %MON time_secondsf                =   2.7000000000000E+06
(PID.TID 0000.0001) %MON time_secondsi                =               2700000
(PID.TID 0000.0001) %MON dynstat_eta_max              =   1.1919455622649E+00
(PID.TID 0000.0001) %MON dynstat_eta_min              =  -2.1041571414605E+00
(PID.TID 0000.0001) %MON dynstat_eta_mean             =  -1.4390984421920E-01
(PID.TID 0000.0001) %MON dynstat_eta_sd               =   6.7067293264451E-01
(PID.TID 0000.0001) %MON dynstat_uvel_max             =   2.4552474846185E-01
(PID.TID 0000.0001) %MON dynstat_uvel_min             =  -4.3108783881880E-01
(PID.TID 0000.0001) %MON dynstat_uvel_mean            =  -4.9529311238807E-03
(PID.TID 0000.0001) %MON dynstat_uvel_sd              =   2.2431753881708E-02
(PID.TID 0000.0001) %MON dynstat_vvel_max             =   3.4794047389347E-01
(PID.TID 0000.0001) %MON dynstat_vvel_min             =  -5.2666533717720E-01
(PID.TID 0000.0001) %MON dynstat_vvel_mean            =  -2.8576749494063E-03
(PID.TID 0000.0001) %MON dynstat_vvel_sd              =   2.5475522778488E-02
(PID.TID 0000.0001) %MON dynstat_wvel_max             =   1.2203923898700E-03
(PID.TID 0000.0001) %MON dynstat_wvel_min             =  -6.2060837193502E-04
(PID.TID 0000.0001) %MON dynstat_wvel_mean            =  -1.0027551940096E-06
(PID.TID 0000.0001) %MON dynstat_wvel_sd              =   3.8477723126559E-05
(PID.TID 0000.0001) %MON dynstat_theta_max            =   3.0426218061064E+01
(PID.TID 0000.0001) %MON dynstat_theta_min            =  -3.6019881322040E+00
(PID.TID 0000.0001) %MON dynstat_theta_mean           =   6.4842495977073E+00
(PID.TID 0000.0001) %MON dynstat_theta_sd             =   6.5340132031867E+00
(PID.TID 0000.0001) %MON dynstat_salt_max             =   3.7411166439952E+01
(PID.TID 0000.0001) %MON dynstat_salt_min             =   3.1046180943553E+01
(PID.TID 0000.0001) %MON dynstat_salt_mean            =   3.4714564463570E+01
(PID.TID 0000.0001) %MON dynstat_salt_sd              =   5.0091430525499E-01
(PID.TID 0000.0001) %MON advcfl_uvel_max              =   1.0526848837471E-01
(PID.TID 0000.0001) %MON advcfl_vvel_max              =   1.2790328539629E-01
(PID.TID 0000.0001) %MON advcfl_wvel_max              =   5.0286493774822E-01
(PID.TID 0000.0001) %MON ke_max                       =   7.8941435585439E-02
(PID.TID 0000.0001) %MON ke_mean                      =   5.5005637191778E-04
(PID.TID 0000.0001) // =======================================================
(PID.TID 0000.0001) // End MONITOR dynamic field statistics
(PID.TID 0000.0001) // =======================================================
 cg2d: Sum(rhs),rhsMax =  -9.20402642989870E-13  8.56656239188078E+00
(PID.TID 0000.0001)                    cg2d_init_res =    6.82842881481621E-01
(PID.TID 0000.0001)                       cg2d_iters =    38
(PID.TID 0000.0001)                         cg2d_res =    7.20225784293778E-14
(PID.TID 0000.0001) // =======================================================
(PID.TID 0000.0001) // Begin MONITOR dynamic field statistics
(PID.TID 0000.0001) // =======================================================
(PID.TID 0000.0001) %MON time_tsnumber                =                    26
(PID.TID 0000.0001) %MON time_secondsf                =   2.8080000000000E+06
(PID.TID 0000.0001) %MON time_secondsi                =               2808000
(PID.TID 0000.0001) %MON dynstat_eta_max              =   1.1274531294776E+00
(PID.TID 0000.0001) %MON dynstat_eta_min              =  -2.0826547153917E+00
(PID.TID 0000.0001) %MON dynstat_eta_mean             =  -1.4435692985685E-01
(PID.TID 0000.0001) %MON dynstat_eta_sd               =   6.7101634967186E-01
(PID.TID 0000.0001) %MON dynstat_uvel_max             =   2.4545484751612E-01
(PID.TID 0000.0001) %MON dynstat_uvel_min             =  -4.3007386677745E-01
(PID.TID 0000.0001) %MON dynstat_uvel_mean            =  -3.6752804204597E-03
(PID.TID 0000.0001) %MON dynstat_uvel_sd              =   2.3268543918402E-02
(PID.TID 0000.0001) %MON dynstat_vvel_max             =   3.2408291779860E-01
(PID.TID 0000.0001) %MON dynstat_vvel_min             =  -5.2749277954087E-01
(PID.TID 0000.0001) %MON dynstat_vvel_mean            =  -4.2194145281620E-03
(PID.TID 0000.0001) %MON dynstat_vvel_sd              =   2.6453079578445E-02
(PID.TID 0000.0001) %MON dynstat_wvel_max             =   1.1762262645776E-03
(PID.TID 0000.0001) %MON dynstat_wvel_min             =  -6.5403049159835E-04
(PID.TID 0000.0001) %MON dynstat_wvel_mean            =  -1.1012462186512E-06
(PID.TID 0000.0001) %MON dynstat_wvel_sd              =   3.8742324800817E-05
(PID.TID 0000.0001) %MON dynstat_theta_max            =   3.0712036663080E+01
(PID.TID 0000.0001) %MON dynstat_theta_min            =  -3.6552735770482E+00
(PID.TID 0000.0001) %MON dynstat_theta_mean           =   6.4849281335164E+00
(PID.TID 0000.0001) %MON dynstat_theta_sd             =   6.5306405821308E+00
(PID.TID 0000.0001) %MON dynstat_salt_max             =   3.7411124269509E+01
(PID.TID 0000.0001) %MON dynstat_salt_min             =   3.1065010298419E+01
(PID.TID 0000.0001) %MON dynstat_salt_mean            =   3.4714399164816E+01
(PID.TID 0000.0001) %MON dynstat_salt_sd              =   5.0107336636089E-01
(PID.TID 0000.0001) %MON advcfl_uvel_max              =   1.0502088383931E-01
(PID.TID 0000.0001) %MON advcfl_vvel_max              =   1.2810423387214E-01
(PID.TID 0000.0001) %MON advcfl_wvel_max              =   5.4585023353730E-01
(PID.TID 0000.0001) %MON ke_max                       =   7.8704105368466E-02
(PID.TID 0000.0001) %MON ke_mean                      =   5.9059509570103E-04
(PID.TID 0000.0001) // =======================================================
(PID.TID 0000.0001) // End MONITOR dynamic field statistics
(PID.TID 0000.0001) // =======================================================
(PID.TID 0000.0001)   Seconds in section "ALL                [THE_MODEL_MAIN]":
(PID.TID 0000.0001)           User time:  29.9799995
(PID.TID 0000.0001)         System time:  0.130000001
(PID.TID 0000.0001)     Wall clock time:  30.1769631
(PID.TID 0000.0001)          No. starts: 1
(PID.TID 0000.0001)           No. stops: 1
(PID.TID 0000.0001)   Seconds in section "INITIALISE_FIXED   [THE_MODEL_MAIN]":
(PID.TID 0000.0001)           User time:  0.25999999
(PID.TID 0000.0001)         System time:  0.00999999978
(PID.TID 0000.0001)     Wall clock time:  0.271721959
(PID.TID 0000.0001)          No. starts: 1
(PID.TID 0000.0001)           No. stops: 1
(PID.TID 0000.0001)   Seconds in section "THE_MAIN_LOOP      [THE_MODEL_MAIN]":
(PID.TID 0000.0001)           User time:  29.1900008
(PID.TID 0000.0001)         System time:  0.0599999987
(PID.TID 0000.0001)     Wall clock time:  29.312373
(PID.TID 0000.0001)          No. starts: 1
(PID.TID 0000.0001)           No. stops: 1
(PID.TID 0000.0001)   Seconds in section "INITIALISE_VARIA    [THE_MAIN_LOOP]":
(PID.TID 0000.0001)           User time:  0.219999999
(PID.TID 0000.0001)         System time:  0.0399999991
(PID.TID 0000.0001)     Wall clock time:  0.255960941
(PID.TID 0000.0001)          No. starts: 1
(PID.TID 0000.0001)           No. stops: 1
(PID.TID 0000.0001)   Seconds in section "WRITE_STATE         [THE_MAIN_LOOP]":
(PID.TID 0000.0001)           User time:  0.0900000036
(PID.TID 0000.0001)         System time:  0.0100000016
(PID.TID 0000.0001)     Wall clock time:  0.0987570286
(PID.TID 0000.0001)          No. starts: 1
(PID.TID 0000.0001)           No. stops: 1
(PID.TID 0000.0001)   Seconds in section "MONITOR             [THE_MAIN_LOOP]":
(PID.TID 0000.0001)           User time:  0.0600000024
(PID.TID 0000.0001)         System time:  0.
(PID.TID 0000.0001)     Wall clock time:  0.0573350191
(PID.TID 0000.0001)          No. starts: 1
(PID.TID 0000.0001)           No. stops: 1
(PID.TID 0000.0001)   Seconds in section "MAIN LOOP           [THE_MAIN_LOOP]":
(PID.TID 0000.0001)           User time:  28.8200008
(PID.TID 0000.0001)         System time:  0.00999999791
(PID.TID 0000.0001)     Wall clock time:  28.9000241
(PID.TID 0000.0001)          No. starts: 1
(PID.TID 0000.0001)           No. stops: 1
(PID.TID 0000.0001)   Seconds in section "EXTERNAL_FIELDS_LOAD[THE_MAIN_LOOP]":
(PID.TID 0000.0001)           User time:  0.
(PID.TID 0000.0001)         System time:  0.
(PID.TID 0000.0001)     Wall clock time:  0.00145959854
(PID.TID 0000.0001)          No. starts: 26
(PID.TID 0000.0001)           No. stops: 26
(PID.TID 0000.0001)   Seconds in section "DYNAMICS            [THE_MAIN_LOOP]":
(PID.TID 0000.0001)           User time:  21.5899996
(PID.TID 0000.0001)         System time:  0.00999999791
(PID.TID 0000.0001)     Wall clock time:  21.6754453
(PID.TID 0000.0001)          No. starts: 26
(PID.TID 0000.0001)           No. stops: 26
(PID.TID 0000.0001)   Seconds in section "SOLVE_FOR_PRESSURE  [THE_MAIN_LOOP]":
(PID.TID 0000.0001)           User time:  2.80000424
(PID.TID 0000.0001)         System time:  0.
(PID.TID 0000.0001)     Wall clock time:  2.81061912
(PID.TID 0000.0001)          No. starts: 26
(PID.TID 0000.0001)           No. stops: 26
(PID.TID 0000.0001)   Seconds in section "THE_CORRECTION_STEP [THE_MAIN_LOOP]":
(PID.TID 0000.0001)           User time:  2.00999701
(PID.TID 0000.0001)         System time:  0.
(PID.TID 0000.0001)     Wall clock time:  1.99721777
(PID.TID 0000.0001)          No. starts: 26
(PID.TID 0000.0001)           No. stops: 26
(PID.TID 0000.0001)   Seconds in section "BLOCKING_EXCHANGES  [THE_MAIN_LOOP]":
(PID.TID 0000.0001)           User time:  0.290004969
(PID.TID 0000.0001)         System time:  0.
(PID.TID 0000.0001)     Wall clock time:  0.283385277
(PID.TID 0000.0001)          No. starts: 26
(PID.TID 0000.0001)           No. stops: 26
(PID.TID 0000.0001)   Seconds in section "DO_THE_MODEL_IO     [THE_MAIN_LOOP]":
(PID.TID 0000.0001)           User time:  0.23000145
(PID.TID 0000.0001)         System time:  0.
(PID.TID 0000.0001)     Wall clock time:  0.214843512
(PID.TID 0000.0001)          No. starts: 26
(PID.TID 0000.0001)           No. stops: 26
(PID.TID 0000.0001)   Seconds in section "WRITE_CHECKPOINT    [THE_MAIN_LOOP]":
(PID.TID 0000.0001)           User time:  0.
(PID.TID 0000.0001)         System time:  0.
(PID.TID 0000.0001)     Wall clock time:  0.00145936012
(PID.TID 0000.0001)          No. starts: 26
(PID.TID 0000.0001)           No. stops: 26
(PID.TID 0000.0001)   Seconds in section "WRITE_CHECKPOINT   [THE_MODEL_MAIN]":
(PID.TID 0000.0001)           User time:  0.529998779
(PID.TID 0000.0001)         System time:  0.0600000024
(PID.TID 0000.0001)     Wall clock time:  0.592610002
(PID.TID 0000.0001)          No. starts: 1
(PID.TID 0000.0001)           No. stops: 1
(PID.TID 0000.0001) // ======================================================
(PID.TID 0000.0001) // Tile <-> Tile communication statistics
(PID.TID 0000.0001) // ======================================================
(PID.TID 0000.0001) // o Tile number: 000001
(PID.TID 0000.0001) //         No. X exchanges =              0
(PID.TID 0000.0001) //            Max. X spins =              0
(PID.TID 0000.0001) //            Min. X spins =     1000000000
(PID.TID 0000.0001) //          Total. X spins =              0
(PID.TID 0000.0001) //            Avg. X spins =       0.00E+00
(PID.TID 0000.0001) //         No. Y exchanges =              0
(PID.TID 0000.0001) //            Max. Y spins =              0
(PID.TID 0000.0001) //            Min. Y spins =     1000000000
(PID.TID 0000.0001) //          Total. Y spins =              0
(PID.TID 0000.0001) //            Avg. Y spins =       0.00E+00
(PID.TID 0000.0001) // o Thread number: 000001
(PID.TID 0000.0001) //            No. barriers =          17676
(PID.TID 0000.0001) //      Max. barrier spins =              1
(PID.TID 0000.0001) //      Min. barrier spins =              1
(PID.TID 0000.0001) //     Total barrier spins =          17676
(PID.TID 0000.0001) //      Avg. barrier spins =       1.00E+00
