(PID.TID 0000.0001) 
(PID.TID 0000.0001) // ======================================================
(PID.TID 0000.0001) //                      MITgcm UV
(PID.TID 0000.0001) //                      =========
(PID.TID 0000.0001) // ======================================================
(PID.TID 0000.0001) // execution environment starting up...
(PID.TID 0000.0001) // Run starting Wed Apr  1 14:19:48 1998
(PID.TID 0000.0001) // on melville.lcs.mit.edu
(PID.TID 0000.0001) // account cnh
(PID.TID 0000.0001) // MITgcm UV Release: $Name:  $
(PID.TID 0000.0001) 
(PID.TID 0000.0001) // =======================================================
(PID.TID 0000.0001) // Execution Environment parameter file "eedata"
(PID.TID 0000.0001) // =======================================================
(PID.TID 0000.0001) ># Example "eedata" file
(PID.TID 0000.0001) ># Lines beginning "#" are comments
(PID.TID 0000.0001) ># nTx - No. threads per process in X
(PID.TID 0000.0001) ># nTy - No. threads per process in Y
(PID.TID 0000.0001) > &EEPARMS
(PID.TID 0000.0001) > nTx=1,nTy=1
(PID.TID 0000.0001) > &
(PID.TID 0000.0001) ># Note: Some systems use & as the
(PID.TID 0000.0001) ># namelist terminator. Other systems
(PID.TID 0000.0001) ># use a / character (as shown here).
(PID.TID 0000.0001) 
(PID.TID 0000.0001) // =======================================================
(PID.TID 0000.0001) // Computational Grid Specification ( see files "SIZE.h" )
(PID.TID 0000.0001) //                                  ( and "eedata"       )
(PID.TID 0000.0001) // =======================================================
(PID.TID 0000.0001)      nPx =    1 ; /* No. processes in X */
(PID.TID 0000.0001)      nPy =    1 ; /* No. processes in Y */
(PID.TID 0000.0001)      nSx =    1 ; /* No. tiles in X per process */
(PID.TID 0000.0001)      nSy =    1 ; /* No. tiles in Y per process */
(PID.TID 0000.0001)      sNx =   90 ; /* Tile size in X */
(PID.TID 0000.0001)      sNy =   40 ; /* Tile size in Y */
(PID.TID 0000.0001)      OLx =    3 ; /* Tile overlap distance in X */
(PID.TID 0000.0001)      OLy =    3 ; /* Tile overlap distance in Y */
(PID.TID 0000.0001)      nTx =    1 ; /* No. threads in X per process */
(PID.TID 0000.0001)      nTy =    1 ; /* No. threads in Y per process */
(PID.TID 0000.0001)       Nr =   20 ; /* No. levels in the vertical   */
(PID.TID 0000.0001)       nX =   90 ; /* Total domain size in X ( = nPx*nSx*sNx ) */
(PID.TID 0000.0001)       nY =   40 ; /* Total domain size in Y ( = nPy*nSy*sNy ) */
(PID.TID 0000.0001)   nTiles =    1 ; /* Total no. tiles per process ( = nSx*nSy ) */
(PID.TID 0000.0001)   nProcs =    1 ; /* Total no. processes ( = nPx*nPy ) */
(PID.TID 0000.0001) nThreads =    1 ; /* Total no. threads per process ( = nTx*nTy ) */
(PID.TID 0000.0001) usingMPI =    F ; /* Flag used to control whether MPI is in use */
(PID.TID 0000.0001)                   /*  note: To execute a program with MPI calls */
(PID.TID 0000.0001)                   /*  it must be launched appropriately e.g     */
(PID.TID 0000.0001)                   /*  "mpirun -np 64 ......"                    */
(PID.TID 0000.0001) 
(PID.TID 0000.0001) // ======================================================
(PID.TID 0000.0001) // Mapping of tiles to threads
(PID.TID 0000.0001) // ======================================================
(PID.TID 0000.0001) // -o- Thread   1, tiles (   1:   1,   1:   1)
(PID.TID 0000.0001) 
(PID.TID 0000.0001) // ======================================================
(PID.TID 0000.0001) // Tile <-> Tile connectvity table
(PID.TID 0000.0001) // ======================================================
(PID.TID 0000.0001) // Tile number: 000001 (process no. = 000001)
(PID.TID 0000.0001) //        WEST: Tile = 000001, Process = 000001, Comm = put
(PID.TID 0000.0001) //                bi = 000001, bj = 000001
(PID.TID 0000.0001) //        EAST: Tile = 000001, Process = 000001, Comm = put
(PID.TID 0000.0001) //                bi = 000001, bj = 000001
(PID.TID 0000.0001) //       SOUTH: Tile = 000001, Process = 000001, Comm = put
(PID.TID 0000.0001) //                bi = 000001, bj = 000001
(PID.TID 0000.0001) //       NORTH: Tile = 000001, Process = 000001, Comm = put
(PID.TID 0000.0001) //                bi = 000001, bj = 000001
(PID.TID 0000.0001) 
(PID.TID 0000.0001) // =======================================================
(PID.TID 0000.0001) // Model parameter file "data"
(PID.TID 0000.0001) // =======================================================
(PID.TID 0000.0001) ># ====================
(PID.TID 0000.0001) ># | Model parameters |
(PID.TID 0000.0001) ># ====================
(PID.TID 0000.0001) >#
(PID.TID 0000.0001) ># Continuous equation parameters
(PID.TID 0000.0001) > &PARM01
(PID.TID 0000.0001) > tRef= 16.0 , 15.2 , 14.5 , 13.9 , 13.3 ,
(PID.TID 0000.0001) >       12.4 , 11.3 ,  9.9 ,  8.4 ,  6.7 ,
(PID.TID 0000.0001) >        5.2 ,  3.8 ,  2.9 ,  2.3 ,  1.8 ,
(PID.TID 0000.0001) >        1.5 ,  1.1 ,  0.8 ,  0.66,  0.63,
(PID.TID 0000.0001) > sRef= 34.65, 34.75, 34.82, 34.87, 34.90,
(PID.TID 0000.0001) >       34.90, 34.86, 34.78, 34.69, 34.60,
(PID.TID 0000.0001) >       34.58, 34.62, 34.68, 34.72, 34.73,
(PID.TID 0000.0001) >       34.74, 34.73, 34.73, 34.72, 34.72,
(PID.TID 0000.0001) > viscAz=1.E-3,
(PID.TID 0000.0001) > viscAh=5.E5,
(PID.TID 0000.0001) > no_slip_sides=.FALSE.,
(PID.TID 0000.0001) > no_slip_bottom=.TRUE.,
(PID.TID 0000.0001) > diffKhT=1.E3,
(PID.TID 0000.0001) > diffKzT=3.E-5,
(PID.TID 0000.0001) > diffKhS=1.E3,
(PID.TID 0000.0001) > diffKzS=3.E-5,
(PID.TID 0000.0001) > tAlpha=2.E-4,
(PID.TID 0000.0001) > sBeta =7.4E-4,
(PID.TID 0000.0001) > gravity=9.81,
(PID.TID 0000.0001) > rigidLid=.FALSE.,
(PID.TID 0000.0001) > implicitFreeSurface=.TRUE.,
(PID.TID 0000.0001) > eosType='LINEAR',
(PID.TID 0000.0001) > readBinaryPrec=32,
(PID.TID 0000.0001) > &
(PID.TID 0000.0001) >
(PID.TID 0000.0001) ># Elliptic solver parameters
(PID.TID 0000.0001) > &PARM02
(PID.TID 0000.0001) > cg2dMaxIters=1000,
(PID.TID 0000.0001) > cg2dTargetResidual=1.E-13,
(PID.TID 0000.0001) > &
(PID.TID 0000.0001) >
(PID.TID 0000.0001) ># Time stepping parameters
(PID.TID 0000.0001) > &PARM03
(PID.TID 0000.0001) > startTime=0,
(PID.TID 0000.0001) >#endTime=3110400000,
(PID.TID 0000.0001) > endTime=2808000.,
(PID.TID 0000.0001) > deltaTmom=2400.0,
(PID.TID 0000.0001) > tauCD=321428.,
(PID.TID 0000.0001) > deltaTtracer=108000.0,
(PID.TID 0000.0001) > deltaTClock =108000.0,
(PID.TID 0000.0001) > cAdjFreq=-1.,
(PID.TID 0000.0001) > abEps=0.1,
(PID.TID 0000.0001) > pChkptFreq=0.0,
(PID.TID 0000.0001) > chkptFreq=0.0,
(PID.TID 0000.0001) > dumpFreq=2592000.0,
(PID.TID 0000.0001) > tauThetaClimRelax=2592000.0,
(PID.TID 0000.0001) > tauSaltClimRelax=2592000.0,
(PID.TID 0000.0001) > monitorFreq=1.,
(PID.TID 0000.0001) > &
(PID.TID 0000.0001) >
(PID.TID 0000.0001) ># Gridding parameters
(PID.TID 0000.0001) > &PARM04
(PID.TID 0000.0001) > usingCartesianGrid=.FALSE.,
(PID.TID 0000.0001) > usingSphericalPolarGrid=.TRUE.,
(PID.TID 0000.0001) > delZ= 5.000000e+01, 5.000000e+01, 5.500000e+01, 6.000000e+01,
(PID.TID 0000.0001) >       6.500000e+01, 7.000000e+01, 8.000000e+01, 9.500000e+01,
(PID.TID 0000.0001) >       1.200000e+02, 1.550000e+02, 2.000000e+02, 2.600000e+02,
(PID.TID 0000.0001) >       3.200000e+02, 4.000000e+02, 4.800000e+02, 5.700000e+02,
(PID.TID 0000.0001) >       6.550000e+02, 7.250000e+02, 7.750000e+02, 8.150000e+02,
(PID.TID 0000.0001) > phiMin=-80.,
(PID.TID 0000.0001) > delY=40*4,
(PID.TID 0000.0001) > delX=90*4,
(PID.TID 0000.0001) > &
(PID.TID 0000.0001) >
(PID.TID 0000.0001) ># Input datasets
(PID.TID 0000.0001) > &PARM05
(PID.TID 0000.0001) > hydrogThetaFile='theta.bin',
(PID.TID 0000.0001) > hydrogSaltFile='salt.bin',
(PID.TID 0000.0001) > bathyFile='topog.bin',
(PID.TID 0000.0001) > zonalWindFile='windx.bin',
(PID.TID 0000.0001) > meridWindFile='windy.bin',
(PID.TID 0000.0001) > thetaClimFile='SST.bin'
(PID.TID 0000.0001) > saltClimFile='SSS.bin'
(PID.TID 0000.0001) > &
(PID.TID 0000.0001) 
(PID.TID 0000.0001) S/R INI_PARMS ; read PARM01 : OK
(PID.TID 0000.0001) S/R INI_PARMS ; read PARM02 : OK
(PID.TID 0000.0001) S/R INI_PARMS ; read PARM03 : OK
(PID.TID 0000.0001) S/R INI_PARMS ; read PARM04 : OK
(PID.TID 0000.0001) S/R INI_PARMS ; read PARM05 : OK
(PID.TID 0000.0001) %MON XC_max                       =   3.5800000000000E+02
(PID.TID 0000.0001) %MON XC_min                       =   2.0000000000000E+00
(PID.TID 0000.0001) %MON XC_mean                      =   1.8000000000000E+02
(PID.TID 0000.0001) %MON XC_sd                        =   1.0391663325314E+02
(PID.TID 0000.0001) %MON XG_max                       =   3.5600000000000E+02
(PID.TID 0000.0001) %MON XG_min                       =   4.0000000000000E+00
(PID.TID 0000.0001) %MON XG_mean                      =   1.8000000000000E+02
(PID.TID 0000.0001) %MON XG_sd                        =   1.0276186062932E+02
(PID.TID 0000.0001) %MON DXC_max                      =   4.4443898815675E+05
(PID.TID 0000.0001) %MON DXC_min                      =   9.2460385861875E+04
(PID.TID 0000.0001) %MON DXC_mean                     =   3.1372497618153E+05
(PID.TID 0000.0001) %MON DXC_sd                       =   1.1216447457560E+05
(PID.TID 0000.0001) %MON DXF_max                      =   4.4443898815675E+05
(PID.TID 0000.0001) %MON DXF_min                      =   9.2460385861875E+04
(PID.TID 0000.0001) %MON DXF_mean                     =   3.1372497618153E+05
(PID.TID 0000.0001) %MON DXF_sd                       =   1.1216447457560E+05
(PID.TID 0000.0001) %MON DXG_max                      =   4.4470989340816E+05
(PID.TID 0000.0001) %MON DXG_min                      =   7.7223062580781E+04
(PID.TID 0000.0001) %MON DXG_mean                     =   3.1353386340260E+05
(PID.TID 0000.0001) %MON DXG_sd                       =   1.1256651772502E+05
(PID.TID 0000.0001) %MON DXV_max                      =   4.4470989340816E+05
(PID.TID 0000.0001) %MON DXV_min                      =   7.7223062580781E+04
(PID.TID 0000.0001) %MON DXV_mean                     =   3.1353386340260E+05
(PID.TID 0000.0001) %MON DXV_sd                       =   1.1256651772502E+05
(PID.TID 0000.0001) %MON YC_max                       =   7.8000000000000E+01
(PID.TID 0000.0001) %MON YC_min                       =  -7.8000000000000E+01
(PID.TID 0000.0001) %MON YC_mean                      =   0.0000000000000E+00
(PID.TID 0000.0001) %MON YC_sd                        =   4.6173585522461E+01
(PID.TID 0000.0001) %MON YG_max                       =   7.6000000000000E+01
(PID.TID 0000.0001) %MON YG_min                       =  -8.0000000000000E+01
(PID.TID 0000.0001) %MON YG_mean                      =  -2.0512820512821E+00
(PID.TID 0000.0001) %MON YG_sd                        =   4.6760682979564E+01
(PID.TID 0000.0001) %MON DYC_max                      =   4.4470989340816E+05
(PID.TID 0000.0001) %MON DYC_min                      =   4.4470989340816E+05
(PID.TID 0000.0001) %MON DYC_mean                     =   4.4470989340814E+05
(PID.TID 0000.0001) %MON DYC_sd                       =   1.9848812371492E-08
(PID.TID 0000.0001) %MON DYF_max                      =   4.4470989340816E+05
(PID.TID 0000.0001) %MON DYF_min                      =   4.4470989340816E+05
(PID.TID 0000.0001) %MON DYF_mean                     =   4.4470989340814E+05
(PID.TID 0000.0001) %MON DYF_sd                       =   1.9848812371492E-08
(PID.TID 0000.0001) %MON DYG_max                      =   4.4470989340816E+05
(PID.TID 0000.0001) %MON DYG_min                      =   4.4470989340816E+05
(PID.TID 0000.0001) %MON DYG_mean                     =   4.4470989340814E+05
(PID.TID 0000.0001) %MON DYG_sd                       =   1.9848812371492E-08
(PID.TID 0000.0001) %MON DYU_max                      =   4.4470989340816E+05
(PID.TID 0000.0001) %MON DYU_min                      =   4.4470989340816E+05
(PID.TID 0000.0001) %MON DYU_mean                     =   4.4470989340814E+05
(PID.TID 0000.0001) %MON DYU_sd                       =   1.9848812371492E-08
(PID.TID 0000.0001) %MON RA_max                       =   1.9760627980089E+11
(PID.TID 0000.0001) %MON RA_min                       =   4.1109698667291E+10
(PID.TID 0000.0001) %MON RA_mean                      =   1.3948826965197E+11
(PID.TID 0000.0001) %MON RA_sd                        =   4.9870522472902E+10
(PID.TID 0000.0001) %MON RAW_max                      =   1.9760627980089E+11
(PID.TID 0000.0001) %MON RAW_min                      =   4.1109698667291E+10
(PID.TID 0000.0001) %MON RAW_mean                     =   1.3948826965197E+11
(PID.TID 0000.0001) %MON RAW_sd                       =   4.9870522472902E+10
(PID.TID 0000.0001) %MON RAS_max                      =   1.9772672958215E+11
(PID.TID 0000.0001) %MON RAS_min                      =   3.4334886267982E+10
(PID.TID 0000.0001) %MON RAS_mean                     =   1.3940329716694E+11
(PID.TID 0000.0001) %MON RAS_sd                       =   5.0049278732354E+10
(PID.TID 0000.0001) %MON RAZ_max                      =   1.9772672958215E+11
(PID.TID 0000.0001) %MON RAZ_min                      =   3.4334886267982E+10
(PID.TID 0000.0001) %MON RAZ_mean                     =   1.3940329716694E+11
(PID.TID 0000.0001) %MON RAZ_sd                       =   5.0049278732354E+10
(PID.TID 0000.0001)  MDSREADFIELD: opening global file: topog.bin
(PID.TID 0000.0001) // =======================================================
(PID.TID 0000.0001) // Field Model R_low (ini_masks_etc) at iteration          1
(PID.TID 0000.0001) // CMIN =         -6.000000000000000E+03
(PID.TID 0000.0001) // CMAX =         -5.000000000000000E+01
(PID.TID 0000.0001) // CINT =          2.203703703703704E+02
(PID.TID 0000.0001) // SYMBOLS (CMIN->CMAX): -abcdefghijklmnopqrstuvwxyz+
(PID.TID 0000.0001) //                  0.0: .
(PID.TID 0000.0001) // RANGE I (Lo:Hi:Step):(  -2:  93:   1)
(PID.TID 0000.0001) // RANGE J (Lo:Hi:Step):(  43:  -2:  -1)
(PID.TID 0000.0001) // RANGE K (Lo:Hi:Step):(   1:   1:   1)
(PID.TID 0000.0001) // =======================================================
(PID.TID 0000.0001) K =   1
(PID.TID 0000.0001) //                I=7       I=17      I=27      I=37      I=47      I=57      I=67      I=77      I=87
(PID.TID 0000.0001) // |--J--|**0123456|890123456|890123456|890123456|890123456|890123456|890123456|890123456|890123456|890123
(PID.TID 0000.0001) //     43 ................................................................................................
(PID.TID 0000.0001) //     42 ..............................................yyxwrpmm...........................xwtt...........
(PID.TID 0000.0001) //     41 ................................................................................................
(PID.TID 0000.0001) //     40 ................................................................................................
(PID.TID 0000.0001) //     39 ppmmmprxz...................................................................rtw.........wrppmmmp
(PID.TID 0000.0001) //     38 rmmmmmr......................................................................vw........wwtrmmmmm
(PID.TID 0000.0001) //     37 vmmpw........................................................................xrr...rprv..tvmmpw.
(PID.TID 0000.0001) //     36 txxz..........................................mmprz..........................vpmm.mmprrpprtxxz..
(PID.TID 0000.0001) //     35 r..++.................................ywxz.kgmmmmmmvr.ggkkmr..................pkkkkmpmmprpr..++.
(PID.TID 0000.0001) //     34 w......................................wwwd-gd------d-ggkkkmp..................xmkkkkkkkgmw.....
(PID.TID 0000.0001) //     33 gg.....................................mm-----------ddddggkkpr...............zz.tmkgkkkggggg....
(PID.TID 0000.0001) //     32 g......................................k---d--------dddddgkkkp...............pkgkgdgkmmkgdg.....
(PID.TID 0000.0001) //     31 .......................................-----d------dddddd-dggg.............kgdd-dd-gkpkgdd......
(PID.TID 0000.0001) //     30 d.....................................----d--d-gddd----dd-dddg............gdddd---dkmkddddd.....
(PID.TID 0000.0001) //     29 k.................................zvgk----d---ddd-------ddddgkkm.........pd-dd---gkkgk-dgkk.....
(PID.TID 0000.0001) //     28 .................................yrggd----------dddd----ddgggkkk......pm.gddd----ggd--ddkm......
(PID.TID 0000.0001) //     27 ..................................---dd---------dddgggdddddggkkkkm...kkmrrd-----dkg---dgk.......
(PID.TID 0000.0001) //     26 ..................kmm....t.....mkg---dg----ddddgdddddgdddddddgkkkmk..m.kggk-----gkg--ddgm.......
(PID.TID 0000.0001) //     25 ................kkkkk..mmpp...rkk.d--dg----dddddd-dd-dd---dddggkkkkk....kkkgdd-dgkd---dkk.......
(PID.TID 0000.0001) //     24 ...............pkkkkkt.kkmp...kkk.---------dggd---dd-dd--dddgggkkkkmkgk.mkk.dpgddgg---dgk.......
(PID.TID 0000.0001) //     23 ................dgkggmpkkkk.++ppkk----kggddddkd----dgdddddgggggkkkkmkkkm......mkggkkdddggg......
(PID.TID 0000.0001) //     22 ggggk..........ddgkkkmkkkkk..++..d--dggdgkkggkgdd--ddkgddggkkkkkkkkmmkkmm.......mkkgkkkgddggggk.
(PID.TID 0000.0001) //     21 dddgk.........gddggkkggggggg.....ppkkgkgdkpkkkgd----ddgggkkkkggkkkkkmmmmm........kkkkgkgdddddgk.
(PID.TID 0000.0001) //     20 gdgggk.......kddgkgkggddggdd.......d...rrmrkkkdd----dddggggggggkkkkkkkkk............kdd-dggdgggk
(PID.TID 0000.0001) //     19 kgdddg.......kggkkkkmddddddd--.kkkg-t...-dkkkddgd--ggddddkkgggkkkkkkkkkkd...........gd-dgkkgdddg
(PID.TID 0000.0001) //     18 kddddg.......mkkkkkkkdddgd-------mv....mkkmd-kkkkgddkddgggkkkkkkkkkkkkkggg..........gd-dgkkddddg
(PID.TID 0000.0001) //     17 kgd-dg.......m..gkkkggddg--------t......ggkggkmmp--ddgggkkkkkkkkmkkkkkgggk..........gd--gkkgd-dg
(PID.TID 0000.0001) //     16 kgdddg......mp.ddkkmkggdg------k........wmmmgdkkp-ddggggggkkkkkkmkkkkkgkkgd........kgd--gkkgdddg
(PID.TID 0000.0001) //     15 g-ddkg......kk.dddgkkkggggd---g..........ggpmggkr--ddgggggkkkkkmmkkkkkkkkgk.......pkgdddgkg-ddkg
(PID.TID 0000.0001) //     14 kgdddgk....rggkdd-ggkkkkgggddd-...........gpkkgk--ddddgggkkkkkkmmmkkkkkkkkd......mkkgd-gkkkgdddg
(PID.TID 0000.0001) //     13 kgkdddk...kmdgkggkggggkkkkkgddd..........-gtkkkk-----dgddggkkkkkmmkkkkkkkkg.....mkkkggggkmkgkddd
(PID.TID 0000.0001) //     12 kkgdddgkgkkdddmkggdggkmkkkkkdddd.d---....dddprtm-----dd-ddggggkkkmkkkkkkkkg....pddddgkkkmkkkgddd
(PID.TID 0000.0001) //     11 kkgddggddkgddgmkgddgkkmkkkkkggggd----ddxkgddkw.mgdgddgddddddggkkkkkkgkkkkk....pdddddddkkmmkkgddg
(PID.TID 0000.0001) //     10 kkkgggddddddkmmmgddkkkmmmmkkkkkggggggggkkdddk.tpmddddgddddddggkkkkkkgggkkk...+gd-ddddggkkmkkkggg
(PID.TID 0000.0001) //      9 mkkkkgdddddggkkkkgkmpmmkkkkmkmkkkkkkkgkkgddgkwtpddddddddggggggkkmkkkkgggkk...xg------ddgkkmkkkkg
(PID.TID 0000.0001) //      8 kpmkkkkkkdddgkkgggggkrpkgkkkkkkkkkkkkkkkkgggkwgd---ddddggkkkkkkmkkggddgggk..zxrpmmkggggkkkkpmkkk
(PID.TID 0000.0001) //      7 kkkgddddgd----ddddgggkmgddkkkkkkggggkkkkkkkgddddddddgggkkkkkkmmkkdddddddggkkkkkgkkkkg---gkkkkgdd
(PID.TID 0000.0001) //      6 ddddddddd--d--dddddgggkpkggkkkkkgggggkkkkkmdddddgggggkmmkkggddddddddddddddggkkkkkkkkkk-dgddddddd
(PID.TID 0000.0001) //      5 -dddddddddddddgddgkgkkmmmmkk.kkkkkkkkkkkkmmpkkkkkkmmmkkkkkggddddddgdddggggkkk.xpkkgggggddd-ddddd
(PID.TID 0000.0001) //      4 ggkkkkkgggk.k..............................rpmmmkkkkkkkkkkkkgggggggggkgkkkm...xmkkkkggggggggkkkk
(PID.TID 0000.0001) //      3 ..............................................ppmkkkkkkkkkkkkmmpmmmm..........wpmkkkkkkkk.......
(PID.TID 0000.0001) //      2 ..............................................yyxwrpmm...........................xwtt...........
(PID.TID 0000.0001) //      1 ................................................................................................
(PID.TID 0000.0001) //      0 ................................................................................................
(PID.TID 0000.0001) //     -1 ppmmmprxz...................................................................rtw.........wrppmmmp
(PID.TID 0000.0001) //     -2 ................................................................................................
(PID.TID 0000.0001) // =======================================================
(PID.TID 0000.0001) // END OF FIELD                                          =
(PID.TID 0000.0001) // =======================================================
(PID.TID 0000.0001) 
(PID.TID 0000.0001) // =======================================================
(PID.TID 0000.0001) // Field Model Ro_surf (ini_masks_etc) at iteration          1
(PID.TID 0000.0001) // CMIN =          1.000000000000000E+32
(PID.TID 0000.0001) // CMAX =         -1.000000000000000E+32
(PID.TID 0000.0001) // CINT =          0.000000000000000E+00
(PID.TID 0000.0001) // SYMBOLS (CMIN->CMAX): -abcdefghijklmnopqrstuvwxyz+
(PID.TID 0000.0001) //                  0.0: .
(PID.TID 0000.0001) // RANGE I (Lo:Hi:Step):(  -2:  93:   1)
(PID.TID 0000.0001) // RANGE J (Lo:Hi:Step):(  43:  -2:  -1)
(PID.TID 0000.0001) // RANGE K (Lo:Hi:Step):(   1:   1:   1)
(PID.TID 0000.0001) // =======================================================
(PID.TID 0000.0001) K =   1
(PID.TID 0000.0001) //                I=7       I=17      I=27      I=37      I=47      I=57      I=67      I=77      I=87
(PID.TID 0000.0001) // |--J--|**0123456|890123456|890123456|890123456|890123456|890123456|890123456|890123456|890123456|890123
(PID.TID 0000.0001) //     43 ................................................................................................
(PID.TID 0000.0001) //     42 ................................................................................................
(PID.TID 0000.0001) //     41 ................................................................................................
(PID.TID 0000.0001) //     40 ................................................................................................
(PID.TID 0000.0001) //     39 ................................................................................................
(PID.TID 0000.0001) //     38 ................................................................................................
(PID.TID 0000.0001) //     37 ................................................................................................
(PID.TID 0000.0001) //     36 ................................................................................................
(PID.TID 0000.0001) //     35 ................................................................................................
(PID.TID 0000.0001) //     34 ................................................................................................
(PID.TID 0000.0001) //     33 ................................................................................................
(PID.TID 0000.0001) //     32 ................................................................................................
(PID.TID 0000.0001) //     31 ................................................................................................
(PID.TID 0000.0001) //     30 ................................................................................................
(PID.TID 0000.0001) //     29 ................................................................................................
(PID.TID 0000.0001) //     28 ................................................................................................
(PID.TID 0000.0001) //     27 ................................................................................................
(PID.TID 0000.0001) //     26 ................................................................................................
(PID.TID 0000.0001) //     25 ................................................................................................
(PID.TID 0000.0001) //     24 ................................................................................................
(PID.TID 0000.0001) //     23 ................................................................................................
(PID.TID 0000.0001) //     22 ................................................................................................
(PID.TID 0000.0001) //     21 ................................................................................................
(PID.TID 0000.0001) //     20 ................................................................................................
(PID.TID 0000.0001) //     19 ................................................................................................
(PID.TID 0000.0001) //     18 ................................................................................................
(PID.TID 0000.0001) //     17 ................................................................................................
(PID.TID 0000.0001) //     16 ................................................................................................
(PID.TID 0000.0001) //     15 ................................................................................................
(PID.TID 0000.0001) //     14 ................................................................................................
(PID.TID 0000.0001) //     13 ................................................................................................
(PID.TID 0000.0001) //     12 ................................................................................................
(PID.TID 0000.0001) //     11 ................................................................................................
(PID.TID 0000.0001) //     10 ................................................................................................
(PID.TID 0000.0001) //      9 ................................................................................................
(PID.TID 0000.0001) //      8 ................................................................................................
(PID.TID 0000.0001) //      7 ................................................................................................
(PID.TID 0000.0001) //      6 ................................................................................................
(PID.TID 0000.0001) //      5 ................................................................................................
(PID.TID 0000.0001) //      4 ................................................................................................
(PID.TID 0000.0001) //      3 ................................................................................................
(PID.TID 0000.0001) //      2 ................................................................................................
(PID.TID 0000.0001) //      1 ................................................................................................
(PID.TID 0000.0001) //      0 ................................................................................................
(PID.TID 0000.0001) //     -1 ................................................................................................
(PID.TID 0000.0001) //     -2 ................................................................................................
(PID.TID 0000.0001) // =======================================================
(PID.TID 0000.0001) // END OF FIELD                                          =
(PID.TID 0000.0001) // =======================================================
(PID.TID 0000.0001) 
(PID.TID 0000.0001) // =======================================================
(PID.TID 0000.0001) // Field hFacC at iteration          1
(PID.TID 0000.0001) // CMIN =          1.000000000000000E+00
(PID.TID 0000.0001) // CMAX =          1.000000000000000E+00
(PID.TID 0000.0001) // CINT =          0.000000000000000E+00
(PID.TID 0000.0001) // SYMBOLS (CMIN->CMAX): -abcdefghijklmnopqrstuvwxyz+
(PID.TID 0000.0001) //                  0.0: .
(PID.TID 0000.0001) // RANGE I (Lo:Hi:Step):(  -2:  93:   1)
(PID.TID 0000.0001) // RANGE J (Lo:Hi:Step):(  43:  -2:  -1)
(PID.TID 0000.0001) // RANGE K (Lo:Hi:Step):(   1:   1:   1)
(PID.TID 0000.0001) // =======================================================
(PID.TID 0000.0001) K =   1
(PID.TID 0000.0001) //                I=7       I=17      I=27      I=37      I=47      I=57      I=67      I=77      I=87
(PID.TID 0000.0001) // |--J--|**0123456|890123456|890123456|890123456|890123456|890123456|890123456|890123456|890123456|890123
(PID.TID 0000.0001) //     43 ................................................................................................
(PID.TID 0000.0001) //     42 ..............................................--------...........................----...........
(PID.TID 0000.0001) //     41 ................................................................................................
(PID.TID 0000.0001) //     40 ................................................................................................
(PID.TID 0000.0001) //     39 ---------...................................................................---.........--------
(PID.TID 0000.0001) //     38 -------......................................................................--........---------
(PID.TID 0000.0001) //     37 -----........................................................................---...----..------.
(PID.TID 0000.0001) //     36 ----..........................................-----..........................----.------------..
(PID.TID 0000.0001) //     35 -..--.................................----.----------.------..................-------------..--.
(PID.TID 0000.0001) //     34 -......................................----------------------..................------------.....
(PID.TID 0000.0001) //     33 --.....................................-----------------------...............--.------------....
(PID.TID 0000.0001) //     32 -......................................-----------------------...............--------------.....
(PID.TID 0000.0001) //     31 .......................................-----------------------.............---------------......
(PID.TID 0000.0001) //     30 -.....................................------------------------............-----------------.....
(PID.TID 0000.0001) //     29 -.................................------------------------------.........------------------.....
(PID.TID 0000.0001) //     28 .................................-------------------------------......--.-----------------......
(PID.TID 0000.0001) //     27 ..................................--------------------------------...--------------------.......
(PID.TID 0000.0001) //     26 ..................---....-.....------------------------------------..-.------------------.......
(PID.TID 0000.0001) //     25 ................-----..----...---.----------------------------------....-----------------.......
(PID.TID 0000.0001) //     24 ...............-------.----...---.-------------------------------------.---.-------------.......
(PID.TID 0000.0001) //     23 ................-----------.--------------------------------------------......------------......
(PID.TID 0000.0001) //     22 -----..........------------..--..----------------------------------------.......---------------.
(PID.TID 0000.0001) //     21 -----.........--------------.....----------------------------------------........--------------.
(PID.TID 0000.0001) //     20 ------.......---------------.......-...---------------------------------............------------
(PID.TID 0000.0001) //     19 ------.......-----------------.------...---------------------------------...........------------
(PID.TID 0000.0001) //     18 ------.......----------------------....-----------------------------------..........------------
(PID.TID 0000.0001) //     17 ------.......-..------------------......----------------------------------..........------------
(PID.TID 0000.0001) //     16 ------......--.-----------------........-----------------------------------........-------------
(PID.TID 0000.0001) //     15 ------......--.----------------..........----------------------------------.......--------------
(PID.TID 0000.0001) //     14 -------....--------------------...........---------------------------------......---------------
(PID.TID 0000.0001) //     13 -------...---------------------..........----------------------------------.....----------------
(PID.TID 0000.0001) //     12 --------------------------------.----....----------------------------------....-----------------
(PID.TID 0000.0001) //     11 ----------------------------------------------.---------------------------....------------------
(PID.TID 0000.0001) //     10 ---------------------------------------------.----------------------------...-------------------
(PID.TID 0000.0001) //      9 --------------------------------------------------------------------------...-------------------
(PID.TID 0000.0001) //      8 --------------------------------------------------------------------------..--------------------
(PID.TID 0000.0001) //      7 ------------------------------------------------------------------------------------------------
(PID.TID 0000.0001) //      6 ------------------------------------------------------------------------------------------------
(PID.TID 0000.0001) //      5 ----------------------------.------------------------------------------------.------------------
(PID.TID 0000.0001) //      4 -----------.-..............................--------------------------------...------------------
(PID.TID 0000.0001) //      3 ..............................................----------------------..........-----------.......
(PID.TID 0000.0001) //      2 ..............................................--------...........................----...........
(PID.TID 0000.0001) //      1 ................................................................................................
(PID.TID 0000.0001) //      0 ................................................................................................
(PID.TID 0000.0001) //     -1 ---------...................................................................---.........--------
(PID.TID 0000.0001) //     -2 ................................................................................................
(PID.TID 0000.0001) // =======================================================
(PID.TID 0000.0001) // END OF FIELD                                          =
(PID.TID 0000.0001) // =======================================================
(PID.TID 0000.0001) 
(PID.TID 0000.0001) // =======================================================
(PID.TID 0000.0001) // Field hFacW at iteration          1
(PID.TID 0000.0001) // CMIN =          1.000000000000000E+00
(PID.TID 0000.0001) // CMAX =          1.000000000000000E+00
(PID.TID 0000.0001) // CINT =          0.000000000000000E+00
(PID.TID 0000.0001) // SYMBOLS (CMIN->CMAX): -abcdefghijklmnopqrstuvwxyz+
(PID.TID 0000.0001) //                  0.0: .
(PID.TID 0000.0001) // RANGE I (Lo:Hi:Step):(  -2:  93:   1)
(PID.TID 0000.0001) // RANGE J (Lo:Hi:Step):(  43:  -2:  -1)
(PID.TID 0000.0001) // RANGE K (Lo:Hi:Step):(   1:   1:   1)
(PID.TID 0000.0001) // =======================================================
(PID.TID 0000.0001) K =   1
(PID.TID 0000.0001) //                I=7       I=17      I=27      I=37      I=47      I=57      I=67      I=77      I=87
(PID.TID 0000.0001) // |--J--|**0123456|890123456|890123456|890123456|890123456|890123456|890123456|890123456|890123456|890123
(PID.TID 0000.0001) //     43 ...............................................---------------------...........----------.......
(PID.TID 0000.0001) //     42 ...............................................-------............................---...........
(PID.TID 0000.0001) //     41 ................................................................................................
(PID.TID 0000.0001) //     40 ................................................................................................
(PID.TID 0000.0001) //     39 ---------....................................................................--..........-------
(PID.TID 0000.0001) //     38 -------.......................................................................-.........--------
(PID.TID 0000.0001) //     37 -----.........................................................................--....---...-----.
(PID.TID 0000.0001) //     36 ----...........................................----...........................---..-----------..
(PID.TID 0000.0001) //     35 -...-..................................---..---------..-----...................------------...-.
(PID.TID 0000.0001) //     34 -.......................................---------------------...................-----------.....
(PID.TID 0000.0001) //     33 --......................................----------------------................-..-----------....
(PID.TID 0000.0001) //     32 -.......................................----------------------................-------------.....
(PID.TID 0000.0001) //     31 ........................................----------------------..............--------------......
(PID.TID 0000.0001) //     30 -......................................-----------------------.............----------------.....
(PID.TID 0000.0001) //     29 -..................................-----------------------------..........-----------------.....
(PID.TID 0000.0001) //     28 ..................................------------------------------.......-..----------------......
(PID.TID 0000.0001) //     27 ...................................-------------------------------....-------------------.......
(PID.TID 0000.0001) //     26 ...................--...........-----------------------------------.....-----------------.......
(PID.TID 0000.0001) //     25 .................----...---....--..---------------------------------.....----------------.......
(PID.TID 0000.0001) //     24 ................------..---....--..------------------------------------..--..------------.......
(PID.TID 0000.0001) //     23 .................----------..-------------------------------------------.......-----------......
(PID.TID 0000.0001) //     22 -----...........-----------...-...---------------------------------------........--------------.
(PID.TID 0000.0001) //     21 -----..........-------------......---------------------------------------.........-------------.
(PID.TID 0000.0001) //     20 ------........--------------............--------------------------------.............-----------
(PID.TID 0000.0001) //     19 ------........----------------..-----....--------------------------------............-----------
(PID.TID 0000.0001) //     18 ------........---------------------.....----------------------------------...........-----------
(PID.TID 0000.0001) //     17 ------...........-----------------.......---------------------------------...........-----------
(PID.TID 0000.0001) //     16 ------.......-..----------------.........----------------------------------.........------------
(PID.TID 0000.0001) //     15 ------.......-..---------------...........---------------------------------........-------------
(PID.TID 0000.0001) //     14 -------.....-------------------............--------------------------------.......--------------
(PID.TID 0000.0001) //     13 -------....--------------------...........---------------------------------......---------------
(PID.TID 0000.0001) //     12 --------------------------------..---.....---------------------------------.....----------------
(PID.TID 0000.0001) //     11 ----------------------------------------------..--------------------------.....-----------------
(PID.TID 0000.0001) //     10 ---------------------------------------------..---------------------------....------------------
(PID.TID 0000.0001) //      9 --------------------------------------------------------------------------....------------------
(PID.TID 0000.0001) //      8 --------------------------------------------------------------------------...-------------------
(PID.TID 0000.0001) //      7 ------------------------------------------------------------------------------------------------
(PID.TID 0000.0001) //      6 ------------------------------------------------------------------------------------------------
(PID.TID 0000.0001) //      5 ----------------------------..-----------------------------------------------..-----------------
(PID.TID 0000.0001) //      4 -----------.................................-------------------------------....-----------------
(PID.TID 0000.0001) //      3 ...............................................---------------------...........----------.......
(PID.TID 0000.0001) //      2 ...............................................-------............................---...........
(PID.TID 0000.0001) //      1 ................................................................................................
(PID.TID 0000.0001) //      0 ................................................................................................
(PID.TID 0000.0001) //     -1 ---------....................................................................--..........-------
(PID.TID 0000.0001) //     -2 -------.......................................................................-.........--------
(PID.TID 0000.0001) // =======================================================
(PID.TID 0000.0001) // END OF FIELD                                          =
(PID.TID 0000.0001) // =======================================================
(PID.TID 0000.0001) 
(PID.TID 0000.0001) // =======================================================
(PID.TID 0000.0001) // Field hFacS at iteration          1
(PID.TID 0000.0001) // CMIN =          1.000000000000000E+00
(PID.TID 0000.0001) // CMAX =          1.000000000000000E+00
(PID.TID 0000.0001) // CINT =          0.000000000000000E+00
(PID.TID 0000.0001) // SYMBOLS (CMIN->CMAX): -abcdefghijklmnopqrstuvwxyz+
(PID.TID 0000.0001) //                  0.0: .
(PID.TID 0000.0001) // RANGE I (Lo:Hi:Step):(  -2:  93:   1)
(PID.TID 0000.0001) // RANGE J (Lo:Hi:Step):(  43:  -2:  -1)
(PID.TID 0000.0001) // RANGE K (Lo:Hi:Step):(   1:   1:   1)
(PID.TID 0000.0001) // =======================================================
(PID.TID 0000.0001) K =   1
(PID.TID 0000.0001) //                I=7       I=17      I=27      I=37      I=47      I=57      I=67      I=77      I=87
(PID.TID 0000.0001) // |--J--|**0123456|890123456|890123456|890123456|890123456|890123456|890123456|890123456|890123456|890123
(PID.TID 0000.0001) //     43 ..............................................--------...........................----...........
(PID.TID 0000.0001) //     42 ................................................................................................
(PID.TID 0000.0001) //     41 ................................................................................................
(PID.TID 0000.0001) //     40 ................................................................................................
(PID.TID 0000.0001) //     39 -------......................................................................--.........--------
(PID.TID 0000.0001) //     38 -----........................................................................--..........------.
(PID.TID 0000.0001) //     37 ----.........................................................................---...----..-----..
(PID.TID 0000.0001) //     36 -..-..........................................-----...........................---.---------..-..
(PID.TID 0000.0001) //     35 -......................................---.----------.------...................------------.....
(PID.TID 0000.0001) //     34 -......................................----------------------...................-----------.....
(PID.TID 0000.0001) //     33 -......................................-----------------------...............--.-----------.....
(PID.TID 0000.0001) //     32 .......................................-----------------------...............-------------......
(PID.TID 0000.0001) //     31 .......................................-----------------------.............---------------......
(PID.TID 0000.0001) //     30 -.....................................------------------------............-----------------.....
(PID.TID 0000.0001) //     29 ..................................------------------------------.........-----------------......
(PID.TID 0000.0001) //     28 ..................................------------------------------......--.----------------.......
(PID.TID 0000.0001) //     27 ..................................--------------------------------...-.------------------.......
(PID.TID 0000.0001) //     26 ..................---....-.....--.---------------------------------.....-----------------.......
(PID.TID 0000.0001) //     25 ................-----..----...---.----------------------------------....---.-------------.......
(PID.TID 0000.0001) //     24 ................------.----...---.-------------------------------------.......-----------.......
(PID.TID 0000.0001) //     23 ................-----------..--..---------------------------------------........----------......
(PID.TID 0000.0001) //     22 -----..........------------......----------------------------------------........--------------.
(PID.TID 0000.0001) //     21 -----.........--------------.......-...---------------------------------............-----------.
(PID.TID 0000.0001) //     20 ------.......---------------.......-....--------------------------------............------------
(PID.TID 0000.0001) //     19 ------.......-----------------.----.....---------------------------------...........------------
(PID.TID 0000.0001) //     18 ------.......-..------------------......----------------------------------..........------------
(PID.TID 0000.0001) //     17 ------.......-..----------------........----------------------------------..........------------
(PID.TID 0000.0001) //     16 ------......--.----------------..........----------------------------------........-------------
(PID.TID 0000.0001) //     15 ------......--.----------------...........---------------------------------.......--------------
(PID.TID 0000.0001) //     14 -------....--------------------...........---------------------------------......---------------
(PID.TID 0000.0001) //     13 -------...---------------------..........----------------------------------.....----------------
(PID.TID 0000.0001) //     12 --------------------------------.----....-----.---------------------------.....-----------------
(PID.TID 0000.0001) //     11 ---------------------------------------------..---------------------------....------------------
(PID.TID 0000.0001) //     10 ---------------------------------------------.----------------------------...-------------------
(PID.TID 0000.0001) //      9 --------------------------------------------------------------------------...-------------------
(PID.TID 0000.0001) //      8 --------------------------------------------------------------------------..--------------------
(PID.TID 0000.0001) //      7 ------------------------------------------------------------------------------------------------
(PID.TID 0000.0001) //      6 ----------------------------.------------------------------------------------.------------------
(PID.TID 0000.0001) //      5 -----------.-..............................--------------------------------...------------------
(PID.TID 0000.0001) //      4 ..............................................----------------------..........-----------.......
(PID.TID 0000.0001) //      3 ..............................................--------...........................----...........
(PID.TID 0000.0001) //      2 ................................................................................................
(PID.TID 0000.0001) //      1 ................................................................................................
(PID.TID 0000.0001) //      0 ................................................................................................
(PID.TID 0000.0001) //     -1 -------......................................................................--.........--------
(PID.TID 0000.0001) //     -2 ................................................................................................
(PID.TID 0000.0001) // =======================================================
(PID.TID 0000.0001) // END OF FIELD                                          =
(PID.TID 0000.0001) // =======================================================
(PID.TID 0000.0001) 
(PID.TID 0000.0001) %MON fCori_max                    =   1.4226580169407E-04
(PID.TID 0000.0001) %MON fCori_min                    =  -1.4226580169407E-04
(PID.TID 0000.0001) %MON fCori_mean                   =   7.5291817533716E-23
(PID.TID 0000.0001) %MON fCori_sd                     =   9.6335367303778E-05
(PID.TID 0000.0001) %MON fCoriG_max                   =   1.4112379284621E-04
(PID.TID 0000.0001) %MON fCoriG_min                   =  -1.4323448157692E-04
(PID.TID 0000.0001) %MON fCoriG_mean                  =  -3.6726790147928E-06
(PID.TID 0000.0001) %MON fCoriG_sd                    =   9.7510077443652E-05
(PID.TID 0000.0001)  PACKAGES_BOOT: opening data.pkg
(PID.TID 0000.0001)  OPEN_COPY_DATA_FILE: opening file data.pkg
(PID.TID 0000.0001) // =======================================================
(PID.TID 0000.0001) // Parameter file "data.pkg"
(PID.TID 0000.0001) // =======================================================
(PID.TID 0000.0001) ># Packages
(PID.TID 0000.0001) > &PACKAGES
(PID.TID 0000.0001) > &
(PID.TID 0000.0001) 
(PID.TID 0000.0001)  PACKAGES_BOOT: finished reading data.pkg
(PID.TID 0000.0001) // CG2D normalisation factor =          0.8831987737220081712604530E-04
(PID.TID 0000.0001) 
(PID.TID 0000.0001) // =======================================================
(PID.TID 0000.0001) // Model configuration
(PID.TID 0000.0001) // =======================================================
(PID.TID 0000.0001) //
(PID.TID 0000.0001) // "Physical" paramters ( PARM01 in namelist )
(PID.TID 0000.0001) //
(PID.TID 0000.0001) tRef =   /* Reference temperature profile ( oC or oK ) */
(PID.TID 0000.0001)                 1.600000000000000E+01,      /* K =  1 */
(PID.TID 0000.0001)                 1.520000000000000E+01,      /* K =  2 */
(PID.TID 0000.0001)                 1.450000000000000E+01,      /* K =  3 */
(PID.TID 0000.0001)                 1.390000000000000E+01,      /* K =  4 */
(PID.TID 0000.0001)                 1.330000000000000E+01,      /* K =  5 */
(PID.TID 0000.0001)                 1.240000000000000E+01,      /* K =  6 */
(PID.TID 0000.0001)                 1.130000000000000E+01,      /* K =  7 */
(PID.TID 0000.0001)                 9.900000000000000E+00,      /* K =  8 */
(PID.TID 0000.0001)                 8.400000000000000E+00,      /* K =  9 */
(PID.TID 0000.0001)                 6.700000000000000E+00,      /* K = 10 */
(PID.TID 0000.0001)                 5.200000000000000E+00,      /* K = 11 */
(PID.TID 0000.0001)                 3.800000000000000E+00,      /* K = 12 */
(PID.TID 0000.0001)                 2.900000000000000E+00,      /* K = 13 */
(PID.TID 0000.0001)                 2.300000000000000E+00,      /* K = 14 */
(PID.TID 0000.0001)                 1.800000000000000E+00,      /* K = 15 */
(PID.TID 0000.0001)                 1.500000000000000E+00,      /* K = 16 */
(PID.TID 0000.0001)                 1.100000000000000E+00,      /* K = 17 */
(PID.TID 0000.0001)                 8.000000000000000E-01,      /* K = 18 */
(PID.TID 0000.0001)                 6.600000000000000E-01,      /* K = 19 */
(PID.TID 0000.0001)                 6.300000000000000E-01       /* K = 20 */
(PID.TID 0000.0001)     ;
(PID.TID 0000.0001) sRef =   /* Reference salinity profile ( ppt ) */
(PID.TID 0000.0001)                 3.465000000000000E+01,      /* K =  1 */
(PID.TID 0000.0001)                 3.475000000000000E+01,      /* K =  2 */
(PID.TID 0000.0001)                 3.482000000000000E+01,      /* K =  3 */
(PID.TID 0000.0001)                 3.487000000000000E+01,      /* K =  4 */
(PID.TID 0000.0001)     2 @  3.490000000000000E+01,             /* K =  5:  6 */
(PID.TID 0000.0001)                 3.486000000000000E+01,      /* K =  7 */
(PID.TID 0000.0001)                 3.478000000000000E+01,      /* K =  8 */
(PID.TID 0000.0001)                 3.469000000000000E+01,      /* K =  9 */
(PID.TID 0000.0001)                 3.460000000000000E+01,      /* K = 10 */
(PID.TID 0000.0001)                 3.458000000000000E+01,      /* K = 11 */
(PID.TID 0000.0001)                 3.462000000000000E+01,      /* K = 12 */
(PID.TID 0000.0001)                 3.468000000000000E+01,      /* K = 13 */
(PID.TID 0000.0001)                 3.472000000000000E+01,      /* K = 14 */
(PID.TID 0000.0001)                 3.473000000000000E+01,      /* K = 15 */
(PID.TID 0000.0001)                 3.474000000000000E+01,      /* K = 16 */
(PID.TID 0000.0001)     2 @  3.473000000000000E+01,             /* K = 17: 18 */
(PID.TID 0000.0001)     2 @  3.472000000000000E+01              /* K = 19: 20 */
(PID.TID 0000.0001)     ;
(PID.TID 0000.0001) viscAh =   /* Lateral eddy viscosity ( m^2/s ) */
(PID.TID 0000.0001)                 5.000000000000000E+05
(PID.TID 0000.0001)     ;
(PID.TID 0000.0001) viscAh =   /* Lateral biharmonic viscosity ( m^4/s ) */
(PID.TID 0000.0001)                 0.000000000000000E+00
(PID.TID 0000.0001)     ;
(PID.TID 0000.0001) no_slip_sides =  /* Viscous BCs: No-slip sides */
(PID.TID 0000.0001)                   F
(PID.TID 0000.0001)     ;
(PID.TID 0000.0001) viscAz =   /* Vertical eddy viscosity ( m^2/s ) */
(PID.TID 0000.0001)                 1.000000000000000E-03
(PID.TID 0000.0001)     ;
(PID.TID 0000.0001) viscAr =   /* Vertical eddy viscosity ( units of r^2/s ) */
(PID.TID 0000.0001)                 1.000000000000000E-03
(PID.TID 0000.0001)     ;
(PID.TID 0000.0001) diffKhT =   /* Laplacian diffusion of heat laterally ( m^2/s ) */
(PID.TID 0000.0001)                 1.000000000000000E+03
(PID.TID 0000.0001)     ;
(PID.TID 0000.0001) diffK4T =   /* Bihaarmonic diffusion of heat laterally ( m^4/s ) */
(PID.TID 0000.0001)                 0.000000000000000E+00
(PID.TID 0000.0001)     ;
(PID.TID 0000.0001) diffKzT =   /* Laplacian diffusion of heat vertically ( m^2/s ) */
(PID.TID 0000.0001)                 3.000000000000000E-05
(PID.TID 0000.0001)     ;
(PID.TID 0000.0001) diffKrT =   /* Laplacian diffusion of heat vertically ( m^2/s ) */
(PID.TID 0000.0001)                 3.000000000000000E-05
(PID.TID 0000.0001)     ;
(PID.TID 0000.0001) diffKhS =   /* Laplacian diffusion of salt laterally ( m^2/s ) */
(PID.TID 0000.0001)                 1.000000000000000E+03
(PID.TID 0000.0001)     ;
(PID.TID 0000.0001) diffK4S =   /* Bihaarmonic diffusion of salt laterally ( m^4/s ) */
(PID.TID 0000.0001)                 0.000000000000000E+00
(PID.TID 0000.0001)     ;
(PID.TID 0000.0001) diffKzS =   /* Laplacian diffusion of salt vertically ( m^2/s ) */
(PID.TID 0000.0001)                 3.000000000000000E-05
(PID.TID 0000.0001)     ;
(PID.TID 0000.0001) diffKrS =   /* Laplacian diffusion of salt vertically ( m^2/s ) */
(PID.TID 0000.0001)                 3.000000000000000E-05
(PID.TID 0000.0001)     ;
(PID.TID 0000.0001) tAlpha =   /* Linear EOS thermal expansion coefficient ( 1/degree ) */
(PID.TID 0000.0001)                 2.000000000000000E-04
(PID.TID 0000.0001)     ;
(PID.TID 0000.0001) sBeta =   /* Linear EOS haline contraction coefficient ( 1/ppt ) */
(PID.TID 0000.0001)                 7.400000000000000E-04
(PID.TID 0000.0001)     ;
(PID.TID 0000.0001) rhonil =   /* Reference density ( kg/m^3 ) */
(PID.TID 0000.0001)                 9.998000000000000E+02
(PID.TID 0000.0001)     ;
(PID.TID 0000.0001) rhoConst =   /* Reference density ( kg/m^3 ) */
(PID.TID 0000.0001)                 9.998000000000000E+02
(PID.TID 0000.0001)     ;
(PID.TID 0000.0001) gravity =   /* Gravitational acceleration ( m/s^2 ) */
(PID.TID 0000.0001)                 9.810000000000000E+00
(PID.TID 0000.0001)     ;
(PID.TID 0000.0001) gBaro =   /* Barotropic gravity ( m/s^2 ) */
(PID.TID 0000.0001)                 9.810000000000000E+00
(PID.TID 0000.0001)     ;
(PID.TID 0000.0001) f0 =   /* Reference coriolis parameter ( 1/s ) */
(PID.TID 0000.0001)                 1.000000000000000E-04
(PID.TID 0000.0001)     ;
(PID.TID 0000.0001) beta =   /* Beta ( 1/(m.s) ) */
(PID.TID 0000.0001)                 9.999999999999999E-12
(PID.TID 0000.0001)     ;
(PID.TID 0000.0001) freeSurfFac =   /* Implicit free surface factor */
(PID.TID 0000.0001)                 1.000000000000000E+00
(PID.TID 0000.0001)     ;
(PID.TID 0000.0001) implicitFreeSurface =   /* Implicit free surface on/off flag */
(PID.TID 0000.0001)                   T
(PID.TID 0000.0001)     ;
(PID.TID 0000.0001) rigidLid =   /* Rigid lid on/off flag */
(PID.TID 0000.0001)                   F
(PID.TID 0000.0001)     ;
(PID.TID 0000.0001) implicSurfPress =   /* Surface Pressure implicit factor (0-1)*/
(PID.TID 0000.0001)                 1.000000000000000E+00
(PID.TID 0000.0001)     ;
(PID.TID 0000.0001) implicDiv2Dflow =   /* Barot. Flow Div. implicit factor (0-1)*/
(PID.TID 0000.0001)                 1.000000000000000E+00
(PID.TID 0000.0001)     ;
(PID.TID 0000.0001) staggerTimeStep =   /* Stagger time stepping on/off flag */
(PID.TID 0000.0001)                   F
(PID.TID 0000.0001)     ;
(PID.TID 0000.0001) momStepping =  /* Momentum equation on/off flag */
(PID.TID 0000.0001)                   T
(PID.TID 0000.0001)     ;
(PID.TID 0000.0001) momAdvection =  /* Momentum advection on/off flag */
(PID.TID 0000.0001)                   T
(PID.TID 0000.0001)     ;
(PID.TID 0000.0001) momViscosity =  /* Momentum viscosity on/off flag */
(PID.TID 0000.0001)                   T
(PID.TID 0000.0001)     ;
(PID.TID 0000.0001) useCoriolis =  /* Coriolis on/off flag */
(PID.TID 0000.0001)                   T
(PID.TID 0000.0001)     ;
(PID.TID 0000.0001) momForcing =  /* Momentum forcing on/off flag */
(PID.TID 0000.0001)                   T
(PID.TID 0000.0001)     ;
(PID.TID 0000.0001) momPressureForcing =  /* Momentum pressure term on/off flag */
(PID.TID 0000.0001)                   T
(PID.TID 0000.0001)     ;
(PID.TID 0000.0001) tempStepping =  /* Temperature equation on/off flag */
(PID.TID 0000.0001)                   T
(PID.TID 0000.0001)     ;
(PID.TID 0000.0001) nonHydrostatic =  /* Non-Hydrostatic on/off flag */
(PID.TID 0000.0001)                   F
(PID.TID 0000.0001)     ;
(PID.TID 0000.0001) //
(PID.TID 0000.0001) // Elliptic solver(s) paramters ( PARM02 in namelist )
(PID.TID 0000.0001) //
(PID.TID 0000.0001) cg2dMaxIters =   /* Upper limit on 2d con. grad iterations  */
(PID.TID 0000.0001)                    1000
(PID.TID 0000.0001)     ;
(PID.TID 0000.0001) cg2dChkResFreq =   /* 2d con. grad convergence test frequency */
(PID.TID 0000.0001)                       1
(PID.TID 0000.0001)     ;
(PID.TID 0000.0001) cg2dTargetResidual =   /* 2d con. grad target residual  */
(PID.TID 0000.0001)                 1.000000000000000E-13
(PID.TID 0000.0001)     ;
(PID.TID 0000.0001) //
(PID.TID 0000.0001) // Time stepping paramters ( PARM03 in namelist )
(PID.TID 0000.0001) //
(PID.TID 0000.0001) nIter0 =   /* Base timestep number  */
(PID.TID 0000.0001)                       0
(PID.TID 0000.0001)     ;
(PID.TID 0000.0001) nTimeSteps =   /* Number of timesteps */
(PID.TID 0000.0001)                      26
(PID.TID 0000.0001)     ;
(PID.TID 0000.0001) deltatTmom =   /* Momentum equation timestep ( s ) */
(PID.TID 0000.0001)                 2.400000000000000E+03
(PID.TID 0000.0001)     ;
(PID.TID 0000.0001) deltatTtracer =   /* Tracer equation timestep ( s ) */
(PID.TID 0000.0001)                 1.080000000000000E+05
(PID.TID 0000.0001)     ;
(PID.TID 0000.0001) deltatTClock  =   /* Model clock timestep ( s ) */
(PID.TID 0000.0001)                 1.080000000000000E+05
(PID.TID 0000.0001)     ;
(PID.TID 0000.0001) cAdjFreq =   /* Convective adjustment interval ( s ) */
(PID.TID 0000.0001)                 1.080000000000000E+05
(PID.TID 0000.0001)     ;
(PID.TID 0000.0001) abeps =   /* Adams-Bashforth stabilizing weight */
(PID.TID 0000.0001)                 1.000000000000000E-01
(PID.TID 0000.0001)     ;
(PID.TID 0000.0001) tauCD =   /* CD coupling time-scale ( s ) */
(PID.TID 0000.0001)                 3.214280000000000E+05
(PID.TID 0000.0001)     ;
(PID.TID 0000.0001) rCD =   /* Normalised CD coupling parameter */
(PID.TID 0000.0001)                 9.925333200592357E-01
(PID.TID 0000.0001)     ;
(PID.TID 0000.0001) startTime =   /* Run start time ( s ). */
(PID.TID 0000.0001)                 0.000000000000000E+00
(PID.TID 0000.0001)     ;
(PID.TID 0000.0001) endTime =   /* Integration ending time ( s ). */
(PID.TID 0000.0001)                 2.808000000000000E+06
(PID.TID 0000.0001)     ;
(PID.TID 0000.0001) pChkPtFreq =   /* Permanent restart/checkpoint file interval ( s ). */
(PID.TID 0000.0001)                 0.000000000000000E+00
(PID.TID 0000.0001)     ;
(PID.TID 0000.0001) chkPtFreq =   /* Rolling restart/checkpoint file interval ( s ). */
(PID.TID 0000.0001)                 0.000000000000000E+00
(PID.TID 0000.0001)     ;
(PID.TID 0000.0001) dumpFreq =   /* Model state write out interval ( s ). */
(PID.TID 0000.0001)                 2.592000000000000E+06
(PID.TID 0000.0001)     ;
(PID.TID 0000.0001) //
(PID.TID 0000.0001) // Gridding paramters ( PARM04 in namelist )
(PID.TID 0000.0001) //
(PID.TID 0000.0001) usingCartesianGrid =   /* Cartesian coordinates flag ( True / False ) */
(PID.TID 0000.0001)                   F
(PID.TID 0000.0001)     ;
(PID.TID 0000.0001) usingSphericalPolarGrid =   /* Spherical coordinates flag ( True / False ) */
(PID.TID 0000.0001)                   T
(PID.TID 0000.0001)     ;
(PID.TID 0000.0001) groundAtK1 =   /* Lower Boundary (ground) at the surface(k=1) ( T / F ) */
(PID.TID 0000.0001)                   F
(PID.TID 0000.0001)     ;
(PID.TID 0000.0001) Ro_SeaLevel =   /* r(1) ( units of r ) */
(PID.TID 0000.0001)                 0.000000000000000E+00
(PID.TID 0000.0001)     ;
(PID.TID 0000.0001) rkFac =   /* minus Vertical index orientation  */
(PID.TID 0000.0001)                 1.000000000000000E+00
(PID.TID 0000.0001)     ;
(PID.TID 0000.0001) horiVertRatio =   /* Ratio on units : Horiz - Vertical */
(PID.TID 0000.0001)                 1.000000000000000E+00
(PID.TID 0000.0001)     ;
(PID.TID 0000.0001) delZ =   /* W spacing ( m ) */
(PID.TID 0000.0001)     2 @  5.000000000000000E+01,             /* K =  1:  2 */
(PID.TID 0000.0001)                 5.500000000000000E+01,      /* K =  3 */
(PID.TID 0000.0001)                 6.000000000000000E+01,      /* K =  4 */
(PID.TID 0000.0001)                 6.500000000000000E+01,      /* K =  5 */
(PID.TID 0000.0001)                 7.000000000000000E+01,      /* K =  6 */
(PID.TID 0000.0001)                 8.000000000000000E+01,      /* K =  7 */
(PID.TID 0000.0001)                 9.500000000000000E+01,      /* K =  8 */
(PID.TID 0000.0001)                 1.200000000000000E+02,      /* K =  9 */
(PID.TID 0000.0001)                 1.550000000000000E+02,      /* K = 10 */
(PID.TID 0000.0001)                 2.000000000000000E+02,      /* K = 11 */
(PID.TID 0000.0001)                 2.600000000000000E+02,      /* K = 12 */
(PID.TID 0000.0001)                 3.200000000000000E+02,      /* K = 13 */
(PID.TID 0000.0001)                 4.000000000000000E+02,      /* K = 14 */
(PID.TID 0000.0001)                 4.800000000000000E+02,      /* K = 15 */
(PID.TID 0000.0001)                 5.700000000000000E+02,      /* K = 16 */
(PID.TID 0000.0001)                 6.550000000000000E+02,      /* K = 17 */
(PID.TID 0000.0001)                 7.250000000000000E+02,      /* K = 18 */
(PID.TID 0000.0001)                 7.750000000000000E+02,      /* K = 19 */
(PID.TID 0000.0001)                 8.150000000000000E+02       /* K = 20 */
(PID.TID 0000.0001)     ;
(PID.TID 0000.0001) delP =   /* W spacing ( Pa ) */
(PID.TID 0000.0001)    20 @  1.234567000000000E+05              /* K =  1: 20 */
(PID.TID 0000.0001)     ;
(PID.TID 0000.0001) delR =   /* W spacing ( units of r ) */
(PID.TID 0000.0001)     2 @  5.000000000000000E+01,             /* K =  1:  2 */
(PID.TID 0000.0001)                 5.500000000000000E+01,      /* K =  3 */
(PID.TID 0000.0001)                 6.000000000000000E+01,      /* K =  4 */
(PID.TID 0000.0001)                 6.500000000000000E+01,      /* K =  5 */
(PID.TID 0000.0001)                 7.000000000000000E+01,      /* K =  6 */
(PID.TID 0000.0001)                 8.000000000000000E+01,      /* K =  7 */
(PID.TID 0000.0001)                 9.500000000000000E+01,      /* K =  8 */
(PID.TID 0000.0001)                 1.200000000000000E+02,      /* K =  9 */
(PID.TID 0000.0001)                 1.550000000000000E+02,      /* K = 10 */
(PID.TID 0000.0001)                 2.000000000000000E+02,      /* K = 11 */
(PID.TID 0000.0001)                 2.600000000000000E+02,      /* K = 12 */
(PID.TID 0000.0001)                 3.200000000000000E+02,      /* K = 13 */
(PID.TID 0000.0001)                 4.000000000000000E+02,      /* K = 14 */
(PID.TID 0000.0001)                 4.800000000000000E+02,      /* K = 15 */
(PID.TID 0000.0001)                 5.700000000000000E+02,      /* K = 16 */
(PID.TID 0000.0001)                 6.550000000000000E+02,      /* K = 17 */
(PID.TID 0000.0001)                 7.250000000000000E+02,      /* K = 18 */
(PID.TID 0000.0001)                 7.750000000000000E+02,      /* K = 19 */
(PID.TID 0000.0001)                 8.150000000000000E+02       /* K = 20 */
(PID.TID 0000.0001)     ;
(PID.TID 0000.0001) delX =   /* U spacing ( m - cartesian, degrees - spherical ) */
(PID.TID 0000.0001)    90 @  4.000000000000000E+00              /* I =  1: 90 */
(PID.TID 0000.0001)     ;
(PID.TID 0000.0001) delY =   /* V spacing ( m - cartesian, degrees - spherical ) */
(PID.TID 0000.0001)    40 @  4.000000000000000E+00              /* J =  1: 40 */
(PID.TID 0000.0001)     ;
(PID.TID 0000.0001) phiMin =    /* South edge (ignored - cartesian, degrees - spherical ) */
(PID.TID 0000.0001)                -8.000000000000000E+01
(PID.TID 0000.0001)     ;
(PID.TID 0000.0001) thetaMin =    /* West edge ( ignored - cartesian, degrees - spherical ) */
(PID.TID 0000.0001)                 0.000000000000000E+00
(PID.TID 0000.0001)     ;
(PID.TID 0000.0001) rSphere =    /* Radius ( ignored - cartesian, m - spherical ) */
(PID.TID 0000.0001)                 6.370000000000000E+06
(PID.TID 0000.0001)     ;
(PID.TID 0000.0001) xcoord =   /* P-point X coord ( m - cartesian, degrees - spherical ) */
(PID.TID 0000.0001)                 2.000000000000000E+00,      /* I =  1 */
(PID.TID 0000.0001)                 6.000000000000000E+00,      /* I =  2 */
(PID.TID 0000.0001)                 1.000000000000000E+01,      /* I =  3 */
(PID.TID 0000.0001)                 1.400000000000000E+01,      /* I =  4 */
(PID.TID 0000.0001)                 1.800000000000000E+01,      /* I =  5 */
(PID.TID 0000.0001)                 2.200000000000000E+01,      /* I =  6 */
(PID.TID 0000.0001)                 2.600000000000000E+01,      /* I =  7 */
(PID.TID 0000.0001)                 3.000000000000000E+01,      /* I =  8 */
(PID.TID 0000.0001)                 3.400000000000000E+01,      /* I =  9 */
(PID.TID 0000.0001)                 3.800000000000000E+01,      /* I = 10 */
(PID.TID 0000.0001)                 4.200000000000000E+01,      /* I = 11 */
(PID.TID 0000.0001)                 4.600000000000000E+01,      /* I = 12 */
(PID.TID 0000.0001)                 5.000000000000000E+01,      /* I = 13 */
(PID.TID 0000.0001)                 5.400000000000000E+01,      /* I = 14 */
(PID.TID 0000.0001)                 5.800000000000000E+01,      /* I = 15 */
(PID.TID 0000.0001)                 6.200000000000000E+01,      /* I = 16 */
(PID.TID 0000.0001)                 6.600000000000000E+01,      /* I = 17 */
(PID.TID 0000.0001)                 7.000000000000000E+01,      /* I = 18 */
(PID.TID 0000.0001)                 7.400000000000000E+01,      /* I = 19 */
(PID.TID 0000.0001)                 7.800000000000000E+01,      /* I = 20 */
(PID.TID 0000.0001)                 8.200000000000000E+01,      /* I = 21 */
(PID.TID 0000.0001)                 8.600000000000000E+01,      /* I = 22 */
(PID.TID 0000.0001)                 9.000000000000000E+01,      /* I = 23 */
(PID.TID 0000.0001)                 9.400000000000000E+01,      /* I = 24 */
(PID.TID 0000.0001)                 9.800000000000000E+01,      /* I = 25 */
(PID.TID 0000.0001)                 1.020000000000000E+02,      /* I = 26 */
(PID.TID 0000.0001)                 1.060000000000000E+02,      /* I = 27 */
(PID.TID 0000.0001)                 1.100000000000000E+02,      /* I = 28 */
(PID.TID 0000.0001)                 1.140000000000000E+02,      /* I = 29 */
(PID.TID 0000.0001)                 1.180000000000000E+02,      /* I = 30 */
(PID.TID 0000.0001)                 1.220000000000000E+02,      /* I = 31 */
(PID.TID 0000.0001)                 1.260000000000000E+02,      /* I = 32 */
(PID.TID 0000.0001)                 1.300000000000000E+02,      /* I = 33 */
(PID.TID 0000.0001)                 1.340000000000000E+02,      /* I = 34 */
(PID.TID 0000.0001)                 1.380000000000000E+02,      /* I = 35 */
(PID.TID 0000.0001)                 1.420000000000000E+02,      /* I = 36 */
(PID.TID 0000.0001)                 1.460000000000000E+02,      /* I = 37 */
(PID.TID 0000.0001)                 1.500000000000000E+02,      /* I = 38 */
(PID.TID 0000.0001)                 1.540000000000000E+02,      /* I = 39 */
(PID.TID 0000.0001)                 1.580000000000000E+02,      /* I = 40 */
(PID.TID 0000.0001)                 1.620000000000000E+02,      /* I = 41 */
(PID.TID 0000.0001)                 1.660000000000000E+02,      /* I = 42 */
(PID.TID 0000.0001)                 1.700000000000000E+02,      /* I = 43 */
(PID.TID 0000.0001)                 1.740000000000000E+02,      /* I = 44 */
(PID.TID 0000.0001)                 1.780000000000000E+02,      /* I = 45 */
(PID.TID 0000.0001)                 1.820000000000000E+02,      /* I = 46 */
(PID.TID 0000.0001)                 1.860000000000000E+02,      /* I = 47 */
(PID.TID 0000.0001)                 1.900000000000000E+02,      /* I = 48 */
(PID.TID 0000.0001)                 1.940000000000000E+02,      /* I = 49 */
(PID.TID 0000.0001)                 1.980000000000000E+02,      /* I = 50 */
(PID.TID 0000.0001)                 2.020000000000000E+02,      /* I = 51 */
(PID.TID 0000.0001)                 2.060000000000000E+02,      /* I = 52 */
(PID.TID 0000.0001)                 2.100000000000000E+02,      /* I = 53 */
(PID.TID 0000.0001)                 2.140000000000000E+02,      /* I = 54 */
(PID.TID 0000.0001)                 2.180000000000000E+02,      /* I = 55 */
(PID.TID 0000.0001)                 2.220000000000000E+02,      /* I = 56 */
(PID.TID 0000.0001)                 2.260000000000000E+02,      /* I = 57 */
(PID.TID 0000.0001)                 2.300000000000000E+02,      /* I = 58 */
(PID.TID 0000.0001)                 2.340000000000000E+02,      /* I = 59 */
(PID.TID 0000.0001)                 2.380000000000000E+02,      /* I = 60 */
(PID.TID 0000.0001)                 2.420000000000000E+02,      /* I = 61 */
(PID.TID 0000.0001)                 2.460000000000000E+02,      /* I = 62 */
(PID.TID 0000.0001)                 2.500000000000000E+02,      /* I = 63 */
(PID.TID 0000.0001)                 2.540000000000000E+02,      /* I = 64 */
(PID.TID 0000.0001)                 2.580000000000000E+02,      /* I = 65 */
(PID.TID 0000.0001)                 2.620000000000000E+02,      /* I = 66 */
(PID.TID 0000.0001)                 2.660000000000000E+02,      /* I = 67 */
(PID.TID 0000.0001)                 2.700000000000000E+02,      /* I = 68 */
(PID.TID 0000.0001)                 2.740000000000000E+02,      /* I = 69 */
(PID.TID 0000.0001)                 2.780000000000000E+02,      /* I = 70 */
(PID.TID 0000.0001)                 2.820000000000000E+02,      /* I = 71 */
(PID.TID 0000.0001)                 2.860000000000000E+02,      /* I = 72 */
(PID.TID 0000.0001)                 2.900000000000000E+02,      /* I = 73 */
(PID.TID 0000.0001)                 2.940000000000000E+02,      /* I = 74 */
(PID.TID 0000.0001)                 2.980000000000000E+02,      /* I = 75 */
(PID.TID 0000.0001)                 3.020000000000000E+02,      /* I = 76 */
(PID.TID 0000.0001)                 3.060000000000000E+02,      /* I = 77 */
(PID.TID 0000.0001)                 3.100000000000000E+02,      /* I = 78 */
(PID.TID 0000.0001)                 3.140000000000000E+02,      /* I = 79 */
(PID.TID 0000.0001)                 3.180000000000000E+02,      /* I = 80 */
(PID.TID 0000.0001)                 3.220000000000000E+02,      /* I = 81 */
(PID.TID 0000.0001)                 3.260000000000000E+02,      /* I = 82 */
(PID.TID 0000.0001)                 3.300000000000000E+02,      /* I = 83 */
(PID.TID 0000.0001)                 3.340000000000000E+02,      /* I = 84 */
(PID.TID 0000.0001)                 3.380000000000000E+02,      /* I = 85 */
(PID.TID 0000.0001)                 3.420000000000000E+02,      /* I = 86 */
(PID.TID 0000.0001)                 3.460000000000000E+02,      /* I = 87 */
(PID.TID 0000.0001)                 3.500000000000000E+02,      /* I = 88 */
(PID.TID 0000.0001)                 3.540000000000000E+02,      /* I = 89 */
(PID.TID 0000.0001)                 3.580000000000000E+02       /* I = 90 */
(PID.TID 0000.0001)     ;
(PID.TID 0000.0001) ycoord =   /* P-point Y coord ( m - cartesian, degrees - spherical ) */
(PID.TID 0000.0001)                -7.800000000000000E+01,      /* J =  1 */
(PID.TID 0000.0001)                -7.400000000000000E+01,      /* J =  2 */
(PID.TID 0000.0001)                -7.000000000000000E+01,      /* J =  3 */
(PID.TID 0000.0001)                -6.600000000000000E+01,      /* J =  4 */
(PID.TID 0000.0001)                -6.200000000000000E+01,      /* J =  5 */
(PID.TID 0000.0001)                -5.800000000000000E+01,      /* J =  6 */
(PID.TID 0000.0001)                -5.400000000000000E+01,      /* J =  7 */
(PID.TID 0000.0001)                -5.000000000000000E+01,      /* J =  8 */
(PID.TID 0000.0001)                -4.600000000000000E+01,      /* J =  9 */
(PID.TID 0000.0001)                -4.200000000000000E+01,      /* J = 10 */
(PID.TID 0000.0001)                -3.800000000000000E+01,      /* J = 11 */
(PID.TID 0000.0001)                -3.400000000000000E+01,      /* J = 12 */
(PID.TID 0000.0001)                -3.000000000000000E+01,      /* J = 13 */
(PID.TID 0000.0001)                -2.600000000000000E+01,      /* J = 14 */
(PID.TID 0000.0001)                -2.200000000000000E+01,      /* J = 15 */
(PID.TID 0000.0001)                -1.800000000000000E+01,      /* J = 16 */
(PID.TID 0000.0001)                -1.400000000000000E+01,      /* J = 17 */
(PID.TID 0000.0001)                -1.000000000000000E+01,      /* J = 18 */
(PID.TID 0000.0001)                -6.000000000000000E+00,      /* J = 19 */
(PID.TID 0000.0001)                -2.000000000000000E+00,      /* J = 20 */
(PID.TID 0000.0001)                 2.000000000000000E+00,      /* J = 21 */
(PID.TID 0000.0001)                 6.000000000000000E+00,      /* J = 22 */
(PID.TID 0000.0001)                 1.000000000000000E+01,      /* J = 23 */
(PID.TID 0000.0001)                 1.400000000000000E+01,      /* J = 24 */
(PID.TID 0000.0001)                 1.800000000000000E+01,      /* J = 25 */
(PID.TID 0000.0001)                 2.200000000000000E+01,      /* J = 26 */
(PID.TID 0000.0001)                 2.600000000000000E+01,      /* J = 27 */
(PID.TID 0000.0001)                 3.000000000000000E+01,      /* J = 28 */
(PID.TID 0000.0001)                 3.400000000000000E+01,      /* J = 29 */
(PID.TID 0000.0001)                 3.800000000000000E+01,      /* J = 30 */
(PID.TID 0000.0001)                 4.200000000000000E+01,      /* J = 31 */
(PID.TID 0000.0001)                 4.600000000000000E+01,      /* J = 32 */
(PID.TID 0000.0001)                 5.000000000000000E+01,      /* J = 33 */
(PID.TID 0000.0001)                 5.400000000000000E+01,      /* J = 34 */
(PID.TID 0000.0001)                 5.800000000000000E+01,      /* J = 35 */
(PID.TID 0000.0001)                 6.200000000000000E+01,      /* J = 36 */
(PID.TID 0000.0001)                 6.600000000000000E+01,      /* J = 37 */
(PID.TID 0000.0001)                 7.000000000000000E+01,      /* J = 38 */
(PID.TID 0000.0001)                 7.400000000000000E+01,      /* J = 39 */
(PID.TID 0000.0001)                 7.800000000000000E+01       /* J = 40 */
(PID.TID 0000.0001)     ;
(PID.TID 0000.0001) rcoord =   /* P-point R coordinate (  units of r ) */
(PID.TID 0000.0001)                -2.500000000000000E+01,      /* K =  1 */
(PID.TID 0000.0001)                -7.500000000000000E+01,      /* K =  2 */
(PID.TID 0000.0001)                -1.275000000000000E+02,      /* K =  3 */
(PID.TID 0000.0001)                -1.850000000000000E+02,      /* K =  4 */
(PID.TID 0000.0001)                -2.475000000000000E+02,      /* K =  5 */
(PID.TID 0000.0001)                -3.150000000000000E+02,      /* K =  6 */
(PID.TID 0000.0001)                -3.900000000000000E+02,      /* K =  7 */
(PID.TID 0000.0001)                -4.775000000000000E+02,      /* K =  8 */
(PID.TID 0000.0001)                -5.850000000000000E+02,      /* K =  9 */
(PID.TID 0000.0001)                -7.225000000000000E+02,      /* K = 10 */
(PID.TID 0000.0001)                -9.000000000000000E+02,      /* K = 11 */
(PID.TID 0000.0001)                -1.130000000000000E+03,      /* K = 12 */
(PID.TID 0000.0001)                -1.420000000000000E+03,      /* K = 13 */
(PID.TID 0000.0001)                -1.780000000000000E+03,      /* K = 14 */
(PID.TID 0000.0001)                -2.220000000000000E+03,      /* K = 15 */
(PID.TID 0000.0001)                -2.745000000000000E+03,      /* K = 16 */
(PID.TID 0000.0001)                -3.357500000000000E+03,      /* K = 17 */
(PID.TID 0000.0001)                -4.047500000000000E+03,      /* K = 18 */
(PID.TID 0000.0001)                -4.797500000000000E+03,      /* K = 19 */
(PID.TID 0000.0001)                -5.592500000000000E+03       /* K = 20 */
(PID.TID 0000.0001)     ;
(PID.TID 0000.0001) dxF =  /* dxF(:,1,:,1) ( m - cartesian, degrees - spherical ) */
(PID.TID 0000.0001)    90 @  9.246038586187513E+04              /* I =  1: 90 */
(PID.TID 0000.0001)     ;
(PID.TID 0000.0001) dxF =  /* dxF(1,:,1,:) ( m - cartesian, degrees - spherical ) */
(PID.TID 0000.0001)                 9.246038586187513E+04,      /* J =  1 */
(PID.TID 0000.0001)                 1.225786591246834E+05,      /* J =  2 */
(PID.TID 0000.0001)                 1.520997414818001E+05,      /* J =  3 */
(PID.TID 0000.0001)                 1.808798091874300E+05,      /* J =  4 */
(PID.TID 0000.0001)                 2.087786486446736E+05,      /* J =  5 */
(PID.TID 0000.0001)                 2.356603395120766E+05,      /* J =  6 */
(PID.TID 0000.0001)                 2.613939168938713E+05,      /* J =  7 */
(PID.TID 0000.0001)                 2.858540093877838E+05,      /* J =  8 */
(PID.TID 0000.0001)                 3.089214498819035E+05,      /* J =  9 */
(PID.TID 0000.0001)                 3.304838561248741E+05,      /* J = 10 */
(PID.TID 0000.0001)                 3.504361782409254E+05,      /* J = 11 */
(PID.TID 0000.0001)                 3.686812105223083E+05,      /* J = 12 */
(PID.TID 0000.0001)                 3.851300650057322E+05,      /* J = 13 */
(PID.TID 0000.0001)                 3.997026045255871E+05,      /* J = 14 */
(PID.TID 0000.0001)                 4.123278331341585E+05,      /* J = 15 */
(PID.TID 0000.0001)                 4.229442419867491E+05,      /* J = 16 */
(PID.TID 0000.0001)                 4.315001090065869E+05,      /* J = 17 */
(PID.TID 0000.0001)                 4.379537508695839E+05,      /* J = 18 */
(PID.TID 0000.0001)                 4.422737260813013E+05,      /* J = 19 */
(PID.TID 0000.0001)     2 @  4.444389881567501E+05,             /* J = 20: 21 */
(PID.TID 0000.0001)                 4.422737260813013E+05,      /* J = 22 */
(PID.TID 0000.0001)                 4.379537508695839E+05,      /* J = 23 */
(PID.TID 0000.0001)                 4.315001090065869E+05,      /* J = 24 */
(PID.TID 0000.0001)                 4.229442419867491E+05,      /* J = 25 */
(PID.TID 0000.0001)                 4.123278331341585E+05,      /* J = 26 */
(PID.TID 0000.0001)                 3.997026045255871E+05,      /* J = 27 */
(PID.TID 0000.0001)                 3.851300650057322E+05,      /* J = 28 */
(PID.TID 0000.0001)                 3.686812105223083E+05,      /* J = 29 */
(PID.TID 0000.0001)                 3.504361782409254E+05,      /* J = 30 */
(PID.TID 0000.0001)                 3.304838561248741E+05,      /* J = 31 */
(PID.TID 0000.0001)                 3.089214498819035E+05,      /* J = 32 */
(PID.TID 0000.0001)                 2.858540093877838E+05,      /* J = 33 */
(PID.TID 0000.0001)                 2.613939168938713E+05,      /* J = 34 */
(PID.TID 0000.0001)                 2.356603395120766E+05,      /* J = 35 */
(PID.TID 0000.0001)                 2.087786486446736E+05,      /* J = 36 */
(PID.TID 0000.0001)                 1.808798091874300E+05,      /* J = 37 */
(PID.TID 0000.0001)                 1.520997414818001E+05,      /* J = 38 */
(PID.TID 0000.0001)                 1.225786591246834E+05,      /* J = 39 */
(PID.TID 0000.0001)                 9.246038586187513E+04       /* J = 40 */
(PID.TID 0000.0001)     ;
(PID.TID 0000.0001) dyF =  /* dyF(:,1,:,1) ( m - cartesian, degrees - spherical ) */
(PID.TID 0000.0001)    90 @  4.447098934081552E+05              /* I =  1: 90 */
(PID.TID 0000.0001)     ;
(PID.TID 0000.0001) dyF =  /* dyF(1,:,1,:) ( m - cartesian, degrees - spherical ) */
(PID.TID 0000.0001)    40 @  4.447098934081552E+05              /* J =  1: 40 */
(PID.TID 0000.0001)     ;
(PID.TID 0000.0001) dxG =  /* dxG(:,1,:,1) ( m - cartesian, degrees - spherical ) */
(PID.TID 0000.0001)    90 @  7.722306258078101E+04              /* I =  1: 90 */
(PID.TID 0000.0001)     ;
(PID.TID 0000.0001) dxG =  /* dxG(1,:,1,:) ( m - cartesian, degrees - spherical ) */
(PID.TID 0000.0001)                 7.722306258078101E+04,      /* J =  1 */
(PID.TID 0000.0001)                 1.075850604052271E+05,      /* J =  2 */
(PID.TID 0000.0001)                 1.374229146297914E+05,      /* J =  3 */
(PID.TID 0000.0001)                 1.665912582279823E+05,      /* J =  4 */
(PID.TID 0000.0001)                 1.949479859617814E+05,      /* J =  5 */
(PID.TID 0000.0001)                 2.223549467040776E+05,      /* J =  6 */
(PID.TID 0000.0001)                 2.486786164970726E+05,      /* J =  7 */
(PID.TID 0000.0001)                 2.737907490675810E+05,      /* J =  8 */
(PID.TID 0000.0001)                 2.975690006299820E+05,      /* J =  9 */
(PID.TID 0000.0001)                 3.198975259328452E+05,      /* J = 10 */
(PID.TID 0000.0001)                 3.406675426453503E+05,      /* J = 11 */
(PID.TID 0000.0001)                 3.597778613338689E+05,      /* J = 12 */
(PID.TID 0000.0001)                 3.771353784467131E+05,      /* J = 13 */
(PID.TID 0000.0001)                 3.926555299052806E+05,      /* J = 14 */
(PID.TID 0000.0001)                 4.062627030917454E+05,      /* J = 15 */
(PID.TID 0000.0001)                 4.178906052261313E+05,      /* J = 16 */
(PID.TID 0000.0001)                 4.274825863380723E+05,      /* J = 17 */
(PID.TID 0000.0001)                 4.349919152597734E+05,      /* J = 18 */
(PID.TID 0000.0001)                 4.403820072955634E+05,      /* J = 19 */
(PID.TID 0000.0001)                 4.436266024588540E+05,      /* J = 20 */
(PID.TID 0000.0001)                 4.447098934081552E+05,      /* J = 21 */
(PID.TID 0000.0001)                 4.436266024588540E+05,      /* J = 22 */
(PID.TID 0000.0001)                 4.403820072955634E+05,      /* J = 23 */
(PID.TID 0000.0001)                 4.349919152597734E+05,      /* J = 24 */
(PID.TID 0000.0001)                 4.274825863380723E+05,      /* J = 25 */
(PID.TID 0000.0001)                 4.178906052261313E+05,      /* J = 26 */
(PID.TID 0000.0001)                 4.062627030917454E+05,      /* J = 27 */
(PID.TID 0000.0001)                 3.926555299052806E+05,      /* J = 28 */
(PID.TID 0000.0001)                 3.771353784467131E+05,      /* J = 29 */
(PID.TID 0000.0001)                 3.597778613338689E+05,      /* J = 30 */
(PID.TID 0000.0001)                 3.406675426453503E+05,      /* J = 31 */
(PID.TID 0000.0001)                 3.198975259328452E+05,      /* J = 32 */
(PID.TID 0000.0001)                 2.975690006299820E+05,      /* J = 33 */
(PID.TID 0000.0001)                 2.737907490675810E+05,      /* J = 34 */
(PID.TID 0000.0001)                 2.486786164970726E+05,      /* J = 35 */
(PID.TID 0000.0001)                 2.223549467040776E+05,      /* J = 36 */
(PID.TID 0000.0001)                 1.949479859617814E+05,      /* J = 37 */
(PID.TID 0000.0001)                 1.665912582279823E+05,      /* J = 38 */
(PID.TID 0000.0001)                 1.374229146297914E+05,      /* J = 39 */
(PID.TID 0000.0001)                 1.075850604052271E+05       /* J = 40 */
(PID.TID 0000.0001)     ;
(PID.TID 0000.0001) dyG =  /* dyG(:,1,:,1) ( m - cartesian, degrees - spherical ) */
(PID.TID 0000.0001)    90 @  4.447098934081552E+05              /* I =  1: 90 */
(PID.TID 0000.0001)     ;
(PID.TID 0000.0001) dyG =  /* dyG(1,:,1,:) ( m - cartesian, degrees - spherical ) */
(PID.TID 0000.0001)    40 @  4.447098934081552E+05              /* J =  1: 40 */
(PID.TID 0000.0001)     ;
(PID.TID 0000.0001) dxC =  /* dxC(:,1,:,1) ( m - cartesian, degrees - spherical ) */
(PID.TID 0000.0001)    90 @  9.246038586187513E+04              /* I =  1: 90 */
(PID.TID 0000.0001)     ;
(PID.TID 0000.0001) dxC =  /* dxC(1,:,1,:) ( m - cartesian, degrees - spherical ) */
(PID.TID 0000.0001)                 9.246038586187513E+04,      /* J =  1 */
(PID.TID 0000.0001)                 1.225786591246834E+05,      /* J =  2 */
(PID.TID 0000.0001)                 1.520997414818001E+05,      /* J =  3 */
(PID.TID 0000.0001)                 1.808798091874300E+05,      /* J =  4 */
(PID.TID 0000.0001)                 2.087786486446736E+05,      /* J =  5 */
(PID.TID 0000.0001)                 2.356603395120766E+05,      /* J =  6 */
(PID.TID 0000.0001)                 2.613939168938713E+05,      /* J =  7 */
(PID.TID 0000.0001)                 2.858540093877838E+05,      /* J =  8 */
(PID.TID 0000.0001)                 3.089214498819035E+05,      /* J =  9 */
(PID.TID 0000.0001)                 3.304838561248741E+05,      /* J = 10 */
(PID.TID 0000.0001)                 3.504361782409254E+05,      /* J = 11 */
(PID.TID 0000.0001)                 3.686812105223083E+05,      /* J = 12 */
(PID.TID 0000.0001)                 3.851300650057322E+05,      /* J = 13 */
(PID.TID 0000.0001)                 3.997026045255871E+05,      /* J = 14 */
(PID.TID 0000.0001)                 4.123278331341585E+05,      /* J = 15 */
(PID.TID 0000.0001)                 4.229442419867491E+05,      /* J = 16 */
(PID.TID 0000.0001)                 4.315001090065869E+05,      /* J = 17 */
(PID.TID 0000.0001)                 4.379537508695839E+05,      /* J = 18 */
(PID.TID 0000.0001)                 4.422737260813013E+05,      /* J = 19 */
(PID.TID 0000.0001)     2 @  4.444389881567501E+05,             /* J = 20: 21 */
(PID.TID 0000.0001)                 4.422737260813013E+05,      /* J = 22 */
(PID.TID 0000.0001)                 4.379537508695839E+05,      /* J = 23 */
(PID.TID 0000.0001)                 4.315001090065869E+05,      /* J = 24 */
(PID.TID 0000.0001)                 4.229442419867491E+05,      /* J = 25 */
(PID.TID 0000.0001)                 4.123278331341585E+05,      /* J = 26 */
(PID.TID 0000.0001)                 3.997026045255871E+05,      /* J = 27 */
(PID.TID 0000.0001)                 3.851300650057322E+05,      /* J = 28 */
(PID.TID 0000.0001)                 3.686812105223083E+05,      /* J = 29 */
(PID.TID 0000.0001)                 3.504361782409254E+05,      /* J = 30 */
(PID.TID 0000.0001)                 3.304838561248741E+05,      /* J = 31 */
(PID.TID 0000.0001)                 3.089214498819035E+05,      /* J = 32 */
(PID.TID 0000.0001)                 2.858540093877838E+05,      /* J = 33 */
(PID.TID 0000.0001)                 2.613939168938713E+05,      /* J = 34 */
(PID.TID 0000.0001)                 2.356603395120766E+05,      /* J = 35 */
(PID.TID 0000.0001)                 2.087786486446736E+05,      /* J = 36 */
(PID.TID 0000.0001)                 1.808798091874300E+05,      /* J = 37 */
(PID.TID 0000.0001)                 1.520997414818001E+05,      /* J = 38 */
(PID.TID 0000.0001)                 1.225786591246834E+05,      /* J = 39 */
(PID.TID 0000.0001)                 9.246038586187513E+04       /* J = 40 */
(PID.TID 0000.0001)     ;
(PID.TID 0000.0001) dyC =  /* dyC(:,1,:,1) ( m - cartesian, degrees - spherical ) */
(PID.TID 0000.0001)    90 @  4.447098934081552E+05              /* I =  1: 90 */
(PID.TID 0000.0001)     ;
(PID.TID 0000.0001) dyC =  /* dyC(1,:,1,:) ( m - cartesian, degrees - spherical ) */
(PID.TID 0000.0001)    40 @  4.447098934081552E+05              /* J =  1: 40 */
(PID.TID 0000.0001)     ;
(PID.TID 0000.0001) dxV =  /* dxV(:,1,:,1) ( m - cartesian, degrees - spherical ) */
(PID.TID 0000.0001)    90 @  7.722306258078101E+04              /* I =  1: 90 */
(PID.TID 0000.0001)     ;
(PID.TID 0000.0001) dxV =  /* dxV(1,:,1,:) ( m - cartesian, degrees - spherical ) */
(PID.TID 0000.0001)                 7.722306258078101E+04,      /* J =  1 */
(PID.TID 0000.0001)                 1.075850604052271E+05,      /* J =  2 */
(PID.TID 0000.0001)                 1.374229146297914E+05,      /* J =  3 */
(PID.TID 0000.0001)                 1.665912582279823E+05,      /* J =  4 */
(PID.TID 0000.0001)                 1.949479859617814E+05,      /* J =  5 */
(PID.TID 0000.0001)                 2.223549467040776E+05,      /* J =  6 */
(PID.TID 0000.0001)                 2.486786164970726E+05,      /* J =  7 */
(PID.TID 0000.0001)                 2.737907490675810E+05,      /* J =  8 */
(PID.TID 0000.0001)                 2.975690006299820E+05,      /* J =  9 */
(PID.TID 0000.0001)                 3.198975259328452E+05,      /* J = 10 */
(PID.TID 0000.0001)                 3.406675426453503E+05,      /* J = 11 */
(PID.TID 0000.0001)                 3.597778613338689E+05,      /* J = 12 */
(PID.TID 0000.0001)                 3.771353784467131E+05,      /* J = 13 */
(PID.TID 0000.0001)                 3.926555299052806E+05,      /* J = 14 */
(PID.TID 0000.0001)                 4.062627030917454E+05,      /* J = 15 */
(PID.TID 0000.0001)                 4.178906052261313E+05,      /* J = 16 */
(PID.TID 0000.0001)                 4.274825863380723E+05,      /* J = 17 */
(PID.TID 0000.0001)                 4.349919152597734E+05,      /* J = 18 */
(PID.TID 0000.0001)                 4.403820072955634E+05,      /* J = 19 */
(PID.TID 0000.0001)                 4.436266024588540E+05,      /* J = 20 */
(PID.TID 0000.0001)                 4.447098934081552E+05,      /* J = 21 */
(PID.TID 0000.0001)                 4.436266024588540E+05,      /* J = 22 */
(PID.TID 0000.0001)                 4.403820072955634E+05,      /* J = 23 */
(PID.TID 0000.0001)                 4.349919152597734E+05,      /* J = 24 */
(PID.TID 0000.0001)                 4.274825863380723E+05,      /* J = 25 */
(PID.TID 0000.0001)                 4.178906052261313E+05,      /* J = 26 */
(PID.TID 0000.0001)                 4.062627030917454E+05,      /* J = 27 */
(PID.TID 0000.0001)                 3.926555299052806E+05,      /* J = 28 */
(PID.TID 0000.0001)                 3.771353784467131E+05,      /* J = 29 */
(PID.TID 0000.0001)                 3.597778613338689E+05,      /* J = 30 */
(PID.TID 0000.0001)                 3.406675426453503E+05,      /* J = 31 */
(PID.TID 0000.0001)                 3.198975259328452E+05,      /* J = 32 */
(PID.TID 0000.0001)                 2.975690006299820E+05,      /* J = 33 */
(PID.TID 0000.0001)                 2.737907490675810E+05,      /* J = 34 */
(PID.TID 0000.0001)                 2.486786164970726E+05,      /* J = 35 */
(PID.TID 0000.0001)                 2.223549467040776E+05,      /* J = 36 */
(PID.TID 0000.0001)                 1.949479859617814E+05,      /* J = 37 */
(PID.TID 0000.0001)                 1.665912582279823E+05,      /* J = 38 */
(PID.TID 0000.0001)                 1.374229146297914E+05,      /* J = 39 */
(PID.TID 0000.0001)                 1.075850604052271E+05       /* J = 40 */
(PID.TID 0000.0001)     ;
(PID.TID 0000.0001) dyU =  /* dyU(:,1,:,1) ( m - cartesian, degrees - spherical ) */
(PID.TID 0000.0001)    90 @  4.447098934081552E+05              /* I =  1: 90 */
(PID.TID 0000.0001)     ;
(PID.TID 0000.0001) dyU =  /* dyU(1,:,1,:) ( m - cartesian, degrees - spherical ) */
(PID.TID 0000.0001)    40 @  4.447098934081552E+05              /* J =  1: 40 */
(PID.TID 0000.0001)     ;
(PID.TID 0000.0001) rA =  /* rA(:,1,:,1) ( m - cartesian, degrees - spherical ) */
(PID.TID 0000.0001)    90 @  4.110969866729052E+10              /* I =  1: 90 */
(PID.TID 0000.0001)     ;
(PID.TID 0000.0001) rA =  /* rA(1,:,1,:) ( m - cartesian, degrees - spherical ) */
(PID.TID 0000.0001)                 4.110969866729052E+10,      /* J =  1 */
(PID.TID 0000.0001)                 5.450087291636662E+10,      /* J =  2 */
(PID.TID 0000.0001)                 6.762652439100241E+10,      /* J =  3 */
(PID.TID 0000.0001)                 8.042270623660014E+10,      /* J =  4 */
(PID.TID 0000.0001)                 9.282707674147511E+10,      /* J =  5 */
(PID.TID 0000.0001)                 1.047792030594104E+11,      /* J =  6 */
(PID.TID 0000.0001)                 1.162208556324094E+11,      /* J =  7 */
(PID.TID 0000.0001)                 1.270962918792466E+11,      /* J =  8 */
(PID.TID 0000.0001)                 1.373525277677230E+11,      /* J =  9 */
(PID.TID 0000.0001)                 1.469395959475424E+11,      /* J = 10 */
(PID.TID 0000.0001)                 1.558107891862222E+11,      /* J = 11 */
(PID.TID 0000.0001)                 1.639228879220324E+11,      /* J = 12 */
(PID.TID 0000.0001)                 1.712363708253575E+11,      /* J = 13 */
(PID.TID 0000.0001)                 1.777156073426414E+11,      /* J = 14 */
(PID.TID 0000.0001)                 1.833290312848624E+11,      /* J = 15 */
(PID.TID 0000.0001)                 1.880492946148330E+11,      /* J = 16 */
(PID.TID 0000.0001)                 1.918534006840893E+11,      /* J = 17 */
(PID.TID 0000.0001)                 1.947228162702492E+11,      /* J = 18 */
(PID.TID 0000.0001)                 1.966435618690094E+11,      /* J = 19 */
(PID.TID 0000.0001)     2 @  1.976062798008856E+11,             /* J = 20: 21 */
(PID.TID 0000.0001)                 1.966435618690094E+11,      /* J = 22 */
(PID.TID 0000.0001)                 1.947228162702492E+11,      /* J = 23 */
(PID.TID 0000.0001)                 1.918534006840893E+11,      /* J = 24 */
(PID.TID 0000.0001)                 1.880492946148330E+11,      /* J = 25 */
(PID.TID 0000.0001)                 1.833290312848624E+11,      /* J = 26 */
(PID.TID 0000.0001)                 1.777156073426414E+11,      /* J = 27 */
(PID.TID 0000.0001)                 1.712363708253575E+11,      /* J = 28 */
(PID.TID 0000.0001)                 1.639228879220324E+11,      /* J = 29 */
(PID.TID 0000.0001)                 1.558107891862222E+11,      /* J = 30 */
(PID.TID 0000.0001)                 1.469395959475424E+11,      /* J = 31 */
(PID.TID 0000.0001)                 1.373525277677230E+11,      /* J = 32 */
(PID.TID 0000.0001)                 1.270962918792466E+11,      /* J = 33 */
(PID.TID 0000.0001)                 1.162208556324094E+11,      /* J = 34 */
(PID.TID 0000.0001)                 1.047792030594104E+11,      /* J = 35 */
(PID.TID 0000.0001)                 9.282707674147511E+10,      /* J = 36 */
(PID.TID 0000.0001)                 8.042270623660014E+10,      /* J = 37 */
(PID.TID 0000.0001)                 6.762652439100241E+10,      /* J = 38 */
(PID.TID 0000.0001)                 5.450087291636662E+10,      /* J = 39 */
(PID.TID 0000.0001)                 4.110969866729052E+10       /* J = 40 */
(PID.TID 0000.0001)     ;
(PID.TID 0000.0001) rAw =  /* rAw(:,1,:,1) ( m - cartesian, degrees - spherical ) */
(PID.TID 0000.0001)    90 @  4.110969866729052E+10              /* I =  1: 90 */
(PID.TID 0000.0001)     ;
(PID.TID 0000.0001) rAw =  /* rAw(1,:,1,:) ( m - cartesian, degrees - spherical ) */
(PID.TID 0000.0001)                 4.110969866729052E+10,      /* J =  1 */
(PID.TID 0000.0001)                 5.450087291636662E+10,      /* J =  2 */
(PID.TID 0000.0001)                 6.762652439100241E+10,      /* J =  3 */
(PID.TID 0000.0001)                 8.042270623660014E+10,      /* J =  4 */
(PID.TID 0000.0001)                 9.282707674147511E+10,      /* J =  5 */
(PID.TID 0000.0001)                 1.047792030594104E+11,      /* J =  6 */
(PID.TID 0000.0001)                 1.162208556324094E+11,      /* J =  7 */
(PID.TID 0000.0001)                 1.270962918792466E+11,      /* J =  8 */
(PID.TID 0000.0001)                 1.373525277677230E+11,      /* J =  9 */
(PID.TID 0000.0001)                 1.469395959475424E+11,      /* J = 10 */
(PID.TID 0000.0001)                 1.558107891862222E+11,      /* J = 11 */
(PID.TID 0000.0001)                 1.639228879220324E+11,      /* J = 12 */
(PID.TID 0000.0001)                 1.712363708253575E+11,      /* J = 13 */
(PID.TID 0000.0001)                 1.777156073426414E+11,      /* J = 14 */
(PID.TID 0000.0001)                 1.833290312848624E+11,      /* J = 15 */
(PID.TID 0000.0001)                 1.880492946148330E+11,      /* J = 16 */
(PID.TID 0000.0001)                 1.918534006840893E+11,      /* J = 17 */
(PID.TID 0000.0001)                 1.947228162702492E+11,      /* J = 18 */
(PID.TID 0000.0001)                 1.966435618690094E+11,      /* J = 19 */
(PID.TID 0000.0001)     2 @  1.976062798008856E+11,             /* J = 20: 21 */
(PID.TID 0000.0001)                 1.966435618690094E+11,      /* J = 22 */
(PID.TID 0000.0001)                 1.947228162702492E+11,      /* J = 23 */
(PID.TID 0000.0001)                 1.918534006840893E+11,      /* J = 24 */
(PID.TID 0000.0001)                 1.880492946148330E+11,      /* J = 25 */
(PID.TID 0000.0001)                 1.833290312848624E+11,      /* J = 26 */
(PID.TID 0000.0001)                 1.777156073426414E+11,      /* J = 27 */
(PID.TID 0000.0001)                 1.712363708253575E+11,      /* J = 28 */
(PID.TID 0000.0001)                 1.639228879220324E+11,      /* J = 29 */
(PID.TID 0000.0001)                 1.558107891862222E+11,      /* J = 30 */
(PID.TID 0000.0001)                 1.469395959475424E+11,      /* J = 31 */
(PID.TID 0000.0001)                 1.373525277677230E+11,      /* J = 32 */
(PID.TID 0000.0001)                 1.270962918792466E+11,      /* J = 33 */
(PID.TID 0000.0001)                 1.162208556324094E+11,      /* J = 34 */
(PID.TID 0000.0001)                 1.047792030594104E+11,      /* J = 35 */
(PID.TID 0000.0001)                 9.282707674147511E+10,      /* J = 36 */
(PID.TID 0000.0001)                 8.042270623660014E+10,      /* J = 37 */
(PID.TID 0000.0001)                 6.762652439100241E+10,      /* J = 38 */
(PID.TID 0000.0001)                 5.450087291636662E+10,      /* J = 39 */
(PID.TID 0000.0001)                 4.110969866729052E+10       /* J = 40 */
(PID.TID 0000.0001)     ;
(PID.TID 0000.0001) rAs =  /* rAs(:,1,:,1) ( m - cartesian, degrees - spherical ) */
(PID.TID 0000.0001)    90 @  3.433488626798226E+10              /* I =  1: 90 */
(PID.TID 0000.0001)     ;
(PID.TID 0000.0001) rAs =  /* rAs(1,:,1,:) ( m - cartesian, degrees - spherical ) */
(PID.TID 0000.0001)                 3.433488626798226E+10,      /* J =  1 */
(PID.TID 0000.0001)                 4.783442523123644E+10,      /* J =  2 */
(PID.TID 0000.0001)                 6.110091968306396E+10,      /* J =  3 */
(PID.TID 0000.0001)                 7.406973659603816E+10,      /* J =  4 */
(PID.TID 0000.0001)                 8.667769319778082E+10,      /* J =  5 */
(PID.TID 0000.0001)                 9.886336479107460E+10,      /* J =  6 */
(PID.TID 0000.0001)                 1.105673840088176E+11,      /* J =  7 */
(PID.TID 0000.0001)                 1.217327300458637E+11,      /* J =  8 */
(PID.TID 0000.0001)                 1.323050064586577E+11,      /* J =  9 */
(PID.TID 0000.0001)                 1.422327061792379E+11,      /* J = 10 */
(PID.TID 0000.0001)                 1.514674624524945E+11,      /* J = 11 */
(PID.TID 0000.0001)                 1.599642844741386E+11,      /* J = 12 */
(PID.TID 0000.0001)                 1.676817765813786E+11,      /* J = 13 */
(PID.TID 0000.0001)                 1.745823399284268E+11,      /* J = 14 */
(PID.TID 0000.0001)                 1.806323556642997E+11,      /* J = 15 */
(PID.TID 0000.0001)                 1.858023487204767E+11,      /* J = 16 */
(PID.TID 0000.0001)                 1.900671314104744E+11,      /* J = 17 */
(PID.TID 0000.0001)                 1.934059261417216E+11,      /* J = 18 */
(PID.TID 0000.0001)                 1.958024666419019E+11,      /* J = 19 */
(PID.TID 0000.0001)                 1.972450772065981E+11,      /* J = 20 */
(PID.TID 0000.0001)                 1.977267295821496E+11,      /* J = 21 */
(PID.TID 0000.0001)                 1.972450772065981E+11,      /* J = 22 */
(PID.TID 0000.0001)                 1.958024666419019E+11,      /* J = 23 */
(PID.TID 0000.0001)                 1.934059261417216E+11,      /* J = 24 */
(PID.TID 0000.0001)                 1.900671314104744E+11,      /* J = 25 */
(PID.TID 0000.0001)                 1.858023487204767E+11,      /* J = 26 */
(PID.TID 0000.0001)                 1.806323556642997E+11,      /* J = 27 */
(PID.TID 0000.0001)                 1.745823399284268E+11,      /* J = 28 */
(PID.TID 0000.0001)                 1.676817765813786E+11,      /* J = 29 */
(PID.TID 0000.0001)                 1.599642844741386E+11,      /* J = 30 */
(PID.TID 0000.0001)                 1.514674624524945E+11,      /* J = 31 */
(PID.TID 0000.0001)                 1.422327061792379E+11,      /* J = 32 */
(PID.TID 0000.0001)                 1.323050064586577E+11,      /* J = 33 */
(PID.TID 0000.0001)                 1.217327300458637E+11,      /* J = 34 */
(PID.TID 0000.0001)                 1.105673840088176E+11,      /* J = 35 */
(PID.TID 0000.0001)                 9.886336479107460E+10,      /* J = 36 */
(PID.TID 0000.0001)                 8.667769319778082E+10,      /* J = 37 */
(PID.TID 0000.0001)                 7.406973659603816E+10,      /* J = 38 */
(PID.TID 0000.0001)                 6.110091968306396E+10,      /* J = 39 */
(PID.TID 0000.0001)                 4.783442523123644E+10       /* J = 40 */
(PID.TID 0000.0001)     ;
(PID.TID 0000.0001) 
(PID.TID 0000.0001)  MDSREADFIELD: opening global file: theta.bin
(PID.TID 0000.0001) // =======================================================
(PID.TID 0000.0001) // Field Initial Temperature at iteration          1
(PID.TID 0000.0001) // CMIN =         -1.668560028076172E+00
(PID.TID 0000.0001) // CMAX =          2.932958030700684E+01
(PID.TID 0000.0001) // CINT =          1.148079271669741E+00
(PID.TID 0000.0001) // SYMBOLS (CMIN->CMAX): -abcdefghijklmnopqrstuvwxyz+
(PID.TID 0000.0001) //                  0.0: .
(PID.TID 0000.0001) // RANGE I (Lo:Hi:Step):(   1:  90:   1)
(PID.TID 0000.0001) // RANGE J (Lo:Hi:Step):(  40:   1:  -1)
(PID.TID 0000.0001) // RANGE K (Lo:Hi:Step):(   1:   1:   1)
(PID.TID 0000.0001) // =======================================================
(PID.TID 0000.0001) K =   1
(PID.TID 0000.0001)                I=10      I=20      I=30      I=40      I=50      I=60      I=70      I=80      I=90
(PID.TID 0000.0001) |--J--|123456789|123456789|123456789|123456789|123456789|123456789|123456789|123456789|123456789|
(PID.TID 0000.0001)     40 ..........................................................................................
(PID.TID 0000.0001)     39 efffgf...................................................................bbb.........bbccd
(PID.TID 0000.0001)     38 hhhh......................................................................bc........dddefg
(PID.TID 0000.0001)     37 ij........................................................................ccc...ffgg..hhii
(PID.TID 0000.0001)     36 i..........................................efeed..........................deee.fhhijjkkjji
(PID.TID 0000.0001)     35 jj.................................dddd.ffffffffff.ghhiii..................defgghijkllll..
(PID.TID 0000.0001)     34 ....................................deeefffgggggghhhhiijjj..................dfhijklmmmml..
(PID.TID 0000.0001)     33 ....................................eeeffgggghhhhiiiiijjkkk...............ee.egkmmnnnnnmm.
(PID.TID 0000.0001)     32 ....................................hhhiiiijjjjjkkkkklllmml...............iiihkopppoooon..
(PID.TID 0000.0001)     31 ....................................mnnnnnnnnnnnnnnnnnooonm.............oprrrqrsrrrqqqp...
(PID.TID 0000.0001)     30 ...................................rrrrrqqqqqqqpppppqqqqpon............suuuuutttsssrrrrq..
(PID.TID 0000.0001)     29 ...............................ruuuuttttttttsssssssssssrrqpoo.........vvuuuuuutttttsssrr..
(PID.TID 0000.0001)     28 ..............................uvvvvvvvvvvvvvvvvuuuuuuutssrrqq......wv.wwvvvvvvvuuutttss...
(PID.TID 0000.0001)     27 ...............................xxxxwxxxxwxwwwwwwwwwvvuutttsssst...wxxxxxxxxxxwwwvvvuus....
(PID.TID 0000.0001)     26 ...............xyy....y.....xxyyyyyyyyyyyyyxxxxxxxxwwvvvvuuuuvvw..w.yyyyyyyxxxxwwvvuts....
(PID.TID 0000.0001)     25 .............xxyyz..yzzy...xyy.zzzzzzzzzzyyyyyyyxxxxwwwwwwwwxxxyy....zzyyyyyyxxxwwwvut....
(PID.TID 0000.0001)     24 ............xxyzzzz.zzzz...yyz.zzzzzzzzzzzzyyyyyyyxxxxxxxxxxxyyyyxww.yyy.yyyyyxxxwwwvu....
(PID.TID 0000.0001)     23 .............xyzzzzzzzzz.zyyzzzzzz++++zzzzzzzzzzzyyyyyyyyyyyyyyyxxwvw......yyyyyyxxxxww...
(PID.TID 0000.0001)     22 xx..........yyzz+zzzzzzz..zz..zzz++++++++++zzzzzzzzzzyyyyyxxxxxxxxxwww.......yyyyyyyyyyxww
(PID.TID 0000.0001)     21 ww.........yyyzzzzzzzz+++.....zzzz++++++++zzzzzzyyyyyyxxxwwwvvvvuuutut........yyyyyxxxxwww
(PID.TID 0000.0001)     20 vvu.......yyyyyyzzzzzzzzz.......y...++++++++++zzzzzzzyyyyxxxwwwvvuuut............yyyxxxwvv
(PID.TID 0000.0001)     19 vut.......yxyxxyyyyyyyzzzzz.zzzzzy...zz++++++++++++zzzzyyyyyxxxwwvvvus...........yyyxxxwww
(PID.TID 0000.0001)     18 uut.......yyyyxyyyyyyyyyyyyyzzzz....yyyzzzzzz++z++zzzzzzyyyxxxwwvvuutsr..........yyxxxwvvv
(PID.TID 0000.0001)     17 tts.......y..xxxxxxxxxxxxxxxyyy......xyyyyyyyyzzzzzzzzyyyyxxxwwvvuuutsr..........xxxwwvuut
(PID.TID 0000.0001)     16 tsq......xx.xxwwwwwwwvvvvwwww........wwwxxxxxxxxxxxxxxxxxxxxxwvvvuuttssr........xxxxwvvuut
(PID.TID 0000.0001)     15 srq......ww.wwwvvvvvuuuuuuuv..........vvvvvvvvvvvvvvvvvwwwwwwvvvuuttsrrq.......vwwwwvvuutt
(PID.TID 0000.0001)     14 ssrp....vvvvvvuuuuuttstttstt...........uuuttutttttttuuuuuuuuuvuuuttssrqp......uvvvuuuuuuts
(PID.TID 0000.0001)     13 rrrq...ttsssssrrrrrrqrqqqqqr..........uttsssssrrrrsrrsssssssssrrrrrrrqpo.....tttttsttttssr
(PID.TID 0000.0001)     12 ppqqrssssrrqqqqpppooooooopppq.qppp....ssrqqqqqpppppppppppppoooopooppppon....orrrrrqqqqqqqp
(PID.TID 0000.0001)     11 mlmopqpppppoooononnmmmlmmmmmnnnnnnnoopppppp.pooonnnnnnnnnmmmmmmmmmmnnnn....lmpoooooonnnnmm
(PID.TID 0000.0001)     10 iiijkkkkkjjiijkkkkkkkkjjjjjjkkkkllllmnnnnn.lmmmnmmlllllmllllllkkkjkllll...kjlmlkkkkkjjjjii
(PID.TID 0000.0001)      9 ffffffffffffefffeefgggggfggghhiiiiijjkllllkkkkkkkkkkkkjjjjjjiiiiiiijjjk...ihiiihggggfffeee
(PID.TID 0000.0001)      8 ccccccddddddddeedddddddedeeeefffgfggghhhiiiiiiiihhhhhhhhhgggggghggggghi..hhhgffedddddddccc
(PID.TID 0000.0001)      7 aaabbbccccccccccccccbccccccccddddddddeeffghhgggggfeedddeeffffffffggfggggggffeddccbbbbbbbbb
(PID.TID 0000.0001)      6 aaaabbbbbbbbbbbbbbbbbbbbbbbbbcccccccccccdeeeeeeedcbbbbbccccdddddeeeeeeeeddcccbbbaaaaaaaaaa
(PID.TID 0000.0001)      5 aaabbbbbbbbaaaaabbbaaaaaa.aaabbbbbbbbbbbbbbbbbbbbbaaaaaaaabbbbcccccccbbbbb.aaaaaaaaaaaaaaa
(PID.TID 0000.0001)      4 aaaaaaaa.a..............................aaaaaaaaaaaaaaaaaaaaaaaaaaaaaaaa...aa--aaaaaaaaaaa
(PID.TID 0000.0001)      3 ...........................................aaaaaa------------aaaa..........------aaaaa....
(PID.TID 0000.0001)      2 ...........................................aaaaaa--...........................----........
(PID.TID 0000.0001)      1 ..........................................................................................
(PID.TID 0000.0001) // =======================================================
(PID.TID 0000.0001) // END OF FIELD                                          =
(PID.TID 0000.0001) // =======================================================
(PID.TID 0000.0001) 
(PID.TID 0000.0001)  MDSREADFIELD: opening global file: salt.bin
(PID.TID 0000.0001) // =======================================================
(PID.TID 0000.0001) // Field Initial Salinity at iteration          1
(PID.TID 0000.0001) // CMIN =          3.102835273742676E+01
(PID.TID 0000.0001) // CMAX =          3.743946075439453E+01
(PID.TID 0000.0001) // CINT =          2.374484450728805E-01
(PID.TID 0000.0001) // SYMBOLS (CMIN->CMAX): -abcdefghijklmnopqrstuvwxyz+
(PID.TID 0000.0001) //                  0.0: .
(PID.TID 0000.0001) // RANGE I (Lo:Hi:Step):(   1:  90:   1)
(PID.TID 0000.0001) // RANGE J (Lo:Hi:Step):(  40:   1:  -1)
(PID.TID 0000.0001) // RANGE K (Lo:Hi:Step):(   1:   1:   1)
(PID.TID 0000.0001) // =======================================================
(PID.TID 0000.0001) K =   1
(PID.TID 0000.0001)                I=10      I=20      I=30      I=40      I=50      I=60      I=70      I=80      I=90
(PID.TID 0000.0001) |--J--|123456789|123456789|123456789|123456789|123456789|123456789|123456789|123456789|123456789|
(PID.TID 0000.0001)     40 ..........................................................................................
(PID.TID 0000.0001)     39 qqqqpp...................................................................ghi.........kmnpp
(PID.TID 0000.0001)     38 rqpn......................................................................gh........mnoppq
(PID.TID 0000.0001)     37 qo........................................................................hjj...noqq..pqqq
(PID.TID 0000.0001)     36 p..........................................hhgeb..........................jmom.npqqrrrrrrq
(PID.TID 0000.0001)     35 po.................................gghh.ghiiiihfdb.egggec..................gloppppqqrrrr..
(PID.TID 0000.0001)     34 ....................................fghghhhhhhhhgfgggggfed..................flopppqrrsrr..
(PID.TID 0000.0001)     33 ....................................gghhhhhhhhgghhgggggggfe...............-b.glprsrrssssr.
(PID.TID 0000.0001)     32 ....................................hhijjjjjkjjjjiihhhhhggf...............cghiosttttssts..
(PID.TID 0000.0001)     31 ....................................llmmmmmmmmmmmllkjkjihgh.............mpsttsuvuuuuuut...
(PID.TID 0000.0001)     30 ...................................nooooooooonnnnnmmmmlkjih............qvwwwwwvvvvvvvvvv..
(PID.TID 0000.0001)     29 ...............................knooooooopppppppppppppppomkjjj.........vwwwwwwwwxxxxxxwww..
(PID.TID 0000.0001)     28 ..............................lnopoppppqqqqqqrrrrrrrrrrqpnlkk......tu.vwwxxxyyyzzzzyyxw...
(PID.TID 0000.0001)     27 ...............................pppppqqqqqrrrrrrrrrqqqqqqponmmmp...wwvuwwwwxxyz++++zzyx....
(PID.TID 0000.0001)     26 ...............vwu....h.....mmnooppppqqqqqrqqqqqqpppoppoooonnnoo..v.uuvvvuuuwyzzyyyxwu....
(PID.TID 0000.0001)     25 .............uuvwv..gihf...llk.nnooopppppppppppoooonnoonnnnnmmmmm....uttsssstwwwwwwvut....
(PID.TID 0000.0001)     24 ............utuvvuq.kkig...kjk.nnnnnoooooooooooonnnnnnnmmmmmlllllmmm.vuu.vsrrtuvuuuuts....
(PID.TID 0000.0001)     23 .............stttspommki.eijjkmnmmmnnnnnnnnnnnnoonnnnnnnnmmmmmllklmml......srstttuttssp...
(PID.TID 0000.0001)     22 qm..........ssrrrrqponml..jj..mnnnnoonnonopopppqqppppppppooonnnmlllkjj.......outtttssrrqrr
(PID.TID 0000.0001)     21 qp.........rrrrrqqqpppnml.....mmnoooooppppqqrrrrrrrqqqqqqppppppppooonm........tuuuuutttsrr
(PID.TID 0000.0001)     20 ssq.......rrrrqqqqppponmm.......n...noppppqqrssssssrssrrrrqqqqqqppppp............uuuutttts
(PID.TID 0000.0001)     19 usr.......qqrqppppooonnmmml.kklmmm...nppoppppqrrssssssssssrrrrrrqqrqqq...........wvvuuuuuu
(PID.TID 0000.0001)     18 vut.......qqqppoooonnnnnnnnnnnno....qqpppppppqrrsttttttuutttttttssssrrq..........xxxxxwwww
(PID.TID 0000.0001)     17 uut.......q..qpppoooooooooooooo......rqqpqqqqrsrsttuuuvvvvvvvvvuuttssrq..........yzzyyxwwv
(PID.TID 0000.0001)     16 tts......qq.qqqppqpqpppqqqqqq........rrrrrrrqrsssstttuuvvvwwwwvvvutsrrqq........yyzzyxxwvu
(PID.TID 0000.0001)     15 tsr......rr.qqrrrrssrssssssr..........sssssssssssssssssstuvwvvuuvtsrqppp.......wxxxxxxwwvu
(PID.TID 0000.0001)     14 ttsr....rrrrrrssstttttttttts...........sttttsssssssssrrrssttttttssrqpoon......vwwuuvvvvuuu
(PID.TID 0000.0001)     13 tsss...rssssssssstttsttttttt..........sssssttssssrrssrrqqqqrrqqppppooonm.....svuuttttstttt
(PID.TID 0000.0001)     12 rrrsrrrssssssrrssrrrrrrqrssss.srrs....ssssssssrrqqqqqqpqpoooonnnnnnnnmml....ksutsssrrrrrqr
(PID.TID 0000.0001)     11 oooqrrrrrqqqppprrrqqpppppqqqqqpppqqrrsrrrrr.rrrqppponnnnnmmmmmmmllmmlml....korqppqrqqpppoo
(PID.TID 0000.0001)     10 mmmnnooonmllkklnnnoonnonooooooopooppqqqppp.ooppppoonnnnnnmmmmmmmllmlllk...kmoponoonnnnnnnn
(PID.TID 0000.0001)      9 lllllllllllkkklkkklllmmmmmmmnnnnnnnooooooonnnnoooooooonnnnnnnnmmmmmmmmk...kmnnnnmmmlllllll
(PID.TID 0000.0001)      8 lllmmmmlllllllllllllllllllllllllllmmmmmmnnnnnnnnnnnnnnnnnnnnnnmnnmmmmml..ikmmmllllllllllll
(PID.TID 0000.0001)      7 mmmmmmmllllllllllllllllllllllllllllllllllmmmmmmmmlllmmmmmmmmmmmmmmmmmmmlkllmmlllllllllllll
(PID.TID 0000.0001)      6 mmmlllllllllllllllllllllllllllllllllllllllllllllllmmmmmmmmmmmmmmmmmmmmmmmlllmmmmmllllllmmm
(PID.TID 0000.0001)      5 nnmmmllllllllllllllllllll.lllmmllllllllmmmmmmmmmmmmmmlllllllllllllllllllll.mmmmmmmmmmmmmmn
(PID.TID 0000.0001)      4 nmmmllll.l..............................mmmmmmlmmmllkkkkkkkkkkkkkkkkkkkk...mnnnnnnnnnnmmnn
(PID.TID 0000.0001)      3 ...........................................nmmmlllllkkkkklmmmmllk..........nnnnnmmmmmm....
(PID.TID 0000.0001)      2 ...........................................nnnmmmmm...........................nnnm........
(PID.TID 0000.0001)      1 ..........................................................................................
(PID.TID 0000.0001) // =======================================================
(PID.TID 0000.0001) // END OF FIELD                                          =
(PID.TID 0000.0001) // =======================================================
(PID.TID 0000.0001) 
(PID.TID 0000.0001)  MDSREADFIELD: opening global file: windx.bin
(PID.TID 0000.0001)  MDSREADFIELD: opening global file: windy.bin
(PID.TID 0000.0001)  MDSREADFIELD: opening global file: SST.bin
(PID.TID 0000.0001)  MDSREADFIELD: opening global file: SSS.bin
(PID.TID 0000.0001) // =======================================================
(PID.TID 0000.0001) // Model current state
(PID.TID 0000.0001) // =======================================================
(PID.TID 0000.0001) 
(PID.TID 0000.0001) // =======================================================
(PID.TID 0000.0001) // Begin MONITOR dynamic field statistics
(PID.TID 0000.0001) // =======================================================
(PID.TID 0000.0001) %MON time_tsnumber                =                     0
(PID.TID 0000.0001) %MON time_secondsf                =   0.0000000000000E+00
(PID.TID 0000.0001) %MON time_secondsi                =                     0
(PID.TID 0000.0001) %MON dynstat_eta_max              =   0.0000000000000E+00
(PID.TID 0000.0001) %MON dynstat_eta_min              =   0.0000000000000E+00
(PID.TID 0000.0001) %MON dynstat_eta_mean             =   0.0000000000000E+00
(PID.TID 0000.0001) %MON dynstat_eta_sd               =   0.0000000000000E+00
(PID.TID 0000.0001) %MON dynstat_eta_del2             =   0.0000000000000E+00
(PID.TID 0000.0001) %MON dynstat_uvel_max             =   0.0000000000000E+00
(PID.TID 0000.0001) %MON dynstat_uvel_min             =   0.0000000000000E+00
(PID.TID 0000.0001) %MON dynstat_uvel_mean            =   0.0000000000000E+00
(PID.TID 0000.0001) %MON dynstat_uvel_sd              =   0.0000000000000E+00
(PID.TID 0000.0001) %MON dynstat_uvel_del2            =   0.0000000000000E+00
(PID.TID 0000.0001) %MON dynstat_vvel_max             =   0.0000000000000E+00
(PID.TID 0000.0001) %MON dynstat_vvel_min             =   0.0000000000000E+00
(PID.TID 0000.0001) %MON dynstat_vvel_mean            =   0.0000000000000E+00
(PID.TID 0000.0001) %MON dynstat_vvel_sd              =   0.0000000000000E+00
(PID.TID 0000.0001) %MON dynstat_vvel_del2            =   0.0000000000000E+00
(PID.TID 0000.0001) %MON dynstat_wvel_max             =   0.0000000000000E+00
(PID.TID 0000.0001) %MON dynstat_wvel_min             =   0.0000000000000E+00
(PID.TID 0000.0001) %MON dynstat_wvel_mean            =   0.0000000000000E+00
(PID.TID 0000.0001) %MON dynstat_wvel_sd              =   0.0000000000000E+00
(PID.TID 0000.0001) %MON dynstat_wvel_del2            =   0.0000000000000E+00
(PID.TID 0000.0001) %MON dynstat_theta_max            =   2.9329580307007E+01
(PID.TID 0000.0001) %MON dynstat_theta_min            =  -1.8496928215027E+00
(PID.TID 0000.0001) %MON dynstat_theta_mean           =   3.4434668483202E+00
(PID.TID 0000.0001) %MON dynstat_theta_sd             =   4.2513626348502E+00
(PID.TID 0000.0001) %MON dynstat_theta_del2           =   1.6419115588189E-01
(PID.TID 0000.0001) %MON dynstat_salt_max             =   3.7439460754395E+01
(PID.TID 0000.0001) %MON dynstat_salt_min             =   3.1028352737427E+01
(PID.TID 0000.0001) %MON dynstat_salt_mean            =   3.4718545511621E+01
(PID.TID 0000.0001) %MON dynstat_salt_sd              =   2.8229416934120E-01
(PID.TID 0000.0001) %MON dynstat_salt_del2            =   2.6263216318373E-02
(PID.TID 0000.0001) %MON advcfl_uvel_max              =   0.0000000000000E+00
(PID.TID 0000.0001) %MON advcfl_vvel_max              =   0.0000000000000E+00
(PID.TID 0000.0001) %MON advcfl_wvel_max              =   0.0000000000000E+00
(PID.TID 0000.0001) %MON advcfl_W_hf_max              =   0.0000000000000E+00
(PID.TID 0000.0001) %MON ke_max                       =   0.0000000000000E+00
(PID.TID 0000.0001) %MON ke_mean                      =   0.0000000000000E+00
(PID.TID 0000.0001) %MON ke_volint                    =   0.0000000000000E+00
(PID.TID 0000.0001) %MON ke_volmean                   =   0.0000000000000E+00
(PID.TID 0000.0001) // =======================================================
(PID.TID 0000.0001) // End MONITOR dynamic field statistics
(PID.TID 0000.0001) // =======================================================
 cg2d: Sum(rhs),rhsMax =   8.93729534823251E-15  8.55254915209883E+00
(PID.TID 0000.0001)                    cg2d_init_res =    3.25964330325846E+00
(PID.TID 0000.0001)                       cg2d_iters =    41
(PID.TID 0000.0001)                         cg2d_res =    6.20895253930083E-14
(PID.TID 0000.0001) // =======================================================
(PID.TID 0000.0001) // Begin MONITOR dynamic field statistics
(PID.TID 0000.0001) // =======================================================
(PID.TID 0000.0001) %MON time_tsnumber                =                     1
(PID.TID 0000.0001) %MON time_secondsf                =   1.0800000000000E+05
(PID.TID 0000.0001) %MON time_secondsi                =                108000
(PID.TID 0000.0001) %MON dynstat_eta_max              =   8.7083955129949E-01
(PID.TID 0000.0001) %MON dynstat_eta_min              =  -3.5440825352850E-01
(PID.TID 0000.0001) %MON dynstat_eta_mean             =   3.4043394750817E-17
(PID.TID 0000.0001) %MON dynstat_eta_sd               =   8.6484951585563E-02
(PID.TID 0000.0001) %MON dynstat_eta_del2             =   2.0558343262121E-02
(PID.TID 0000.0001) %MON dynstat_uvel_max             =   5.8154043988326E-02
(PID.TID 0000.0001) %MON dynstat_uvel_min             =  -1.2347638632761E-01
(PID.TID 0000.0001) %MON dynstat_uvel_mean            =  -1.3225551674631E-03
(PID.TID 0000.0001) %MON dynstat_uvel_sd              =   3.4087712578893E-03
(PID.TID 0000.0001) %MON dynstat_uvel_del2            =   8.2053769806357E-04
(PID.TID 0000.0001) %MON dynstat_vvel_max             =   1.0896886551677E-01
(PID.TID 0000.0001) %MON dynstat_vvel_min             =  -1.5259193897367E-01
(PID.TID 0000.0001) %MON dynstat_vvel_mean            =   2.8407768050157E-03
(PID.TID 0000.0001) %MON dynstat_vvel_sd              =   8.8491808719140E-03
(PID.TID 0000.0001) %MON dynstat_vvel_del2            =   1.1326870302058E-03
(PID.TID 0000.0001) %MON dynstat_wvel_max             =   0.0000000000000E+00
(PID.TID 0000.0001) %MON dynstat_wvel_min             =   0.0000000000000E+00
(PID.TID 0000.0001) %MON dynstat_wvel_mean            =   0.0000000000000E+00
(PID.TID 0000.0001) %MON dynstat_wvel_sd              =   0.0000000000000E+00
(PID.TID 0000.0001) %MON dynstat_wvel_del2            =   0.0000000000000E+00
(PID.TID 0000.0001) %MON dynstat_theta_max            =   2.9327944623998E+01
(PID.TID 0000.0001) %MON dynstat_theta_min            =  -1.8486819133684E+00
(PID.TID 0000.0001) %MON dynstat_theta_mean           =   3.4434668483202E+00
(PID.TID 0000.0001) %MON dynstat_theta_sd             =   4.2510689869085E+00
(PID.TID 0000.0001) %MON dynstat_theta_del2           =   1.6417898562235E-01
(PID.TID 0000.0001) %MON dynstat_salt_max             =   3.7438877520977E+01
(PID.TID 0000.0001) %MON dynstat_salt_min             =   3.1030845979640E+01
(PID.TID 0000.0001) %MON dynstat_salt_mean            =   3.4718545511620E+01
(PID.TID 0000.0001) %MON dynstat_salt_sd              =   2.8221263008079E-01
(PID.TID 0000.0001) %MON dynstat_salt_del2            =   2.6398953087188E-02
(PID.TID 0000.0001) %MON advcfl_uvel_max              =   4.7678539165638E-02
(PID.TID 0000.0001) %MON advcfl_vvel_max              =   3.7057708077636E-02
(PID.TID 0000.0001) %MON advcfl_wvel_max              =   0.0000000000000E+00
(PID.TID 0000.0001) %MON advcfl_W_hf_max              =   0.0000000000000E+00
(PID.TID 0000.0001) %MON ke_max                       =   7.3359305381523E-03
(PID.TID 0000.0001) %MON ke_mean                      =   3.2731186561582E-05
(PID.TID 0000.0001) %MON ke_volint                    =   6.5235006754157E+13
(PID.TID 0000.0001) %MON ke_volmean                   =   4.5068949805398E-05
(PID.TID 0000.0001) // =======================================================
(PID.TID 0000.0001) // End MONITOR dynamic field statistics
(PID.TID 0000.0001) // =======================================================
 cg2d: Sum(rhs),rhsMax =  -1.62855839924703E-14  1.40324358577480E+01
(PID.TID 0000.0001)                    cg2d_init_res =    1.26358070636351E+00
(PID.TID 0000.0001)                       cg2d_iters =    40
(PID.TID 0000.0001)                         cg2d_res =    7.64641358413503E-14
(PID.TID 0000.0001) // =======================================================
(PID.TID 0000.0001) // Begin MONITOR dynamic field statistics
(PID.TID 0000.0001) // =======================================================
(PID.TID 0000.0001) %MON time_tsnumber                =                     2
(PID.TID 0000.0001) %MON time_secondsf                =   2.1600000000000E+05
(PID.TID 0000.0001) %MON time_secondsi                =                216000
(PID.TID 0000.0001) %MON dynstat_eta_max              =   1.5145960735900E+00
(PID.TID 0000.0001) %MON dynstat_eta_min              =  -7.1467786680678E-01
(PID.TID 0000.0001) %MON dynstat_eta_mean             =  -1.1655054320360E-16
(PID.TID 0000.0001) %MON dynstat_eta_sd               =   1.8742169637650E-01
(PID.TID 0000.0001) %MON dynstat_eta_del2             =   3.0421197038906E-02
(PID.TID 0000.0001) %MON dynstat_uvel_max             =   1.3130065745613E-01
(PID.TID 0000.0001) %MON dynstat_uvel_min             =  -2.1320345131110E-01
(PID.TID 0000.0001) %MON dynstat_uvel_mean            =  -3.4705265403172E-03
(PID.TID 0000.0001) %MON dynstat_uvel_sd              =   7.1339567639778E-03
(PID.TID 0000.0001) %MON dynstat_uvel_del2            =   1.6654176633105E-03
(PID.TID 0000.0001) %MON dynstat_vvel_max             =   1.9260510941939E-01
(PID.TID 0000.0001) %MON dynstat_vvel_min             =  -2.6801987718031E-01
(PID.TID 0000.0001) %MON dynstat_vvel_mean            =   5.1288231745532E-03
(PID.TID 0000.0001) %MON dynstat_vvel_sd              =   1.5372534195820E-02
(PID.TID 0000.0001) %MON dynstat_vvel_del2            =   2.3132063081308E-03
(PID.TID 0000.0001) %MON dynstat_wvel_max             =   6.2344383699975E-04
(PID.TID 0000.0001) %MON dynstat_wvel_min             =  -3.5235485113750E-04
(PID.TID 0000.0001) %MON dynstat_wvel_mean            =  -7.6028904783575E-22
(PID.TID 0000.0001) %MON dynstat_wvel_sd              =   3.5353471781543E-05
(PID.TID 0000.0001) %MON dynstat_wvel_del2            =   1.1474299592675E-05
(PID.TID 0000.0001) %MON dynstat_theta_max            =   2.9321594799546E+01
(PID.TID 0000.0001) %MON dynstat_theta_min            =  -1.8475996845170E+00
(PID.TID 0000.0001) %MON dynstat_theta_mean           =   3.4387131219970E+00
(PID.TID 0000.0001) %MON dynstat_theta_sd             =   4.2431620132568E+00
(PID.TID 0000.0001) %MON dynstat_theta_del2           =   1.5851369852335E-01
(PID.TID 0000.0001) %MON dynstat_salt_max             =   3.7437937031270E+01
(PID.TID 0000.0001) %MON dynstat_salt_min             =   3.1023358035893E+01
(PID.TID 0000.0001) %MON dynstat_salt_mean            =   3.4718129374741E+01
(PID.TID 0000.0001) %MON dynstat_salt_sd              =   2.8245136608871E-01
(PID.TID 0000.0001) %MON dynstat_salt_del2            =   2.6234026468068E-02
(PID.TID 0000.0001) %MON advcfl_uvel_max              =   8.1453358066288E-02
(PID.TID 0000.0001) %MON advcfl_vvel_max              =   6.5089954517622E-02
(PID.TID 0000.0001) %MON advcfl_wvel_max              =   1.5675111923391E+00
(PID.TID 0000.0001) %MON advcfl_W_hf_max              =   1.6237236211037E+00
(PID.TID 0000.0001) %MON ke_max                       =   2.2576550259728E-02
(PID.TID 0000.0001) %MON ke_mean                      =   1.1974798578430E-04
(PID.TID 0000.0001) %MON ke_volint                    =   2.1312389706730E+14
(PID.TID 0000.0001) %MON ke_volmean                   =   1.4724103969906E-04
(PID.TID 0000.0001) // =======================================================
(PID.TID 0000.0001) // End MONITOR dynamic field statistics
(PID.TID 0000.0001) // =======================================================
 cg2d: Sum(rhs),rhsMax =   2.53339016431653E-14  1.18718018220213E+01
(PID.TID 0000.0001)                    cg2d_init_res =    1.44537622065912E+00
(PID.TID 0000.0001)                       cg2d_iters =    40
(PID.TID 0000.0001)                         cg2d_res =    8.44479135514222E-14
(PID.TID 0000.0001) // =======================================================
(PID.TID 0000.0001) // Begin MONITOR dynamic field statistics
(PID.TID 0000.0001) // =======================================================
(PID.TID 0000.0001) %MON time_tsnumber                =                     3
(PID.TID 0000.0001) %MON time_secondsf                =   3.2400000000000E+05
(PID.TID 0000.0001) %MON time_secondsi                =                324000
(PID.TID 0000.0001) %MON dynstat_eta_max              =   1.4351452700309E+00
(PID.TID 0000.0001) %MON dynstat_eta_min              =  -9.9663759383307E-01
(PID.TID 0000.0001) %MON dynstat_eta_mean             =  -3.2488843812657E-16
(PID.TID 0000.0001) %MON dynstat_eta_sd               =   2.8033596090622E-01
(PID.TID 0000.0001) %MON dynstat_eta_del2             =   2.7789438532924E-02
(PID.TID 0000.0001) %MON dynstat_uvel_max             =   2.0443475172593E-01
(PID.TID 0000.0001) %MON dynstat_uvel_min             =  -2.7984170177566E-01
(PID.TID 0000.0001) %MON dynstat_uvel_mean            =  -6.0199460058578E-03
(PID.TID 0000.0001) %MON dynstat_uvel_sd              =   1.1221290231683E-02
(PID.TID 0000.0001) %MON dynstat_uvel_del2            =   2.2877453802528E-03
(PID.TID 0000.0001) %MON dynstat_vvel_max             =   2.6080652425892E-01
(PID.TID 0000.0001) %MON dynstat_vvel_min             =  -3.6271304644085E-01
(PID.TID 0000.0001) %MON dynstat_vvel_mean            =   6.6680925518722E-03
(PID.TID 0000.0001) %MON dynstat_vvel_sd              =   1.9617812107821E-02
(PID.TID 0000.0001) %MON dynstat_vvel_del2            =   3.2115231134669E-03
(PID.TID 0000.0001) %MON dynstat_wvel_max             =   1.0222931967696E-03
(PID.TID 0000.0001) %MON dynstat_wvel_min             =  -5.9493001468519E-04
(PID.TID 0000.0001) %MON dynstat_wvel_mean            =   1.2709374272285E-21
(PID.TID 0000.0001) %MON dynstat_wvel_sd              =   5.1691287700572E-05
(PID.TID 0000.0001) %MON dynstat_wvel_del2            =   1.2615205724279E-05
(PID.TID 0000.0001) %MON dynstat_theta_max            =   2.9320762184712E+01
(PID.TID 0000.0001) %MON dynstat_theta_min            =  -1.8482361913416E+00
(PID.TID 0000.0001) %MON dynstat_theta_mean           =   3.4326821940771E+00
(PID.TID 0000.0001) %MON dynstat_theta_sd             =   4.2323151801876E+00
(PID.TID 0000.0001) %MON dynstat_theta_del2           =   1.5580742601054E-01
(PID.TID 0000.0001) %MON dynstat_salt_max             =   3.7435804336658E+01
(PID.TID 0000.0001) %MON dynstat_salt_min             =   3.1005921675483E+01
(PID.TID 0000.0001) %MON dynstat_salt_mean            =   3.4717593640649E+01
(PID.TID 0000.0001) %MON dynstat_salt_sd              =   2.8268072366362E-01
(PID.TID 0000.0001) %MON dynstat_salt_del2            =   2.6054098621689E-02
(PID.TID 0000.0001) %MON advcfl_uvel_max              =   1.0759302322610E-01
(PID.TID 0000.0001) %MON advcfl_vvel_max              =   8.8086659631966E-02
(PID.TID 0000.0001) %MON advcfl_wvel_max              =   1.1587617401229E+00
(PID.TID 0000.0001) %MON advcfl_W_hf_max              =   1.3025482907521E+00
(PID.TID 0000.0001) %MON ke_max                       =   4.0457006036456E-02
(PID.TID 0000.0001) %MON ke_mean                      =   2.3934011755743E-04
(PID.TID 0000.0001) %MON ke_volint                    =   3.8772148210144E+14
(PID.TID 0000.0001) %MON ke_volmean                   =   2.6786538217367E-04
(PID.TID 0000.0001) // =======================================================
(PID.TID 0000.0001) // End MONITOR dynamic field statistics
(PID.TID 0000.0001) // =======================================================
 cg2d: Sum(rhs),rhsMax =   2.16063278379863E-13  9.73218868095095E+00
(PID.TID 0000.0001)                    cg2d_init_res =    1.35951482575456E+00
(PID.TID 0000.0001)                       cg2d_iters =    40
(PID.TID 0000.0001)                         cg2d_res =    8.25083553653094E-14
(PID.TID 0000.0001) // =======================================================
(PID.TID 0000.0001) // Begin MONITOR dynamic field statistics
(PID.TID 0000.0001) // =======================================================
(PID.TID 0000.0001) %MON time_tsnumber                =                     4
(PID.TID 0000.0001) %MON time_secondsf                =   4.3200000000000E+05
(PID.TID 0000.0001) %MON time_secondsi                =                432000
(PID.TID 0000.0001) %MON dynstat_eta_max              =   1.2814847467224E+00
(PID.TID 0000.0001) %MON dynstat_eta_min              =  -1.2851090794281E+00
(PID.TID 0000.0001) %MON dynstat_eta_mean             =  -3.8178016695950E-16
(PID.TID 0000.0001) %MON dynstat_eta_sd               =   3.6636790546445E-01
(PID.TID 0000.0001) %MON dynstat_eta_del2             =   2.5083035102033E-02
(PID.TID 0000.0001) %MON dynstat_uvel_max             =   2.6196162921619E-01
(PID.TID 0000.0001) %MON dynstat_uvel_min             =  -3.5377892679542E-01
(PID.TID 0000.0001) %MON dynstat_uvel_mean            =  -8.5520425562444E-03
(PID.TID 0000.0001) %MON dynstat_uvel_sd              =   1.5361659377932E-02
(PID.TID 0000.0001) %MON dynstat_uvel_del2            =   2.7434758276384E-03
(PID.TID 0000.0001) %MON dynstat_vvel_max             =   3.3890613040186E-01
(PID.TID 0000.0001) %MON dynstat_vvel_min             =  -4.7150551352289E-01
(PID.TID 0000.0001) %MON dynstat_vvel_mean            =   7.4141732642706E-03
(PID.TID 0000.0001) %MON dynstat_vvel_sd              =   2.2097973574449E-02
(PID.TID 0000.0001) %MON dynstat_vvel_del2            =   3.7638727122075E-03
(PID.TID 0000.0001) %MON dynstat_wvel_max             =   1.3085547816447E-03
(PID.TID 0000.0001) %MON dynstat_wvel_min             =  -8.0010797345012E-04
(PID.TID 0000.0001) %MON dynstat_wvel_mean            =  -2.2141322762786E-21
(PID.TID 0000.0001) %MON dynstat_wvel_sd              =   5.9668983771923E-05
(PID.TID 0000.0001) %MON dynstat_wvel_del2            =   1.2305024437015E-05
(PID.TID 0000.0001) %MON dynstat_theta_max            =   2.9320700399301E+01
(PID.TID 0000.0001) %MON dynstat_theta_min            =  -1.8594192904521E+00
(PID.TID 0000.0001) %MON dynstat_theta_mean           =   3.4262000874935E+00
(PID.TID 0000.0001) %MON dynstat_theta_sd             =   4.2195291110537E+00
(PID.TID 0000.0001) %MON dynstat_theta_del2           =   1.5460550271459E-01
(PID.TID 0000.0001) %MON dynstat_salt_max             =   3.7433152259929E+01
(PID.TID 0000.0001) %MON dynstat_salt_min             =   3.0982908441669E+01
(PID.TID 0000.0001) %MON dynstat_salt_mean            =   3.4717049868476E+01
(PID.TID 0000.0001) %MON dynstat_salt_sd              =   2.8279915547623E-01
(PID.TID 0000.0001) %MON dynstat_salt_del2            =   2.5859593794165E-02
(PID.TID 0000.0001) %MON advcfl_uvel_max              =   1.2566636348522E-01
(PID.TID 0000.0001) %MON advcfl_vvel_max              =   1.1450744904777E-01
(PID.TID 0000.0001) %MON advcfl_wvel_max              =   7.5064465790718E-01
(PID.TID 0000.0001) %MON advcfl_W_hf_max              =   7.4678901079908E-01
(PID.TID 0000.0001) %MON ke_max                       =   6.6551937888529E-02
(PID.TID 0000.0001) %MON ke_mean                      =   3.6961759243119E-04
(PID.TID 0000.0001) %MON ke_volint                    =   5.5957446676701E+14
(PID.TID 0000.0001) %MON ke_volmean                   =   3.8659356087976E-04
(PID.TID 0000.0001) // =======================================================
(PID.TID 0000.0001) // End MONITOR dynamic field statistics
(PID.TID 0000.0001) // =======================================================
 cg2d: Sum(rhs),rhsMax =   3.10917958046275E-13  9.93602092752590E+00
(PID.TID 0000.0001)                    cg2d_init_res =    1.05900961313998E+00
(PID.TID 0000.0001)                       cg2d_iters =    40
(PID.TID 0000.0001)                         cg2d_res =    6.94354569005823E-14
(PID.TID 0000.0001) // =======================================================
(PID.TID 0000.0001) // Begin MONITOR dynamic field statistics
(PID.TID 0000.0001) // =======================================================
(PID.TID 0000.0001) %MON time_tsnumber                =                     5
(PID.TID 0000.0001) %MON time_secondsf                =   5.4000000000000E+05
(PID.TID 0000.0001) %MON time_secondsi                =                540000
(PID.TID 0000.0001) %MON dynstat_eta_max              =   1.4725741097302E+00
(PID.TID 0000.0001) %MON dynstat_eta_min              =  -1.4662557097210E+00
(PID.TID 0000.0001) %MON dynstat_eta_mean             =  -3.6013564271262E-16
(PID.TID 0000.0001) %MON dynstat_eta_sd               =   4.3825345071767E-01
(PID.TID 0000.0001) %MON dynstat_eta_del2             =   2.4388655943894E-02
(PID.TID 0000.0001) %MON dynstat_uvel_max             =   3.0622247114398E-01
(PID.TID 0000.0001) %MON dynstat_uvel_min             =  -4.2816778324343E-01
(PID.TID 0000.0001) %MON dynstat_uvel_mean            =  -1.0704913261702E-02
(PID.TID 0000.0001) %MON dynstat_uvel_sd              =   1.9219846700163E-02
(PID.TID 0000.0001) %MON dynstat_uvel_del2            =   3.1264078965949E-03
(PID.TID 0000.0001) %MON dynstat_vvel_max             =   4.1809846844877E-01
(PID.TID 0000.0001) %MON dynstat_vvel_min             =  -5.8228869088488E-01
(PID.TID 0000.0001) %MON dynstat_vvel_mean            =   7.4492755049059E-03
(PID.TID 0000.0001) %MON dynstat_vvel_sd              =   2.3306812048675E-02
(PID.TID 0000.0001) %MON dynstat_vvel_del2            =   4.0827890730425E-03
(PID.TID 0000.0001) %MON dynstat_wvel_max             =   1.7005067883302E-03
(PID.TID 0000.0001) %MON dynstat_wvel_min             =  -1.0948464387007E-03
(PID.TID 0000.0001) %MON dynstat_wvel_mean            =  -2.6502357198717E-21
(PID.TID 0000.0001) %MON dynstat_wvel_sd              =   6.8800262616822E-05
(PID.TID 0000.0001) %MON dynstat_wvel_del2            =   1.4216159382653E-05
(PID.TID 0000.0001) %MON dynstat_theta_max            =   2.9310787653686E+01
(PID.TID 0000.0001) %MON dynstat_theta_min            =  -2.0266660262382E+00
(PID.TID 0000.0001) %MON dynstat_theta_mean           =   3.4198983751013E+00
(PID.TID 0000.0001) %MON dynstat_theta_sd             =   4.2058032947077E+00
(PID.TID 0000.0001) %MON dynstat_theta_del2           =   1.5385002527536E-01
(PID.TID 0000.0001) %MON dynstat_salt_max             =   3.7431100785303E+01
(PID.TID 0000.0001) %MON dynstat_salt_min             =   3.0963242714671E+01
(PID.TID 0000.0001) %MON dynstat_salt_mean            =   3.4716545735447E+01
(PID.TID 0000.0001) %MON dynstat_salt_sd              =   2.8281995761612E-01
(PID.TID 0000.0001) %MON dynstat_salt_del2            =   2.5760392752374E-02
(PID.TID 0000.0001) %MON advcfl_uvel_max              =   1.3288126237724E-01
(PID.TID 0000.0001) %MON advcfl_vvel_max              =   1.4141169231387E-01
(PID.TID 0000.0001) %MON advcfl_wvel_max              =   7.0764916929076E-01
(PID.TID 0000.0001) %MON advcfl_W_hf_max              =   8.2041212829304E-01
(PID.TID 0000.0001) %MON ke_max                       =   9.9535152418662E-02
(PID.TID 0000.0001) %MON ke_mean                      =   5.0118987050950E-04
(PID.TID 0000.0001) %MON ke_volint                    =   7.1173242755935E+14
(PID.TID 0000.0001) %MON ke_volmean                   =   4.9171502615814E-04
(PID.TID 0000.0001) // =======================================================
(PID.TID 0000.0001) // End MONITOR dynamic field statistics
(PID.TID 0000.0001) // =======================================================
 cg2d: Sum(rhs),rhsMax =   3.25781068788444E-13  9.36001437754311E+00
(PID.TID 0000.0001)                    cg2d_init_res =    1.13425175778827E+00
(PID.TID 0000.0001)                       cg2d_iters =    40
(PID.TID 0000.0001)                         cg2d_res =    7.49618354723018E-14
(PID.TID 0000.0001) // =======================================================
(PID.TID 0000.0001) // Begin MONITOR dynamic field statistics
(PID.TID 0000.0001) // =======================================================
(PID.TID 0000.0001) %MON time_tsnumber                =                     6
(PID.TID 0000.0001) %MON time_secondsf                =   6.4800000000000E+05
(PID.TID 0000.0001) %MON time_secondsi                =                648000
(PID.TID 0000.0001) %MON dynstat_eta_max              =   1.5243916411320E+00
(PID.TID 0000.0001) %MON dynstat_eta_min              =  -1.6296585426935E+00
(PID.TID 0000.0001) %MON dynstat_eta_mean             =  -7.0549213787324E-16
(PID.TID 0000.0001) %MON dynstat_eta_sd               =   4.9018705023404E-01
(PID.TID 0000.0001) %MON dynstat_eta_del2             =   2.3494572502883E-02
(PID.TID 0000.0001) %MON dynstat_uvel_max             =   3.4300438162468E-01
(PID.TID 0000.0001) %MON dynstat_uvel_min             =  -4.8882780782612E-01
(PID.TID 0000.0001) %MON dynstat_uvel_mean            =  -1.2226036331599E-02
(PID.TID 0000.0001) %MON dynstat_uvel_sd              =   2.2544565299563E-02
(PID.TID 0000.0001) %MON dynstat_uvel_del2            =   3.4317813199655E-03
(PID.TID 0000.0001) %MON dynstat_vvel_max             =   4.8521605961953E-01
(PID.TID 0000.0001) %MON dynstat_vvel_min             =  -6.7555537639181E-01
(PID.TID 0000.0001) %MON dynstat_vvel_mean            =   6.9606763878339E-03
(PID.TID 0000.0001) %MON dynstat_vvel_sd              =   2.3756702410974E-02
(PID.TID 0000.0001) %MON dynstat_vvel_del2            =   4.2005028210015E-03
(PID.TID 0000.0001) %MON dynstat_wvel_max             =   2.1170044924874E-03
(PID.TID 0000.0001) %MON dynstat_wvel_min             =  -1.3688677857180E-03
(PID.TID 0000.0001) %MON dynstat_wvel_mean            =   1.1789964246576E-21
(PID.TID 0000.0001) %MON dynstat_wvel_sd              =   7.6764495189236E-05
(PID.TID 0000.0001) %MON dynstat_wvel_del2            =   1.5709886145962E-05
(PID.TID 0000.0001) %MON dynstat_theta_max            =   2.9293059992581E+01
(PID.TID 0000.0001) %MON dynstat_theta_min            =  -2.3701423069087E+00
(PID.TID 0000.0001) %MON dynstat_theta_mean           =   3.4142287997746E+00
(PID.TID 0000.0001) %MON dynstat_theta_sd             =   4.1918744794036E+00
(PID.TID 0000.0001) %MON dynstat_theta_del2           =   1.5306594924188E-01
(PID.TID 0000.0001) %MON dynstat_salt_max             =   3.7430085585274E+01
(PID.TID 0000.0001) %MON dynstat_salt_min             =   3.0954121841547E+01
(PID.TID 0000.0001) %MON dynstat_salt_mean            =   3.4716121801537E+01
(PID.TID 0000.0001) %MON dynstat_salt_sd              =   2.8273517212107E-01
(PID.TID 0000.0001) %MON dynstat_salt_del2            =   2.5684152291728E-02
(PID.TID 0000.0001) %MON advcfl_uvel_max              =   1.2896464080978E-01
(PID.TID 0000.0001) %MON advcfl_vvel_max              =   1.6406196878411E-01
(PID.TID 0000.0001) %MON advcfl_wvel_max              =   8.7457827773018E-01
(PID.TID 0000.0001) %MON advcfl_W_hf_max              =   1.0768849456932E+00
(PID.TID 0000.0001) %MON ke_max                       =   1.3270147902030E-01
(PID.TID 0000.0001) %MON ke_mean                      =   6.3036858492292E-04
(PID.TID 0000.0001) %MON ke_volint                    =   8.3619628914905E+14
(PID.TID 0000.0001) %MON ke_volmean                   =   5.7770345184669E-04
(PID.TID 0000.0001) // =======================================================
(PID.TID 0000.0001) // End MONITOR dynamic field statistics
(PID.TID 0000.0001) // =======================================================
 cg2d: Sum(rhs),rhsMax =   3.27751714657154E-13  7.82398849047197E+00
(PID.TID 0000.0001)                    cg2d_init_res =    1.41184219916533E+00
(PID.TID 0000.0001)                       cg2d_iters =    40
(PID.TID 0000.0001)                         cg2d_res =    7.16977589614391E-14
(PID.TID 0000.0001) // =======================================================
(PID.TID 0000.0001) // Begin MONITOR dynamic field statistics
(PID.TID 0000.0001) // =======================================================
(PID.TID 0000.0001) %MON time_tsnumber                =                     7
(PID.TID 0000.0001) %MON time_secondsf                =   7.5600000000000E+05
(PID.TID 0000.0001) %MON time_secondsi                =                756000
(PID.TID 0000.0001) %MON dynstat_eta_max              =   1.5572314487390E+00
(PID.TID 0000.0001) %MON dynstat_eta_min              =  -1.7454979245428E+00
(PID.TID 0000.0001) %MON dynstat_eta_mean             =  -6.8385598742732E-16
(PID.TID 0000.0001) %MON dynstat_eta_sd               =   5.2138338987354E-01
(PID.TID 0000.0001) %MON dynstat_eta_del2             =   2.2449462727699E-02
(PID.TID 0000.0001) %MON dynstat_uvel_max             =   3.7152560749165E-01
(PID.TID 0000.0001) %MON dynstat_uvel_min             =  -5.3571012546138E-01
(PID.TID 0000.0001) %MON dynstat_uvel_mean            =  -1.2995409352941E-02
(PID.TID 0000.0001) %MON dynstat_uvel_sd              =   2.5199549697173E-02
(PID.TID 0000.0001) %MON dynstat_uvel_del2            =   3.6606742020548E-03
(PID.TID 0000.0001) %MON dynstat_vvel_max             =   5.4166036172148E-01
(PID.TID 0000.0001) %MON dynstat_vvel_min             =  -7.5210302271482E-01
(PID.TID 0000.0001) %MON dynstat_vvel_mean            =   6.1901214874972E-03
(PID.TID 0000.0001) %MON dynstat_vvel_sd              =   2.3889381290845E-02
(PID.TID 0000.0001) %MON dynstat_vvel_del2            =   4.1287996212155E-03
(PID.TID 0000.0001) %MON dynstat_wvel_max             =   2.4692758125246E-03
(PID.TID 0000.0001) %MON dynstat_wvel_min             =  -1.5213220050794E-03
(PID.TID 0000.0001) %MON dynstat_wvel_mean            =  -9.0143591296858E-22
(PID.TID 0000.0001) %MON dynstat_wvel_sd              =   8.0688150633565E-05
(PID.TID 0000.0001) %MON dynstat_wvel_del2            =   1.4981437650603E-05
(PID.TID 0000.0001) %MON dynstat_theta_max            =   2.9269945527499E+01
(PID.TID 0000.0001) %MON dynstat_theta_min            =  -2.6562750926746E+00
(PID.TID 0000.0001) %MON dynstat_theta_mean           =   3.4094919013026E+00
(PID.TID 0000.0001) %MON dynstat_theta_sd             =   4.1784260260128E+00
(PID.TID 0000.0001) %MON dynstat_theta_del2           =   1.5189016704875E-01
(PID.TID 0000.0001) %MON dynstat_salt_max             =   3.7429818330742E+01
(PID.TID 0000.0001) %MON dynstat_salt_min             =   3.0958139212842E+01
(PID.TID 0000.0001) %MON dynstat_salt_mean            =   3.4715806234505E+01
(PID.TID 0000.0001) %MON dynstat_salt_sd              =   2.8255174161456E-01
(PID.TID 0000.0001) %MON dynstat_salt_del2            =   2.5615693633049E-02
(PID.TID 0000.0001) %MON advcfl_uvel_max              =   1.3210685702532E-01
(PID.TID 0000.0001) %MON advcfl_vvel_max              =   1.8265194378900E-01
(PID.TID 0000.0001) %MON advcfl_wvel_max              =   1.0125459718483E+00
(PID.TID 0000.0001) %MON advcfl_W_hf_max              =   1.2498254242175E+00
(PID.TID 0000.0001) %MON ke_max                       =   1.6380224949740E-01
(PID.TID 0000.0001) %MON ke_mean                      =   7.5104641168197E-04
(PID.TID 0000.0001) %MON ke_volint                    =   9.3066187348341E+14
(PID.TID 0000.0001) %MON ke_volmean                   =   6.4296694901696E-04
(PID.TID 0000.0001) // =======================================================
(PID.TID 0000.0001) // End MONITOR dynamic field statistics
(PID.TID 0000.0001) // =======================================================
 cg2d: Sum(rhs),rhsMax =   1.97952765290665E-13  8.74743688360547E+00
(PID.TID 0000.0001)                    cg2d_init_res =    9.92419898122329E-01
(PID.TID 0000.0001)                       cg2d_iters =    39
(PID.TID 0000.0001)                         cg2d_res =    7.77629406138500E-14
(PID.TID 0000.0001) // =======================================================
(PID.TID 0000.0001) // Begin MONITOR dynamic field statistics
(PID.TID 0000.0001) // =======================================================
(PID.TID 0000.0001) %MON time_tsnumber                =                     8
(PID.TID 0000.0001) %MON time_secondsf                =   8.6400000000000E+05
(PID.TID 0000.0001) %MON time_secondsi                =                864000
(PID.TID 0000.0001) %MON dynstat_eta_max              =   1.5293479902848E+00
(PID.TID 0000.0001) %MON dynstat_eta_min              =  -1.7382081426029E+00
(PID.TID 0000.0001) %MON dynstat_eta_mean             =  -4.5419299856421E-16
(PID.TID 0000.0001) %MON dynstat_eta_sd               =   5.3496942486126E-01
(PID.TID 0000.0001) %MON dynstat_eta_del2             =   2.1499155659240E-02
(PID.TID 0000.0001) %MON dynstat_uvel_max             =   3.9036794276826E-01
(PID.TID 0000.0001) %MON dynstat_uvel_min             =  -5.7123609142396E-01
(PID.TID 0000.0001) %MON dynstat_uvel_mean            =  -1.3011316308849E-02
(PID.TID 0000.0001) %MON dynstat_uvel_sd              =   2.7175759718217E-02
(PID.TID 0000.0001) %MON dynstat_uvel_del2            =   3.8463663817897E-03
(PID.TID 0000.0001) %MON dynstat_vvel_max             =   5.9058770271761E-01
(PID.TID 0000.0001) %MON dynstat_vvel_min             =  -8.1361300435016E-01
(PID.TID 0000.0001) %MON dynstat_vvel_mean            =   5.3701371776678E-03
(PID.TID 0000.0001) %MON dynstat_vvel_sd              =   2.3933626136526E-02
(PID.TID 0000.0001) %MON dynstat_vvel_del2            =   3.9403921914427E-03
(PID.TID 0000.0001) %MON dynstat_wvel_max             =   2.7644602133661E-03
(PID.TID 0000.0001) %MON dynstat_wvel_min             =  -1.6125358057113E-03
(PID.TID 0000.0001) %MON dynstat_wvel_mean            =   5.7355222215404E-22
(PID.TID 0000.0001) %MON dynstat_wvel_sd              =   8.3028623750500E-05
(PID.TID 0000.0001) %MON dynstat_wvel_del2            =   1.3669866154177E-05
(PID.TID 0000.0001) %MON dynstat_theta_max            =   2.9235600266756E+01
(PID.TID 0000.0001) %MON dynstat_theta_min            =  -2.8691935292421E+00
(PID.TID 0000.0001) %MON dynstat_theta_mean           =   3.4058433758873E+00
(PID.TID 0000.0001) %MON dynstat_theta_sd             =   4.1662335562021E+00
(PID.TID 0000.0001) %MON dynstat_theta_del2           =   1.5087727721386E-01
(PID.TID 0000.0001) %MON dynstat_salt_max             =   3.7429714770741E+01
(PID.TID 0000.0001) %MON dynstat_salt_min             =   3.0973947568055E+01
(PID.TID 0000.0001) %MON dynstat_salt_mean            =   3.4715608349860E+01
(PID.TID 0000.0001) %MON dynstat_salt_sd              =   2.8230840381798E-01
(PID.TID 0000.0001) %MON dynstat_salt_del2            =   2.5591452681084E-02
(PID.TID 0000.0001) %MON advcfl_uvel_max              =   1.4086760931101E-01
(PID.TID 0000.0001) %MON advcfl_vvel_max              =   1.9758994745181E-01
(PID.TID 0000.0001) %MON advcfl_wvel_max              =   1.1124188641691E+00
(PID.TID 0000.0001) %MON advcfl_W_hf_max              =   1.3809883802386E+00
(PID.TID 0000.0001) %MON ke_max                       =   1.9225232192040E-01
(PID.TID 0000.0001) %MON ke_mean                      =   8.5709908879913E-04
(PID.TID 0000.0001) %MON ke_volint                    =   9.9478730529615E+14
(PID.TID 0000.0001) %MON ke_volmean                   =   6.8726932609051E-04
(PID.TID 0000.0001) // =======================================================
(PID.TID 0000.0001) // End MONITOR dynamic field statistics
(PID.TID 0000.0001) // =======================================================
 cg2d: Sum(rhs),rhsMax =   2.28400631741010E-13  9.97897095235674E+00
(PID.TID 0000.0001)                    cg2d_init_res =    8.47464886797543E-01
(PID.TID 0000.0001)                       cg2d_iters =    39
(PID.TID 0000.0001)                         cg2d_res =    4.82286118244391E-14
(PID.TID 0000.0001) // =======================================================
(PID.TID 0000.0001) // Begin MONITOR dynamic field statistics
(PID.TID 0000.0001) // =======================================================
(PID.TID 0000.0001) %MON time_tsnumber                =                     9
(PID.TID 0000.0001) %MON time_secondsf                =   9.7200000000000E+05
(PID.TID 0000.0001) %MON time_secondsi                =                972000
(PID.TID 0000.0001) %MON dynstat_eta_max              =   1.4482197519502E+00
(PID.TID 0000.0001) %MON dynstat_eta_min              =  -1.6513594625197E+00
(PID.TID 0000.0001) %MON dynstat_eta_mean             =  -8.3295892240780E-16
(PID.TID 0000.0001) %MON dynstat_eta_sd               =   5.3612514168713E-01
(PID.TID 0000.0001) %MON dynstat_eta_del2             =   2.0891684797664E-02
(PID.TID 0000.0001) %MON dynstat_uvel_max             =   4.0205953553864E-01
(PID.TID 0000.0001) %MON dynstat_uvel_min             =  -5.9256991388215E-01
(PID.TID 0000.0001) %MON dynstat_uvel_mean            =  -1.2360863482179E-02
(PID.TID 0000.0001) %MON dynstat_uvel_sd              =   2.8532801214980E-02
(PID.TID 0000.0001) %MON dynstat_uvel_del2            =   4.0189744160641E-03
(PID.TID 0000.0001) %MON dynstat_vvel_max             =   6.2916644212256E-01
(PID.TID 0000.0001) %MON dynstat_vvel_min             =  -8.5294035423064E-01
(PID.TID 0000.0001) %MON dynstat_vvel_mean            =   4.6781627520946E-03
(PID.TID 0000.0001) %MON dynstat_vvel_sd              =   2.3894768951815E-02
(PID.TID 0000.0001) %MON dynstat_vvel_del2            =   3.7411385475522E-03
(PID.TID 0000.0001) %MON dynstat_wvel_max             =   3.0100071242633E-03
(PID.TID 0000.0001) %MON dynstat_wvel_min             =  -1.6750750516251E-03
(PID.TID 0000.0001) %MON dynstat_wvel_mean            =   7.5870581476790E-22
(PID.TID 0000.0001) %MON dynstat_wvel_sd              =   8.5180376395919E-05
(PID.TID 0000.0001) %MON dynstat_wvel_del2            =   1.2477326036900E-05
(PID.TID 0000.0001) %MON dynstat_theta_max            =   2.9194367377273E+01
(PID.TID 0000.0001) %MON dynstat_theta_min            =  -3.0077318000936E+00
(PID.TID 0000.0001) %MON dynstat_theta_mean           =   3.4033134617948E+00
(PID.TID 0000.0001) %MON dynstat_theta_sd             =   4.1559560867233E+00
(PID.TID 0000.0001) %MON dynstat_theta_del2           =   1.5020902998359E-01
(PID.TID 0000.0001) %MON dynstat_salt_max             =   3.7429365285050E+01
(PID.TID 0000.0001) %MON dynstat_salt_min             =   3.0998347820407E+01
(PID.TID 0000.0001) %MON dynstat_salt_mean            =   3.4715520052747E+01
(PID.TID 0000.0001) %MON dynstat_salt_sd              =   2.8205273434285E-01
(PID.TID 0000.0001) %MON dynstat_salt_del2            =   2.5591535306214E-02
(PID.TID 0000.0001) %MON advcfl_uvel_max              =   1.4612855940199E-01
(PID.TID 0000.0001) %MON advcfl_vvel_max              =   2.0714078913545E-01
(PID.TID 0000.0001) %MON advcfl_wvel_max              =   1.2178022961674E+00
(PID.TID 0000.0001) %MON advcfl_W_hf_max              =   1.5104261958068E+00
(PID.TID 0000.0001) %MON ke_max                       =   2.1474545515354E-01
(PID.TID 0000.0001) %MON ke_mean                      =   9.4358267578719E-04
(PID.TID 0000.0001) %MON ke_volint                    =   1.0282359618139E+15
(PID.TID 0000.0001) %MON ke_volmean                   =   7.1037802028192E-04
(PID.TID 0000.0001) // =======================================================
(PID.TID 0000.0001) // End MONITOR dynamic field statistics
(PID.TID 0000.0001) // =======================================================
 cg2d: Sum(rhs),rhsMax =   1.90389370935407E-13  1.19122233186640E+01
(PID.TID 0000.0001)                    cg2d_init_res =    7.52938095241487E-01
(PID.TID 0000.0001)                       cg2d_iters =    39
(PID.TID 0000.0001)                         cg2d_res =    9.16263752315912E-14
(PID.TID 0000.0001) // =======================================================
(PID.TID 0000.0001) // Begin MONITOR dynamic field statistics
(PID.TID 0000.0001) // =======================================================
(PID.TID 0000.0001) %MON time_tsnumber                =                    10
(PID.TID 0000.0001) %MON time_secondsf                =   1.0800000000000E+06
(PID.TID 0000.0001) %MON time_secondsi                =               1080000
(PID.TID 0000.0001) %MON dynstat_eta_max              =   1.4887320186189E+00
(PID.TID 0000.0001) %MON dynstat_eta_min              =  -1.5494940371142E+00
(PID.TID 0000.0001) %MON dynstat_eta_mean             =  -2.5036090905667E-16
(PID.TID 0000.0001) %MON dynstat_eta_sd               =   5.3026100347805E-01
(PID.TID 0000.0001) %MON dynstat_eta_del2             =   2.0482174058434E-02
(PID.TID 0000.0001) %MON dynstat_uvel_max             =   4.0778923494008E-01
(PID.TID 0000.0001) %MON dynstat_uvel_min             =  -5.9839110844621E-01
(PID.TID 0000.0001) %MON dynstat_uvel_mean            =  -1.1192470704494E-02
(PID.TID 0000.0001) %MON dynstat_uvel_sd              =   2.9332753241201E-02
(PID.TID 0000.0001) %MON dynstat_uvel_del2            =   4.1917482671630E-03
(PID.TID 0000.0001) %MON dynstat_vvel_max             =   6.5538338758155E-01
(PID.TID 0000.0001) %MON dynstat_vvel_min             =  -8.6582488592363E-01
(PID.TID 0000.0001) %MON dynstat_vvel_mean            =   4.2208340820202E-03
(PID.TID 0000.0001) %MON dynstat_vvel_sd              =   2.3726640410575E-02
(PID.TID 0000.0001) %MON dynstat_vvel_del2            =   3.6175310502349E-03
(PID.TID 0000.0001) %MON dynstat_wvel_max             =   3.1744144191626E-03
(PID.TID 0000.0001) %MON dynstat_wvel_min             =  -1.6748268374077E-03
(PID.TID 0000.0001) %MON dynstat_wvel_mean            =   1.1836674365176E-21
(PID.TID 0000.0001) %MON dynstat_wvel_sd              =   8.5842684384702E-05
(PID.TID 0000.0001) %MON dynstat_wvel_del2            =   1.1297979592500E-05
(PID.TID 0000.0001) %MON dynstat_theta_max            =   2.9163296812038E+01
(PID.TID 0000.0001) %MON dynstat_theta_min            =  -3.0773581843385E+00
(PID.TID 0000.0001) %MON dynstat_theta_mean           =   3.4018109644654E+00
(PID.TID 0000.0001) %MON dynstat_theta_sd             =   4.1480179626217E+00
(PID.TID 0000.0001) %MON dynstat_theta_del2           =   1.4947586101651E-01
(PID.TID 0000.0001) %MON dynstat_salt_max             =   3.7428728505256E+01
(PID.TID 0000.0001) %MON dynstat_salt_min             =   3.1027628967341E+01
(PID.TID 0000.0001) %MON dynstat_salt_mean            =   3.4715522303090E+01
(PID.TID 0000.0001) %MON dynstat_salt_sd              =   2.8181832486576E-01
(PID.TID 0000.0001) %MON dynstat_salt_del2            =   2.5609821257240E-02
(PID.TID 0000.0001) %MON advcfl_uvel_max              =   1.4756407402350E-01
(PID.TID 0000.0001) %MON advcfl_vvel_max              =   2.1026986146658E-01
(PID.TID 0000.0001) %MON advcfl_wvel_max              =   1.2832786286699E+00
(PID.TID 0000.0001) %MON advcfl_W_hf_max              =   1.5929332333208E+00
(PID.TID 0000.0001) %MON ke_max                       =   2.2890511481850E-01
(PID.TID 0000.0001) %MON ke_mean                      =   1.0067308261037E-03
(PID.TID 0000.0001) %MON ke_volint                    =   1.0328058902025E+15
(PID.TID 0000.0001) %MON ke_volmean                   =   7.1353524955816E-04
(PID.TID 0000.0001) // =======================================================
(PID.TID 0000.0001) // End MONITOR dynamic field statistics
(PID.TID 0000.0001) // =======================================================
 cg2d: Sum(rhs),rhsMax =  -6.04516436908398E-14  1.23481016238544E+01
(PID.TID 0000.0001)                    cg2d_init_res =    6.89327909054658E-01
(PID.TID 0000.0001)                       cg2d_iters =    39
(PID.TID 0000.0001)                         cg2d_res =    9.18303817418247E-14
(PID.TID 0000.0001) // =======================================================
(PID.TID 0000.0001) // Begin MONITOR dynamic field statistics
(PID.TID 0000.0001) // =======================================================
(PID.TID 0000.0001) %MON time_tsnumber                =                    11
(PID.TID 0000.0001) %MON time_secondsf                =   1.1880000000000E+06
(PID.TID 0000.0001) %MON time_secondsi                =               1188000
(PID.TID 0000.0001) %MON dynstat_eta_max              =   1.7069374673921E+00
(PID.TID 0000.0001) %MON dynstat_eta_min              =  -1.5104921787542E+00
(PID.TID 0000.0001) %MON dynstat_eta_mean             =  -6.0527234356614E-17
(PID.TID 0000.0001) %MON dynstat_eta_sd               =   5.2157699145342E-01
(PID.TID 0000.0001) %MON dynstat_eta_del2             =   2.0150517729225E-02
(PID.TID 0000.0001) %MON dynstat_uvel_max             =   4.0534783766807E-01
(PID.TID 0000.0001) %MON dynstat_uvel_min             =  -5.9111037334184E-01
(PID.TID 0000.0001) %MON dynstat_uvel_mean            =  -9.6878876774620E-03
(PID.TID 0000.0001) %MON dynstat_uvel_sd              =   2.9618423629899E-02
(PID.TID 0000.0001) %MON dynstat_uvel_del2            =   4.3426037362681E-03
(PID.TID 0000.0001) %MON dynstat_vvel_max             =   6.7084691907271E-01
(PID.TID 0000.0001) %MON dynstat_vvel_min             =  -8.5482088006939E-01
(PID.TID 0000.0001) %MON dynstat_vvel_mean            =   4.0380414367055E-03
(PID.TID 0000.0001) %MON dynstat_vvel_sd              =   2.3465780109209E-02
(PID.TID 0000.0001) %MON dynstat_vvel_del2            =   3.6340182141257E-03
(PID.TID 0000.0001) %MON dynstat_wvel_max             =   3.2444919517741E-03
(PID.TID 0000.0001) %MON dynstat_wvel_min             =  -1.5956443940467E-03
(PID.TID 0000.0001) %MON dynstat_wvel_mean            =   9.7116806854423E-22
(PID.TID 0000.0001) %MON dynstat_wvel_sd              =   8.4794046807733E-05
(PID.TID 0000.0001) %MON dynstat_wvel_del2            =   1.0610882948899E-05
(PID.TID 0000.0001) %MON dynstat_theta_max            =   2.9143233464892E+01
(PID.TID 0000.0001) %MON dynstat_theta_min            =  -3.0868831317137E+00
(PID.TID 0000.0001) %MON dynstat_theta_mean           =   3.4011503453734E+00
(PID.TID 0000.0001) %MON dynstat_theta_sd             =   4.1425921541091E+00
(PID.TID 0000.0001) %MON dynstat_theta_del2           =   1.4903864518570E-01
(PID.TID 0000.0001) %MON dynstat_salt_max             =   3.7427938197466E+01
(PID.TID 0000.0001) %MON dynstat_salt_min             =   3.1057750093734E+01
(PID.TID 0000.0001) %MON dynstat_salt_mean            =   3.4715589232313E+01
(PID.TID 0000.0001) %MON dynstat_salt_sd              =   2.8162885348267E-01
(PID.TID 0000.0001) %MON dynstat_salt_del2            =   2.5621399843518E-02
(PID.TID 0000.0001) %MON advcfl_uvel_max              =   1.4576863468839E-01
(PID.TID 0000.0001) %MON advcfl_vvel_max              =   2.0759748414853E-01
(PID.TID 0000.0001) %MON advcfl_wvel_max              =   1.2898111788200E+00
(PID.TID 0000.0001) %MON advcfl_W_hf_max              =   1.6081736889677E+00
(PID.TID 0000.0001) %MON ke_max                       =   2.3508938770453E-01
(PID.TID 0000.0001) %MON ke_mean                      =   1.0454031338782E-03
(PID.TID 0000.0001) %MON ke_volint                    =   1.0141190377858E+15
(PID.TID 0000.0001) %MON ke_volmean                   =   7.0062505217347E-04
(PID.TID 0000.0001) // =======================================================
(PID.TID 0000.0001) // End MONITOR dynamic field statistics
(PID.TID 0000.0001) // =======================================================
 cg2d: Sum(rhs),rhsMax =  -2.34118280317830E-14  1.33385535525677E+01
(PID.TID 0000.0001)                    cg2d_init_res =    6.16599789253264E-01
(PID.TID 0000.0001)                       cg2d_iters =    39
(PID.TID 0000.0001)                         cg2d_res =    8.96198609871125E-14
(PID.TID 0000.0001) // =======================================================
(PID.TID 0000.0001) // Begin MONITOR dynamic field statistics
(PID.TID 0000.0001) // =======================================================
(PID.TID 0000.0001) %MON time_tsnumber                =                    12
(PID.TID 0000.0001) %MON time_secondsf                =   1.2960000000000E+06
(PID.TID 0000.0001) %MON time_secondsi                =               1296000
(PID.TID 0000.0001) %MON dynstat_eta_max              =   1.8518746528126E+00
(PID.TID 0000.0001) %MON dynstat_eta_min              =  -1.4632170397109E+00
(PID.TID 0000.0001) %MON dynstat_eta_mean             =   2.6026114349996E-16
(PID.TID 0000.0001) %MON dynstat_eta_sd               =   5.1288775612430E-01
(PID.TID 0000.0001) %MON dynstat_eta_del2             =   2.0085922575596E-02
(PID.TID 0000.0001) %MON dynstat_uvel_max             =   3.9551940935597E-01
(PID.TID 0000.0001) %MON dynstat_uvel_min             =  -5.7292554557539E-01
(PID.TID 0000.0001) %MON dynstat_uvel_mean            =  -8.0334571618786E-03
(PID.TID 0000.0001) %MON dynstat_uvel_sd              =   2.9422190423381E-02
(PID.TID 0000.0001) %MON dynstat_uvel_del2            =   4.4356836732992E-03
(PID.TID 0000.0001) %MON dynstat_vvel_max             =   6.7693238635632E-01
(PID.TID 0000.0001) %MON dynstat_vvel_min             =  -8.2293607556514E-01
(PID.TID 0000.0001) %MON dynstat_vvel_mean            =   4.1122605678510E-03
(PID.TID 0000.0001) %MON dynstat_vvel_sd              =   2.3213729579799E-02
(PID.TID 0000.0001) %MON dynstat_vvel_del2            =   3.7908646996696E-03
(PID.TID 0000.0001) %MON dynstat_wvel_max             =   3.2364941656245E-03
(PID.TID 0000.0001) %MON dynstat_wvel_min             =  -1.4468756217816E-03
(PID.TID 0000.0001) %MON dynstat_wvel_mean            =   7.4102474134537E-22
(PID.TID 0000.0001) %MON dynstat_wvel_sd              =   8.2941292338651E-05
(PID.TID 0000.0001) %MON dynstat_wvel_del2            =   1.0708641584093E-05
(PID.TID 0000.0001) %MON dynstat_theta_max            =   2.9138830711170E+01
(PID.TID 0000.0001) %MON dynstat_theta_min            =  -3.0481538242494E+00
(PID.TID 0000.0001) %MON dynstat_theta_mean           =   3.4010911630299E+00
(PID.TID 0000.0001) %MON dynstat_theta_sd             =   4.1395616311530E+00
(PID.TID 0000.0001) %MON dynstat_theta_del2           =   1.4885041085465E-01
(PID.TID 0000.0001) %MON dynstat_salt_max             =   3.7427037844987E+01
(PID.TID 0000.0001) %MON dynstat_salt_min             =   3.1084399479391E+01
(PID.TID 0000.0001) %MON dynstat_salt_mean            =   3.4715692324430E+01
(PID.TID 0000.0001) %MON dynstat_salt_sd              =   2.8149005589041E-01
(PID.TID 0000.0001) %MON dynstat_salt_del2            =   2.5630795437592E-02
(PID.TID 0000.0001) %MON advcfl_uvel_max              =   1.4128423103874E-01
(PID.TID 0000.0001) %MON advcfl_vvel_max              =   1.9985410146804E-01
(PID.TID 0000.0001) %MON advcfl_wvel_max              =   1.2581207099370E+00
(PID.TID 0000.0001) %MON advcfl_W_hf_max              =   1.5750152354621E+00
(PID.TID 0000.0001) %MON ke_max                       =   2.3393408687356E-01
(PID.TID 0000.0001) %MON ke_mean                      =   1.0611082036994E-03
(PID.TID 0000.0001) %MON ke_volint                    =   9.7970346265554E+14
(PID.TID 0000.0001) %MON ke_volmean                   =   6.7684834231711E-04
(PID.TID 0000.0001) // =======================================================
(PID.TID 0000.0001) // End MONITOR dynamic field statistics
(PID.TID 0000.0001) // =======================================================
 cg2d: Sum(rhs),rhsMax =  -1.60163549089987E-13  1.37961804284876E+01
(PID.TID 0000.0001)                    cg2d_init_res =    5.50779474635108E-01
(PID.TID 0000.0001)                       cg2d_iters =    39
(PID.TID 0000.0001)                         cg2d_res =    8.19785216416158E-14
(PID.TID 0000.0001) // =======================================================
(PID.TID 0000.0001) // Begin MONITOR dynamic field statistics
(PID.TID 0000.0001) // =======================================================
(PID.TID 0000.0001) %MON time_tsnumber                =                    13
(PID.TID 0000.0001) %MON time_secondsf                =   1.4040000000000E+06
(PID.TID 0000.0001) %MON time_secondsi                =               1404000
(PID.TID 0000.0001) %MON dynstat_eta_max              =   1.9446109493363E+00
(PID.TID 0000.0001) %MON dynstat_eta_min              =  -1.4463285634414E+00
(PID.TID 0000.0001) %MON dynstat_eta_mean             =   5.0831755251024E-16
(PID.TID 0000.0001) %MON dynstat_eta_sd               =   5.0609878140958E-01
(PID.TID 0000.0001) %MON dynstat_eta_del2             =   2.0297884859036E-02
(PID.TID 0000.0001) %MON dynstat_uvel_max             =   3.7943563110289E-01
(PID.TID 0000.0001) %MON dynstat_uvel_min             =  -5.4552068062835E-01
(PID.TID 0000.0001) %MON dynstat_uvel_mean            =  -6.3973035798337E-03
(PID.TID 0000.0001) %MON dynstat_uvel_sd              =   2.8776374733241E-02
(PID.TID 0000.0001) %MON dynstat_uvel_del2            =   4.4494549327094E-03
(PID.TID 0000.0001) %MON dynstat_vvel_max             =   6.7383846425227E-01
(PID.TID 0000.0001) %MON dynstat_vvel_min             =  -7.7210584835859E-01
(PID.TID 0000.0001) %MON dynstat_vvel_mean            =   4.3809446250045E-03
(PID.TID 0000.0001) %MON dynstat_vvel_sd              =   2.3057697302627E-02
(PID.TID 0000.0001) %MON dynstat_vvel_del2            =   4.0050570935039E-03
(PID.TID 0000.0001) %MON dynstat_wvel_max             =   3.1634088191053E-03
(PID.TID 0000.0001) %MON dynstat_wvel_min             =  -1.2434260048812E-03
(PID.TID 0000.0001) %MON dynstat_wvel_mean            =   1.1591982409343E-21
(PID.TID 0000.0001) %MON dynstat_wvel_sd              =   8.0612144104256E-05
(PID.TID 0000.0001) %MON dynstat_wvel_del2            =   1.1168532568130E-05
(PID.TID 0000.0001) %MON dynstat_theta_max            =   2.9149822509991E+01
(PID.TID 0000.0001) %MON dynstat_theta_min            =  -2.9764319132603E+00
(PID.TID 0000.0001) %MON dynstat_theta_mean           =   3.4013821400250E+00
(PID.TID 0000.0001) %MON dynstat_theta_sd             =   4.1385808671411E+00
(PID.TID 0000.0001) %MON dynstat_theta_del2           =   1.4890988966101E-01
(PID.TID 0000.0001) %MON dynstat_salt_max             =   3.7425923681277E+01
(PID.TID 0000.0001) %MON dynstat_salt_min             =   3.1103490189495E+01
(PID.TID 0000.0001) %MON dynstat_salt_mean            =   3.4715804422151E+01
(PID.TID 0000.0001) %MON dynstat_salt_sd              =   2.8139550145329E-01
(PID.TID 0000.0001) %MON dynstat_salt_del2            =   2.5658211961403E-02
(PID.TID 0000.0001) %MON advcfl_uvel_max              =   1.3452615348283E-01
(PID.TID 0000.0001) %MON advcfl_vvel_max              =   1.8750972905879E-01
(PID.TID 0000.0001) %MON advcfl_wvel_max              =   1.1960886188990E+00
(PID.TID 0000.0001) %MON advcfl_W_hf_max              =   1.5018326771988E+00
(PID.TID 0000.0001) %MON ke_max                       =   2.2591673755654E-01
(PID.TID 0000.0001) %MON ke_mean                      =   1.0560098770649E-03
(PID.TID 0000.0001) %MON ke_volint                    =   9.3588870801633E+14
(PID.TID 0000.0001) %MON ke_volmean                   =   6.4657801545087E-04
(PID.TID 0000.0001) // =======================================================
(PID.TID 0000.0001) // End MONITOR dynamic field statistics
(PID.TID 0000.0001) // =======================================================
 cg2d: Sum(rhs),rhsMax =  -2.55323540088170E-13  1.39260166900720E+01
(PID.TID 0000.0001)                    cg2d_init_res =    5.45144109352753E-01
(PID.TID 0000.0001)                       cg2d_iters =    38
(PID.TID 0000.0001)                         cg2d_res =    9.89283751601668E-14
(PID.TID 0000.0001) // =======================================================
(PID.TID 0000.0001) // Begin MONITOR dynamic field statistics
(PID.TID 0000.0001) // =======================================================
(PID.TID 0000.0001) %MON time_tsnumber                =                    14
(PID.TID 0000.0001) %MON time_secondsf                =   1.5120000000000E+06
(PID.TID 0000.0001) %MON time_secondsi                =               1512000
(PID.TID 0000.0001) %MON dynstat_eta_max              =   1.9956064260553E+00
(PID.TID 0000.0001) %MON dynstat_eta_min              =  -1.4254411915727E+00
(PID.TID 0000.0001) %MON dynstat_eta_mean             =  -1.2939287884134E-15
(PID.TID 0000.0001) %MON dynstat_eta_sd               =   5.0250305263050E-01
(PID.TID 0000.0001) %MON dynstat_eta_del2             =   2.0706611656033E-02
(PID.TID 0000.0001) %MON dynstat_uvel_max             =   3.5866056079296E-01
(PID.TID 0000.0001) %MON dynstat_uvel_min             =  -5.1155220562168E-01
(PID.TID 0000.0001) %MON dynstat_uvel_mean            =  -4.9153714267858E-03
(PID.TID 0000.0001) %MON dynstat_uvel_sd              =   2.7729732247564E-02
(PID.TID 0000.0001) %MON dynstat_uvel_del2            =   4.3916866347135E-03
(PID.TID 0000.0001) %MON dynstat_vvel_max             =   6.6251043049295E-01
(PID.TID 0000.0001) %MON dynstat_vvel_min             =  -7.0568923175126E-01
(PID.TID 0000.0001) %MON dynstat_vvel_mean            =   4.7541880778742E-03
(PID.TID 0000.0001) %MON dynstat_vvel_sd              =   2.3015300091831E-02
(PID.TID 0000.0001) %MON dynstat_vvel_del2            =   4.1873770085703E-03
(PID.TID 0000.0001) %MON dynstat_wvel_max             =   3.0258756882498E-03
(PID.TID 0000.0001) %MON dynstat_wvel_min             =  -9.8906778212569E-04
(PID.TID 0000.0001) %MON dynstat_wvel_mean            =   8.9438257620918E-22
(PID.TID 0000.0001) %MON dynstat_wvel_sd              =   7.7878141268510E-05
(PID.TID 0000.0001) %MON dynstat_wvel_del2            =   1.1653198296596E-05
(PID.TID 0000.0001) %MON dynstat_theta_max            =   2.9173352878276E+01
(PID.TID 0000.0001) %MON dynstat_theta_min            =  -2.8897850085834E+00
(PID.TID 0000.0001) %MON dynstat_theta_mean           =   3.4018022283824E+00
(PID.TID 0000.0001) %MON dynstat_theta_sd             =   4.1391617503286E+00
(PID.TID 0000.0001) %MON dynstat_theta_del2           =   1.4922140218843E-01
(PID.TID 0000.0001) %MON dynstat_salt_max             =   3.7424447698762E+01
(PID.TID 0000.0001) %MON dynstat_salt_min             =   3.1111927026099E+01
(PID.TID 0000.0001) %MON dynstat_salt_mean            =   3.4715903447709E+01
(PID.TID 0000.0001) %MON dynstat_salt_sd              =   2.8132353869882E-01
(PID.TID 0000.0001) %MON dynstat_salt_del2            =   2.5688123282698E-02
(PID.TID 0000.0001) %MON advcfl_uvel_max              =   1.2614948061854E-01
(PID.TID 0000.0001) %MON advcfl_vvel_max              =   1.7138012479337E-01
(PID.TID 0000.0001) %MON advcfl_wvel_max              =   1.1016108261726E+00
(PID.TID 0000.0001) %MON advcfl_W_hf_max              =   1.3888476234618E+00
(PID.TID 0000.0001) %MON ke_max                       =   2.1239649974665E-01
(PID.TID 0000.0001) %MON ke_mean                      =   1.0313999803752E-03
(PID.TID 0000.0001) %MON ke_volint                    =   8.8648929206906E+14
(PID.TID 0000.0001) %MON ke_volmean                   =   6.1244941014339E-04
(PID.TID 0000.0001) // =======================================================
(PID.TID 0000.0001) // End MONITOR dynamic field statistics
(PID.TID 0000.0001) // =======================================================
 cg2d: Sum(rhs),rhsMax =   2.88088997102420E-13  1.34465204075177E+01
(PID.TID 0000.0001)                    cg2d_init_res =    6.19386015921374E-01
(PID.TID 0000.0001)                       cg2d_iters =    39
(PID.TID 0000.0001)                         cg2d_res =    4.98540453942756E-14
(PID.TID 0000.0001) // =======================================================
(PID.TID 0000.0001) // Begin MONITOR dynamic field statistics
(PID.TID 0000.0001) // =======================================================
(PID.TID 0000.0001) %MON time_tsnumber                =                    15
(PID.TID 0000.0001) %MON time_secondsf                =   1.6200000000000E+06
(PID.TID 0000.0001) %MON time_secondsi                =               1620000
(PID.TID 0000.0001) %MON dynstat_eta_max              =   1.9867082572892E+00
(PID.TID 0000.0001) %MON dynstat_eta_min              =  -1.4157507264446E+00
(PID.TID 0000.0001) %MON dynstat_eta_mean             =  -1.0097676161121E-15
(PID.TID 0000.0001) %MON dynstat_eta_sd               =   5.0289411685046E-01
(PID.TID 0000.0001) %MON dynstat_eta_del2             =   2.1416230076642E-02
(PID.TID 0000.0001) %MON dynstat_uvel_max             =   3.3461044891358E-01
(PID.TID 0000.0001) %MON dynstat_uvel_min             =  -4.7353528779805E-01
(PID.TID 0000.0001) %MON dynstat_uvel_mean            =  -3.6842232071254E-03
(PID.TID 0000.0001) %MON dynstat_uvel_sd              =   2.6372861596791E-02
(PID.TID 0000.0001) %MON dynstat_uvel_del2            =   4.2645146918357E-03
(PID.TID 0000.0001) %MON dynstat_vvel_max             =   6.4482515383130E-01
(PID.TID 0000.0001) %MON dynstat_vvel_min             =  -6.2829964421423E-01
(PID.TID 0000.0001) %MON dynstat_vvel_mean            =   5.1334228584286E-03
(PID.TID 0000.0001) %MON dynstat_vvel_sd              =   2.3026265132338E-02
(PID.TID 0000.0001) %MON dynstat_vvel_del2            =   4.2937826590583E-03
(PID.TID 0000.0001) %MON dynstat_wvel_max             =   2.8263407985085E-03
(PID.TID 0000.0001) %MON dynstat_wvel_min             =  -7.8762941017797E-04
(PID.TID 0000.0001) %MON dynstat_wvel_mean            =   8.0099154622144E-22
(PID.TID 0000.0001) %MON dynstat_wvel_sd              =   7.4798326060112E-05
(PID.TID 0000.0001) %MON dynstat_wvel_del2            =   1.1836934457503E-05
(PID.TID 0000.0001) %MON dynstat_theta_max            =   2.9202238392522E+01
(PID.TID 0000.0001) %MON dynstat_theta_min            =  -2.8069090746597E+00
(PID.TID 0000.0001) %MON dynstat_theta_mean           =   3.4021807362097E+00
(PID.TID 0000.0001) %MON dynstat_theta_sd             =   4.1407377549632E+00
(PID.TID 0000.0001) %MON dynstat_theta_del2           =   1.4972029555975E-01
(PID.TID 0000.0001) %MON dynstat_salt_max             =   3.7422524962569E+01
(PID.TID 0000.0001) %MON dynstat_salt_min             =   3.1108377787452E+01
(PID.TID 0000.0001) %MON dynstat_salt_mean            =   3.4715974825449E+01
(PID.TID 0000.0001) %MON dynstat_salt_sd              =   2.8125501261032E-01
(PID.TID 0000.0001) %MON dynstat_salt_del2            =   2.5729984134704E-02
(PID.TID 0000.0001) %MON advcfl_uvel_max              =   1.1677445616265E-01
(PID.TID 0000.0001) %MON advcfl_vvel_max              =   1.5659898204662E-01
(PID.TID 0000.0001) %MON advcfl_wvel_max              =   9.7773591870186E-01
(PID.TID 0000.0001) %MON advcfl_W_hf_max              =   1.2429181471236E+00
(PID.TID 0000.0001) %MON ke_max                       =   1.9524038651358E-01
(PID.TID 0000.0001) %MON ke_mean                      =   9.8805379219340E-04
(PID.TID 0000.0001) %MON ke_volint                    =   8.3354889045930E+14
(PID.TID 0000.0001) %MON ke_volmean                   =   5.7587444186263E-04
(PID.TID 0000.0001) // =======================================================
(PID.TID 0000.0001) // End MONITOR dynamic field statistics
(PID.TID 0000.0001) // =======================================================
 cg2d: Sum(rhs),rhsMax =   2.90906188027407E-13  1.23834039965191E+01
(PID.TID 0000.0001)                    cg2d_init_res =    6.71813916685770E-01
(PID.TID 0000.0001)                       cg2d_iters =    39
(PID.TID 0000.0001)                         cg2d_res =    6.97417826126876E-14
(PID.TID 0000.0001) // =======================================================
(PID.TID 0000.0001) // Begin MONITOR dynamic field statistics
(PID.TID 0000.0001) // =======================================================
(PID.TID 0000.0001) %MON time_tsnumber                =                    16
(PID.TID 0000.0001) %MON time_secondsf                =   1.7280000000000E+06
(PID.TID 0000.0001) %MON time_secondsi                =               1728000
(PID.TID 0000.0001) %MON dynstat_eta_max              =   1.9161159785228E+00
(PID.TID 0000.0001) %MON dynstat_eta_min              =  -1.4285801202505E+00
(PID.TID 0000.0001) %MON dynstat_eta_mean             =  -7.4813447732547E-16
(PID.TID 0000.0001) %MON dynstat_eta_sd               =   5.0740499793351E-01
(PID.TID 0000.0001) %MON dynstat_eta_del2             =   2.2273652181880E-02
(PID.TID 0000.0001) %MON dynstat_uvel_max             =   3.0906985504152E-01
(PID.TID 0000.0001) %MON dynstat_uvel_min             =  -4.3305432071182E-01
(PID.TID 0000.0001) %MON dynstat_uvel_mean            =  -2.7586255534260E-03
(PID.TID 0000.0001) %MON dynstat_uvel_sd              =   2.4849881259664E-02
(PID.TID 0000.0001) %MON dynstat_uvel_del2            =   4.0914431563873E-03
(PID.TID 0000.0001) %MON dynstat_vvel_max             =   6.2242443632586E-01
(PID.TID 0000.0001) %MON dynstat_vvel_min             =  -5.4410609281133E-01
(PID.TID 0000.0001) %MON dynstat_vvel_mean            =   5.4258823105260E-03
(PID.TID 0000.0001) %MON dynstat_vvel_sd              =   2.2986932534410E-02
(PID.TID 0000.0001) %MON dynstat_vvel_del2            =   4.3124283206687E-03
(PID.TID 0000.0001) %MON dynstat_wvel_max             =   2.5786081015508E-03
(PID.TID 0000.0001) %MON dynstat_wvel_min             =  -7.9227942170756E-04
(PID.TID 0000.0001) %MON dynstat_wvel_mean            =  -4.0145661388072E-22
(PID.TID 0000.0001) %MON dynstat_wvel_sd              =   7.1324668624262E-05
(PID.TID 0000.0001) %MON dynstat_wvel_del2            =   1.1646101897589E-05
(PID.TID 0000.0001) %MON dynstat_theta_max            =   2.9228809153915E+01
(PID.TID 0000.0001) %MON dynstat_theta_min            =  -2.7451014405005E+00
(PID.TID 0000.0001) %MON dynstat_theta_mean           =   3.4024089184839E+00
(PID.TID 0000.0001) %MON dynstat_theta_sd             =   4.1427699074989E+00
(PID.TID 0000.0001) %MON dynstat_theta_del2           =   1.5011304402412E-01
(PID.TID 0000.0001) %MON dynstat_salt_max             =   3.7420194178308E+01
(PID.TID 0000.0001) %MON dynstat_salt_min             =   3.1093750845545E+01
(PID.TID 0000.0001) %MON dynstat_salt_mean            =   3.4716011780246E+01
(PID.TID 0000.0001) %MON dynstat_salt_sd              =   2.8117283742822E-01
(PID.TID 0000.0001) %MON dynstat_salt_del2            =   2.5758525933956E-02
(PID.TID 0000.0001) %MON advcfl_uvel_max              =   1.0679179375451E-01
(PID.TID 0000.0001) %MON advcfl_vvel_max              =   1.5115885686289E-01
(PID.TID 0000.0001) %MON advcfl_wvel_max              =   8.3998588060706E-01
(PID.TID 0000.0001) %MON advcfl_W_hf_max              =   1.0802024131748E+00
(PID.TID 0000.0001) %MON ke_max                       =   1.7606771030486E-01
(PID.TID 0000.0001) %MON ke_mean                      =   9.2783242263017E-04
(PID.TID 0000.0001) %MON ke_volint                    =   7.7868148793336E+14
(PID.TID 0000.0001) %MON ke_volmean                   =   5.3796816525699E-04
(PID.TID 0000.0001) // =======================================================
(PID.TID 0000.0001) // End MONITOR dynamic field statistics
(PID.TID 0000.0001) // =======================================================
 cg2d: Sum(rhs),rhsMax =   5.19292941980609E-13  1.09899905529960E+01
(PID.TID 0000.0001)                    cg2d_init_res =    6.97751696344999E-01
(PID.TID 0000.0001)                       cg2d_iters =    39
(PID.TID 0000.0001)                         cg2d_res =    7.21693606435159E-14
(PID.TID 0000.0001) // =======================================================
(PID.TID 0000.0001) // Begin MONITOR dynamic field statistics
(PID.TID 0000.0001) // =======================================================
(PID.TID 0000.0001) %MON time_tsnumber                =                    17
(PID.TID 0000.0001) %MON time_secondsf                =   1.8360000000000E+06
(PID.TID 0000.0001) %MON time_secondsi                =               1836000
(PID.TID 0000.0001) %MON dynstat_eta_max              =   1.7991715124605E+00
(PID.TID 0000.0001) %MON dynstat_eta_min              =  -1.4712445268936E+00
(PID.TID 0000.0001) %MON dynstat_eta_mean             =  -1.1516044506736E-15
(PID.TID 0000.0001) %MON dynstat_eta_sd               =   5.1536195992852E-01
(PID.TID 0000.0001) %MON dynstat_eta_del2             =   2.3165262332703E-02
(PID.TID 0000.0001) %MON dynstat_uvel_max             =   2.8294047572682E-01
(PID.TID 0000.0001) %MON dynstat_uvel_min             =  -3.9148609873169E-01
(PID.TID 0000.0001) %MON dynstat_uvel_mean            =  -2.1536163939556E-03
(PID.TID 0000.0001) %MON dynstat_uvel_sd              =   2.3339960030784E-02
(PID.TID 0000.0001) %MON dynstat_uvel_del2            =   3.8977852585267E-03
(PID.TID 0000.0001) %MON dynstat_vvel_max             =   5.9664427233237E-01
(PID.TID 0000.0001) %MON dynstat_vvel_min             =  -4.5614899658563E-01
(PID.TID 0000.0001) %MON dynstat_vvel_mean            =   5.5549661967396E-03
(PID.TID 0000.0001) %MON dynstat_vvel_sd              =   2.2801506168399E-02
(PID.TID 0000.0001) %MON dynstat_vvel_del2            =   4.2465812783853E-03
(PID.TID 0000.0001) %MON dynstat_wvel_max             =   2.3036366488110E-03
(PID.TID 0000.0001) %MON dynstat_wvel_min             =  -8.1793250230937E-04
(PID.TID 0000.0001) %MON dynstat_wvel_mean            =  -1.2091093060266E-21
(PID.TID 0000.0001) %MON dynstat_wvel_sd              =   6.7551458653807E-05
(PID.TID 0000.0001) %MON dynstat_wvel_del2            =   1.1168007556969E-05
(PID.TID 0000.0001) %MON dynstat_theta_max            =   2.9249651237976E+01
(PID.TID 0000.0001) %MON dynstat_theta_min            =  -2.7181909527830E+00
(PID.TID 0000.0001) %MON dynstat_theta_mean           =   3.4024393831122E+00
(PID.TID 0000.0001) %MON dynstat_theta_sd             =   4.1448211709454E+00
(PID.TID 0000.0001) %MON dynstat_theta_del2           =   1.5038034893495E-01
(PID.TID 0000.0001) %MON dynstat_salt_max             =   3.7417632324144E+01
(PID.TID 0000.0001) %MON dynstat_salt_min             =   3.1071119785070E+01
(PID.TID 0000.0001) %MON dynstat_salt_mean            =   3.4716014211143E+01
(PID.TID 0000.0001) %MON dynstat_salt_sd              =   2.8106700332855E-01
(PID.TID 0000.0001) %MON dynstat_salt_del2            =   2.5780362029621E-02
(PID.TID 0000.0001) %MON advcfl_uvel_max              =   9.6541012787473E-02
(PID.TID 0000.0001) %MON advcfl_vvel_max              =   1.4489801636312E-01
(PID.TID 0000.0001) %MON advcfl_wvel_max              =   7.0703061623610E-01
(PID.TID 0000.0001) %MON advcfl_W_hf_max              =   9.1271225005024E-01
(PID.TID 0000.0001) %MON ke_max                       =   1.5617628777142E-01
(PID.TID 0000.0001) %MON ke_mean                      =   8.5487483425538E-04
(PID.TID 0000.0001) %MON ke_volint                    =   7.2382997413549E+14
(PID.TID 0000.0001) %MON ke_volmean                   =   5.0007286570682E-04
(PID.TID 0000.0001) // =======================================================
(PID.TID 0000.0001) // End MONITOR dynamic field statistics
(PID.TID 0000.0001) // =======================================================
 cg2d: Sum(rhs),rhsMax =   3.50414142147315E-13  1.29779381453877E+01
(PID.TID 0000.0001)                    cg2d_init_res =    5.60034718416907E-01
(PID.TID 0000.0001)                       cg2d_iters =    39
(PID.TID 0000.0001)                         cg2d_res =    5.35747124726206E-14
(PID.TID 0000.0001) // =======================================================
(PID.TID 0000.0001) // Begin MONITOR dynamic field statistics
(PID.TID 0000.0001) // =======================================================
(PID.TID 0000.0001) %MON time_tsnumber                =                    18
(PID.TID 0000.0001) %MON time_secondsf                =   1.9440000000000E+06
(PID.TID 0000.0001) %MON time_secondsi                =               1944000
(PID.TID 0000.0001) %MON dynstat_eta_max              =   1.6765854890139E+00
(PID.TID 0000.0001) %MON dynstat_eta_min              =  -1.5426346694826E+00
(PID.TID 0000.0001) %MON dynstat_eta_mean             =  -8.9576037817582E-16
(PID.TID 0000.0001) %MON dynstat_eta_sd               =   5.2551167202833E-01
(PID.TID 0000.0001) %MON dynstat_eta_del2             =   2.3994143755085E-02
(PID.TID 0000.0001) %MON dynstat_uvel_max             =   2.6200466305794E-01
(PID.TID 0000.0001) %MON dynstat_uvel_min             =  -3.9668284964918E-01
(PID.TID 0000.0001) %MON dynstat_uvel_mean            =  -1.8508150336981E-03
(PID.TID 0000.0001) %MON dynstat_uvel_sd              =   2.2019077343821E-02
(PID.TID 0000.0001) %MON dynstat_uvel_del2            =   3.7206586360564E-03
(PID.TID 0000.0001) %MON dynstat_vvel_max             =   5.6877463072932E-01
(PID.TID 0000.0001) %MON dynstat_vvel_min             =  -3.6638776261338E-01
(PID.TID 0000.0001) %MON dynstat_vvel_mean            =   5.4682983454612E-03
(PID.TID 0000.0001) %MON dynstat_vvel_sd              =   2.2419891402629E-02
(PID.TID 0000.0001) %MON dynstat_vvel_del2            =   4.1101791781477E-03
(PID.TID 0000.0001) %MON dynstat_wvel_max             =   2.0162701323873E-03
(PID.TID 0000.0001) %MON dynstat_wvel_min             =  -8.2336230075055E-04
(PID.TID 0000.0001) %MON dynstat_wvel_mean            =   1.1011649370930E-21
(PID.TID 0000.0001) %MON dynstat_wvel_sd              =   6.3621933309284E-05
(PID.TID 0000.0001) %MON dynstat_wvel_del2            =   1.0482466245049E-05
(PID.TID 0000.0001) %MON dynstat_theta_max            =   2.9264164963010E+01
(PID.TID 0000.0001) %MON dynstat_theta_min            =  -2.7346710777300E+00
(PID.TID 0000.0001) %MON dynstat_theta_mean           =   3.4022699000084E+00
(PID.TID 0000.0001) %MON dynstat_theta_sd             =   4.1465628891431E+00
(PID.TID 0000.0001) %MON dynstat_theta_del2           =   1.5051103222108E-01
(PID.TID 0000.0001) %MON dynstat_salt_max             =   3.7415116282729E+01
(PID.TID 0000.0001) %MON dynstat_salt_min             =   3.1045059092108E+01
(PID.TID 0000.0001) %MON dynstat_salt_mean            =   3.4715987060878E+01
(PID.TID 0000.0001) %MON dynstat_salt_sd              =   2.8093844924851E-01
(PID.TID 0000.0001) %MON dynstat_salt_del2            =   2.5789644584005E-02
(PID.TID 0000.0001) %MON advcfl_uvel_max              =   9.6867042366961E-02
(PID.TID 0000.0001) %MON advcfl_vvel_max              =   1.3812973587792E-01
(PID.TID 0000.0001) %MON advcfl_wvel_max              =   5.9251956027550E-01
(PID.TID 0000.0001) %MON advcfl_W_hf_max              =   7.5648578714148E-01
(PID.TID 0000.0001) %MON ke_max                       =   1.3656073397724E-01
(PID.TID 0000.0001) %MON ke_mean                      =   7.7537505394341E-04
(PID.TID 0000.0001) %MON ke_volint                    =   6.7139905327136E+14
(PID.TID 0000.0001) %MON ke_volmean                   =   4.6384988270658E-04
(PID.TID 0000.0001) // =======================================================
(PID.TID 0000.0001) // End MONITOR dynamic field statistics
(PID.TID 0000.0001) // =======================================================
 cg2d: Sum(rhs),rhsMax =   3.46153661290316E-13  1.46602976692408E+01
(PID.TID 0000.0001)                    cg2d_init_res =    4.68562521238088E-01
(PID.TID 0000.0001)                       cg2d_iters =    38
(PID.TID 0000.0001)                         cg2d_res =    9.10327268822946E-14
(PID.TID 0000.0001) // =======================================================
(PID.TID 0000.0001) // Begin MONITOR dynamic field statistics
(PID.TID 0000.0001) // =======================================================
(PID.TID 0000.0001) %MON time_tsnumber                =                    19
(PID.TID 0000.0001) %MON time_secondsf                =   2.0520000000000E+06
(PID.TID 0000.0001) %MON time_secondsi                =               2052000
(PID.TID 0000.0001) %MON dynstat_eta_max              =   1.6855572819345E+00
(PID.TID 0000.0001) %MON dynstat_eta_min              =  -1.6333003458273E+00
(PID.TID 0000.0001) %MON dynstat_eta_mean             =  -9.0846788382397E-16
(PID.TID 0000.0001) %MON dynstat_eta_sd               =   5.3644448858757E-01
(PID.TID 0000.0001) %MON dynstat_eta_del2             =   2.4745937756521E-02
(PID.TID 0000.0001) %MON dynstat_uvel_max             =   2.4760877054857E-01
(PID.TID 0000.0001) %MON dynstat_uvel_min             =  -4.0906567457252E-01
(PID.TID 0000.0001) %MON dynstat_uvel_mean            =  -1.8069080283643E-03
(PID.TID 0000.0001) %MON dynstat_uvel_sd              =   2.1021820910401E-02
(PID.TID 0000.0001) %MON dynstat_uvel_del2            =   3.5690875339522E-03
(PID.TID 0000.0001) %MON dynstat_vvel_max             =   5.3988163303649E-01
(PID.TID 0000.0001) %MON dynstat_vvel_min             =  -3.2154599855506E-01
(PID.TID 0000.0001) %MON dynstat_vvel_mean            =   5.1425111829502E-03
(PID.TID 0000.0001) %MON dynstat_vvel_sd              =   2.1855109063081E-02
(PID.TID 0000.0001) %MON dynstat_vvel_del2            =   3.9433268193819E-03
(PID.TID 0000.0001) %MON dynstat_wvel_max             =   1.7225888267361E-03
(PID.TID 0000.0001) %MON dynstat_wvel_min             =  -8.0404663725827E-04
(PID.TID 0000.0001) %MON dynstat_wvel_mean            =   4.8441747254607E-22
(PID.TID 0000.0001) %MON dynstat_wvel_sd              =   5.9682106403220E-05
(PID.TID 0000.0001) %MON dynstat_wvel_del2            =   9.7727109320817E-06
(PID.TID 0000.0001) %MON dynstat_theta_max            =   2.9272178837318E+01
(PID.TID 0000.0001) %MON dynstat_theta_min            =  -2.7964640504096E+00
(PID.TID 0000.0001) %MON dynstat_theta_mean           =   3.4019289176017E+00
(PID.TID 0000.0001) %MON dynstat_theta_sd             =   4.1477798162724E+00
(PID.TID 0000.0001) %MON dynstat_theta_del2           =   1.5049586467121E-01
(PID.TID 0000.0001) %MON dynstat_salt_max             =   3.7412941297802E+01
(PID.TID 0000.0001) %MON dynstat_salt_min             =   3.1020609837130E+01
(PID.TID 0000.0001) %MON dynstat_salt_mean            =   3.4715938168894E+01
(PID.TID 0000.0001) %MON dynstat_salt_sd              =   2.8079310429073E-01
(PID.TID 0000.0001) %MON dynstat_salt_del2            =   2.5780694659556E-02
(PID.TID 0000.0001) %MON advcfl_uvel_max              =   9.9890837389945E-02
(PID.TID 0000.0001) %MON advcfl_vvel_max              =   1.3111292829824E-01
(PID.TID 0000.0001) %MON advcfl_wvel_max              =   6.0449151042043E-01
(PID.TID 0000.0001) %MON advcfl_W_hf_max              =   7.1716559541194E-01
(PID.TID 0000.0001) %MON ke_max                       =   1.1789842744888E-01
(PID.TID 0000.0001) %MON ke_mean                      =   6.9671554875188E-04
(PID.TID 0000.0001) %MON ke_volint                    =   6.2424752956661E+14
(PID.TID 0000.0001) %MON ke_volmean                   =   4.3127428011477E-04
(PID.TID 0000.0001) // =======================================================
(PID.TID 0000.0001) // End MONITOR dynamic field statistics
(PID.TID 0000.0001) // =======================================================
 cg2d: Sum(rhs),rhsMax =   3.48207573885873E-13  1.54238475621584E+01
(PID.TID 0000.0001)                    cg2d_init_res =    4.12321737493124E-01
(PID.TID 0000.0001)                       cg2d_iters =    38
(PID.TID 0000.0001)                         cg2d_res =    7.99121997922265E-14
(PID.TID 0000.0001) // =======================================================
(PID.TID 0000.0001) // Begin MONITOR dynamic field statistics
(PID.TID 0000.0001) // =======================================================
(PID.TID 0000.0001) %MON time_tsnumber                =                    20
(PID.TID 0000.0001) %MON time_secondsf                =   2.1600000000000E+06
(PID.TID 0000.0001) %MON time_secondsi                =               2160000
(PID.TID 0000.0001) %MON dynstat_eta_max              =   1.6590096641777E+00
(PID.TID 0000.0001) %MON dynstat_eta_min              =  -1.7583968458461E+00
(PID.TID 0000.0001) %MON dynstat_eta_mean             =  -6.4862312873844E-16
(PID.TID 0000.0001) %MON dynstat_eta_sd               =   5.4696154372622E-01
(PID.TID 0000.0001) %MON dynstat_eta_del2             =   2.5223960866724E-02
(PID.TID 0000.0001) %MON dynstat_uvel_max             =   2.3181503883470E-01
(PID.TID 0000.0001) %MON dynstat_uvel_min             =  -4.1857460441160E-01
(PID.TID 0000.0001) %MON dynstat_uvel_mean            =  -1.9627914222625E-03
(PID.TID 0000.0001) %MON dynstat_uvel_sd              =   2.0404887770202E-02
(PID.TID 0000.0001) %MON dynstat_uvel_del2            =   3.4584475317740E-03
(PID.TID 0000.0001) %MON dynstat_vvel_max             =   5.1071199849206E-01
(PID.TID 0000.0001) %MON dynstat_vvel_min             =  -3.2437920806146E-01
(PID.TID 0000.0001) %MON dynstat_vvel_mean            =   4.5834153865946E-03
(PID.TID 0000.0001) %MON dynstat_vvel_sd              =   2.1179456635292E-02
(PID.TID 0000.0001) %MON dynstat_vvel_del2            =   3.8303705951013E-03
(PID.TID 0000.0001) %MON dynstat_wvel_max             =   1.4258304143697E-03
(PID.TID 0000.0001) %MON dynstat_wvel_min             =  -7.5155124083946E-04
(PID.TID 0000.0001) %MON dynstat_wvel_mean            =  -7.8991745560190E-22
(PID.TID 0000.0001) %MON dynstat_wvel_sd              =   5.6061588000167E-05
(PID.TID 0000.0001) %MON dynstat_wvel_del2            =   9.2362747227216E-06
(PID.TID 0000.0001) %MON dynstat_theta_max            =   2.9274100626770E+01
(PID.TID 0000.0001) %MON dynstat_theta_min            =  -2.8986527232889E+00
(PID.TID 0000.0001) %MON dynstat_theta_mean           =   3.4014654839219E+00
(PID.TID 0000.0001) %MON dynstat_theta_sd             =   4.1483843304626E+00
(PID.TID 0000.0001) %MON dynstat_theta_del2           =   1.5028221914028E-01
(PID.TID 0000.0001) %MON dynstat_salt_max             =   3.7411330065972E+01
(PID.TID 0000.0001) %MON dynstat_salt_min             =   3.1002216642917E+01
(PID.TID 0000.0001) %MON dynstat_salt_mean            =   3.4715876193266E+01
(PID.TID 0000.0001) %MON dynstat_salt_sd              =   2.8064209193947E-01
(PID.TID 0000.0001) %MON dynstat_salt_del2            =   2.5749972480223E-02
(PID.TID 0000.0001) %MON advcfl_uvel_max              =   1.0221284831227E-01
(PID.TID 0000.0001) %MON advcfl_vvel_max              =   1.2402893808913E-01
(PID.TID 0000.0001) %MON advcfl_wvel_max              =   6.2706364226761E-01
(PID.TID 0000.0001) %MON advcfl_W_hf_max              =   7.5173866907856E-01
(PID.TID 0000.0001) %MON ke_max                       =   1.0064591106397E-01
(PID.TID 0000.0001) %MON ke_mean                      =   6.2620029709499E-04
(PID.TID 0000.0001) %MON ke_volint                    =   5.8516195431055E+14
(PID.TID 0000.0001) %MON ke_volmean                   =   4.0427120435870E-04
(PID.TID 0000.0001) // =======================================================
(PID.TID 0000.0001) // End MONITOR dynamic field statistics
(PID.TID 0000.0001) // =======================================================
 cg2d: Sum(rhs),rhsMax =   2.07209249758478E-13  1.52671216373003E+01
(PID.TID 0000.0001)                    cg2d_init_res =    3.98605748375083E-01
(PID.TID 0000.0001)                       cg2d_iters =    38
(PID.TID 0000.0001)                         cg2d_res =    8.08790909917524E-14
(PID.TID 0000.0001) // =======================================================
(PID.TID 0000.0001) // Begin MONITOR dynamic field statistics
(PID.TID 0000.0001) // =======================================================
(PID.TID 0000.0001) %MON time_tsnumber                =                    21
(PID.TID 0000.0001) %MON time_secondsf                =   2.2680000000000E+06
(PID.TID 0000.0001) %MON time_secondsi                =               2268000
(PID.TID 0000.0001) %MON dynstat_eta_max              =   1.5991022831393E+00
(PID.TID 0000.0001) %MON dynstat_eta_min              =  -1.8705393413115E+00
(PID.TID 0000.0001) %MON dynstat_eta_mean             =  -1.4058221544705E-15
(PID.TID 0000.0001) %MON dynstat_eta_sd               =   5.5627467608177E-01
(PID.TID 0000.0001) %MON dynstat_eta_del2             =   2.5486383253500E-02
(PID.TID 0000.0001) %MON dynstat_uvel_max             =   2.3109735203365E-01
(PID.TID 0000.0001) %MON dynstat_uvel_min             =  -4.2547473939246E-01
(PID.TID 0000.0001) %MON dynstat_uvel_mean            =  -2.2524016804086E-03
(PID.TID 0000.0001) %MON dynstat_uvel_sd              =   2.0134427048941E-02
(PID.TID 0000.0001) %MON dynstat_uvel_del2            =   3.3852470980497E-03
(PID.TID 0000.0001) %MON dynstat_vvel_max             =   4.8182104720374E-01
(PID.TID 0000.0001) %MON dynstat_vvel_min             =  -3.8256658401905E-01
(PID.TID 0000.0001) %MON dynstat_vvel_mean            =   3.8226178467613E-03
(PID.TID 0000.0001) %MON dynstat_vvel_sd              =   2.0508012660500E-02
(PID.TID 0000.0001) %MON dynstat_vvel_del2            =   3.8088630073777E-03
(PID.TID 0000.0001) %MON dynstat_wvel_max             =   1.1315013840938E-03
(PID.TID 0000.0001) %MON dynstat_wvel_min             =  -6.7078631190332E-04
(PID.TID 0000.0001) %MON dynstat_wvel_mean            =   2.7803674497843E-22
(PID.TID 0000.0001) %MON dynstat_wvel_sd              =   5.3158550528425E-05
(PID.TID 0000.0001) %MON dynstat_wvel_del2            =   9.0808941015532E-06
(PID.TID 0000.0001) %MON dynstat_theta_max            =   2.9285644484792E+01
(PID.TID 0000.0001) %MON dynstat_theta_min            =  -3.0303800789684E+00
(PID.TID 0000.0001) %MON dynstat_theta_mean           =   3.4009378986619E+00
(PID.TID 0000.0001) %MON dynstat_theta_sd             =   4.1483961267656E+00
(PID.TID 0000.0001) %MON dynstat_theta_del2           =   1.4997711473657E-01
(PID.TID 0000.0001) %MON dynstat_salt_max             =   3.7410368549018E+01
(PID.TID 0000.0001) %MON dynstat_salt_min             =   3.0992938400377E+01
(PID.TID 0000.0001) %MON dynstat_salt_mean            =   3.4715809216740E+01
(PID.TID 0000.0001) %MON dynstat_salt_sd              =   2.8049843822907E-01
(PID.TID 0000.0001) %MON dynstat_salt_del2            =   2.5700354525391E-02
(PID.TID 0000.0001) %MON advcfl_uvel_max              =   1.0389781066474E-01
(PID.TID 0000.0001) %MON advcfl_vvel_max              =   1.1701262748892E-01
(PID.TID 0000.0001) %MON advcfl_wvel_max              =   6.2949578734554E-01
(PID.TID 0000.0001) %MON advcfl_W_hf_max              =   7.6098815602688E-01
(PID.TID 0000.0001) %MON ke_max                       =   8.5111157893330E-02
(PID.TID 0000.0001) %MON ke_mean                      =   5.6980093353301E-04
(PID.TID 0000.0001) %MON ke_volint                    =   5.5625978572491E+14
(PID.TID 0000.0001) %MON ke_volmean                   =   3.8430354512073E-04
(PID.TID 0000.0001) // =======================================================
(PID.TID 0000.0001) // End MONITOR dynamic field statistics
(PID.TID 0000.0001) // =======================================================
 cg2d: Sum(rhs),rhsMax =   4.85222972912425E-13  1.44569157299369E+01
(PID.TID 0000.0001)                    cg2d_init_res =    4.15053251400331E-01
(PID.TID 0000.0001)                       cg2d_iters =    38
(PID.TID 0000.0001)                         cg2d_res =    8.60140994643047E-14
(PID.TID 0000.0001) // =======================================================
(PID.TID 0000.0001) // Begin MONITOR dynamic field statistics
(PID.TID 0000.0001) // =======================================================
(PID.TID 0000.0001) %MON time_tsnumber                =                    22
(PID.TID 0000.0001) %MON time_secondsf                =   2.3760000000000E+06
(PID.TID 0000.0001) %MON time_secondsi                =               2376000
(PID.TID 0000.0001) %MON dynstat_eta_max              =   1.5122825662502E+00
(PID.TID 0000.0001) %MON dynstat_eta_min              =  -1.9494202314919E+00
(PID.TID 0000.0001) %MON dynstat_eta_mean             =  -6.1486801182484E-16
(PID.TID 0000.0001) %MON dynstat_eta_sd               =   5.6397544015862E-01
(PID.TID 0000.0001) %MON dynstat_eta_del2             =   2.5595534822838E-02
(PID.TID 0000.0001) %MON dynstat_uvel_max             =   2.3512023011542E-01
(PID.TID 0000.0001) %MON dynstat_uvel_min             =  -4.3012113932222E-01
(PID.TID 0000.0001) %MON dynstat_uvel_mean            =  -2.6104203985692E-03
(PID.TID 0000.0001) %MON dynstat_uvel_sd              =   2.0114284222469E-02
(PID.TID 0000.0001) %MON dynstat_uvel_del2            =   3.3439724062237E-03
(PID.TID 0000.0001) %MON dynstat_vvel_max             =   4.5360941357022E-01
(PID.TID 0000.0001) %MON dynstat_vvel_min             =  -4.3157751770398E-01
(PID.TID 0000.0001) %MON dynstat_vvel_mean            =   2.9121074589505E-03
(PID.TID 0000.0001) %MON dynstat_vvel_sd              =   1.9972004743851E-02
(PID.TID 0000.0001) %MON dynstat_vvel_del2            =   3.8536447645922E-03
(PID.TID 0000.0001) %MON dynstat_wvel_max             =   1.1910210533998E-03
(PID.TID 0000.0001) %MON dynstat_wvel_min             =  -5.6819328412006E-04
(PID.TID 0000.0001) %MON dynstat_wvel_mean            =   3.9436435420825E-22
(PID.TID 0000.0001) %MON dynstat_wvel_sd              =   5.1203521399011E-05
(PID.TID 0000.0001) %MON dynstat_wvel_del2            =   9.2854574500975E-06
(PID.TID 0000.0001) %MON dynstat_theta_max            =   2.9291282395360E+01
(PID.TID 0000.0001) %MON dynstat_theta_min            =  -3.1768115735334E+00
(PID.TID 0000.0001) %MON dynstat_theta_mean           =   3.4004029099015E+00
(PID.TID 0000.0001) %MON dynstat_theta_sd             =   4.1479113894579E+00
(PID.TID 0000.0001) %MON dynstat_theta_del2           =   1.4951800788593E-01
(PID.TID 0000.0001) %MON dynstat_salt_max             =   3.7409991631456E+01
(PID.TID 0000.0001) %MON dynstat_salt_min             =   3.0994077218327E+01
(PID.TID 0000.0001) %MON dynstat_salt_mean            =   3.4715743845814E+01
(PID.TID 0000.0001) %MON dynstat_salt_sd              =   2.8037464065772E-01
(PID.TID 0000.0001) %MON dynstat_salt_del2            =   2.5634058233460E-02
(PID.TID 0000.0001) %MON advcfl_uvel_max              =   1.0503242744802E-01
(PID.TID 0000.0001) %MON advcfl_vvel_max              =   1.1016129254543E-01
(PID.TID 0000.0001) %MON advcfl_wvel_max              =   6.1435621336142E-01
(PID.TID 0000.0001) %MON advcfl_W_hf_max              =   7.4784881693050E-01
(PID.TID 0000.0001) %MON ke_max                       =   7.1430139320356E-02
(PID.TID 0000.0001) %MON ke_mean                      =   5.3144205202603E-04
(PID.TID 0000.0001) %MON ke_volint                    =   5.3871619339893E+14
(PID.TID 0000.0001) %MON ke_volmean                   =   3.7218319254798E-04
(PID.TID 0000.0001) // =======================================================
(PID.TID 0000.0001) // End MONITOR dynamic field statistics
(PID.TID 0000.0001) // =======================================================
 cg2d: Sum(rhs),rhsMax =   2.21406226685872E-13  1.29955108780384E+01
(PID.TID 0000.0001)                    cg2d_init_res =    4.64772293010335E-01
(PID.TID 0000.0001)                       cg2d_iters =    38
(PID.TID 0000.0001)                         cg2d_res =    9.81067564333326E-14
(PID.TID 0000.0001) // =======================================================
(PID.TID 0000.0001) // Begin MONITOR dynamic field statistics
(PID.TID 0000.0001) // =======================================================
(PID.TID 0000.0001) %MON time_tsnumber                =                    23
(PID.TID 0000.0001) %MON time_secondsf                =   2.4840000000000E+06
(PID.TID 0000.0001) %MON time_secondsi                =               2484000
(PID.TID 0000.0001) %MON dynstat_eta_max              =   1.4061020016633E+00
(PID.TID 0000.0001) %MON dynstat_eta_min              =  -2.0290570877470E+00
(PID.TID 0000.0001) %MON dynstat_eta_mean             =  -1.1767292273866E-15
(PID.TID 0000.0001) %MON dynstat_eta_sd               =   5.6989678540060E-01
(PID.TID 0000.0001) %MON dynstat_eta_del2             =   2.5659741832430E-02
(PID.TID 0000.0001) %MON dynstat_uvel_max             =   2.3889742894042E-01
(PID.TID 0000.0001) %MON dynstat_uvel_min             =  -4.3309861812134E-01
(PID.TID 0000.0001) %MON dynstat_uvel_mean            =  -2.9782348995159E-03
(PID.TID 0000.0001) %MON dynstat_uvel_sd              =   2.0238134022408E-02
(PID.TID 0000.0001) %MON dynstat_uvel_del2            =   3.3297406561541E-03
(PID.TID 0000.0001) %MON dynstat_vvel_max             =   4.2633935954715E-01
(PID.TID 0000.0001) %MON dynstat_vvel_min             =  -4.7060533507806E-01
(PID.TID 0000.0001) %MON dynstat_vvel_mean            =   1.9170844694825E-03
(PID.TID 0000.0001) %MON dynstat_vvel_sd              =   1.9683965713395E-02
(PID.TID 0000.0001) %MON dynstat_vvel_del2            =   3.9300335227418E-03
(PID.TID 0000.0001) %MON dynstat_wvel_max             =   1.2116603686738E-03
(PID.TID 0000.0001) %MON dynstat_wvel_min             =  -5.6353918834252E-04
(PID.TID 0000.0001) %MON dynstat_wvel_mean            =  -1.3933281585717E-22
(PID.TID 0000.0001) %MON dynstat_wvel_sd              =   5.0191172249502E-05
(PID.TID 0000.0001) %MON dynstat_wvel_del2            =   9.6809822732885E-06
(PID.TID 0000.0001) %MON dynstat_theta_max            =   2.9303073795208E+01
(PID.TID 0000.0001) %MON dynstat_theta_min            =  -3.3217497455759E+00
(PID.TID 0000.0001) %MON dynstat_theta_mean           =   3.3999076580018E+00
(PID.TID 0000.0001) %MON dynstat_theta_sd             =   4.1470663312556E+00
(PID.TID 0000.0001) %MON dynstat_theta_del2           =   1.4898321578618E-01
(PID.TID 0000.0001) %MON dynstat_salt_max             =   3.7410020570081E+01
(PID.TID 0000.0001) %MON dynstat_salt_min             =   3.1005188506043E+01
(PID.TID 0000.0001) %MON dynstat_salt_mean            =   3.4715684643418E+01
(PID.TID 0000.0001) %MON dynstat_salt_sd              =   2.8028027383368E-01
(PID.TID 0000.0001) %MON dynstat_salt_del2            =   2.5564945667011E-02
(PID.TID 0000.0001) %MON advcfl_uvel_max              =   1.0575950593210E-01
(PID.TID 0000.0001) %MON advcfl_vvel_max              =   1.1428883625439E-01
(PID.TID 0000.0001) %MON advcfl_wvel_max              =   5.8339836779628E-01
(PID.TID 0000.0001) %MON advcfl_W_hf_max              =   7.1466167625418E-01
(PID.TID 0000.0001) %MON ke_max                       =   6.3891267546308E-02
(PID.TID 0000.0001) %MON ke_mean                      =   5.1291426930307E-04
(PID.TID 0000.0001) %MON ke_volint                    =   5.3280512312728E+14
(PID.TID 0000.0001) %MON ke_volmean                   =   3.6809940774248E-04
(PID.TID 0000.0001) // =======================================================
(PID.TID 0000.0001) // End MONITOR dynamic field statistics
(PID.TID 0000.0001) // =======================================================
 cg2d: Sum(rhs),rhsMax =   5.04762898145827E-13  1.09125688303256E+01
(PID.TID 0000.0001)                    cg2d_init_res =    5.58047197752774E-01
(PID.TID 0000.0001)                       cg2d_iters =    39
(PID.TID 0000.0001)                         cg2d_res =    5.12738245057940E-14
(PID.TID 0000.0001) // =======================================================
(PID.TID 0000.0001) // Begin MONITOR dynamic field statistics
(PID.TID 0000.0001) // =======================================================
(PID.TID 0000.0001) %MON time_tsnumber                =                    24
(PID.TID 0000.0001) %MON time_secondsf                =   2.5920000000000E+06
(PID.TID 0000.0001) %MON time_secondsi                =               2592000
(PID.TID 0000.0001) %MON dynstat_eta_max              =   1.2880993646229E+00
(PID.TID 0000.0001) %MON dynstat_eta_min              =  -2.0803751968076E+00
(PID.TID 0000.0001) %MON dynstat_eta_mean             =  -1.1698834395962E-15
(PID.TID 0000.0001) %MON dynstat_eta_sd               =   5.7402010374252E-01
(PID.TID 0000.0001) %MON dynstat_eta_del2             =   2.5687834427040E-02
(PID.TID 0000.0001) %MON dynstat_uvel_max             =   2.4209789029881E-01
(PID.TID 0000.0001) %MON dynstat_uvel_min             =  -4.3486511438812E-01
(PID.TID 0000.0001) %MON dynstat_uvel_mean            =  -3.3077847824717E-03
(PID.TID 0000.0001) %MON dynstat_uvel_sd              =   2.0432670847578E-02
(PID.TID 0000.0001) %MON dynstat_uvel_del2            =   3.3404170551467E-03
(PID.TID 0000.0001) %MON dynstat_vvel_max             =   4.0014996354562E-01
(PID.TID 0000.0001) %MON dynstat_vvel_min             =  -4.9913659839099E-01
(PID.TID 0000.0001) %MON dynstat_vvel_mean            =   9.0763803285033E-04
(PID.TID 0000.0001) %MON dynstat_vvel_sd              =   1.9701167596538E-02
(PID.TID 0000.0001) %MON dynstat_vvel_del2            =   4.0087061982133E-03
(PID.TID 0000.0001) %MON dynstat_wvel_max             =   1.2083914026488E-03
(PID.TID 0000.0001) %MON dynstat_wvel_min             =  -5.6694792851559E-04
(PID.TID 0000.0001) %MON dynstat_wvel_mean            =   9.4151653544211E-22
(PID.TID 0000.0001) %MON dynstat_wvel_sd              =   4.9898289528435E-05
(PID.TID 0000.0001) %MON dynstat_wvel_del2            =   1.0025596262304E-05
(PID.TID 0000.0001) %MON dynstat_theta_max            =   2.9481767517502E+01
(PID.TID 0000.0001) %MON dynstat_theta_min            =  -3.4507014459314E+00
(PID.TID 0000.0001) %MON dynstat_theta_mean           =   3.3994845008429E+00
(PID.TID 0000.0001) %MON dynstat_theta_sd             =   4.1460040927059E+00
(PID.TID 0000.0001) %MON dynstat_theta_del2           =   1.4836524344028E-01
(PID.TID 0000.0001) %MON dynstat_salt_max             =   3.7410230812537E+01
(PID.TID 0000.0001) %MON dynstat_salt_min             =   3.1024339771848E+01
(PID.TID 0000.0001) %MON dynstat_salt_mean            =   3.4715634007759E+01
(PID.TID 0000.0001) %MON dynstat_salt_sd              =   2.8022204589113E-01
(PID.TID 0000.0001) %MON dynstat_salt_del2            =   2.5484476448228E-02
(PID.TID 0000.0001) %MON advcfl_uvel_max              =   1.0619087136386E-01
(PID.TID 0000.0001) %MON advcfl_vvel_max              =   1.2121779484845E-01
(PID.TID 0000.0001) %MON advcfl_wvel_max              =   5.4126779151296E-01
(PID.TID 0000.0001) %MON advcfl_W_hf_max              =   6.6498614385878E-01
(PID.TID 0000.0001) %MON ke_max                       =   7.1640990659076E-02
(PID.TID 0000.0001) %MON ke_mean                      =   5.1417124489146E-04
(PID.TID 0000.0001) %MON ke_volint                    =   5.3800872096058E+14
(PID.TID 0000.0001) %MON ke_volmean                   =   3.7169442062323E-04
(PID.TID 0000.0001) // =======================================================
(PID.TID 0000.0001) // End MONITOR dynamic field statistics
(PID.TID 0000.0001) // =======================================================
(PID.TID 0000.0001) // =======================================================
(PID.TID 0000.0001) // Field Current uVel   at iteration         24
(PID.TID 0000.0001) // CMIN =         -3.149660054046280E-01
(PID.TID 0000.0001) // CMAX =          2.130228212749155E-01
(PID.TID 0000.0001) // CINT =          1.955514172887198E-02
(PID.TID 0000.0001) // SYMBOLS (CMIN->CMAX): -abcdefghijklmnopqrstuvwxyz+
(PID.TID 0000.0001) //                  0.0: .
(PID.TID 0000.0001) // RANGE I (Lo:Hi:Step):(   1:  90:   1)
(PID.TID 0000.0001) // RANGE J (Lo:Hi:Step):(  40:   1:  -1)
(PID.TID 0000.0001) // RANGE K (Lo:Hi:Step):(   1:   1:   1)
(PID.TID 0000.0001) // =======================================================
(PID.TID 0000.0001) K =   1
(PID.TID 0000.0001)                I=10      I=20      I=30      I=40      I=50      I=60      I=70      I=80      I=90
(PID.TID 0000.0001) |--J--|123456789|123456789|123456789|123456789|123456789|123456789|123456789|123456789|123456789|
(PID.TID 0000.0001)     40 ..........................................................................................
(PID.TID 0000.0001)     39 oooppp....................................................................pp..........pppp
(PID.TID 0000.0001)     38 oppp.......................................................................q.........pqqpp
(PID.TID 0000.0001)     37 pp.........................................................................qp....ooo...tsq
(PID.TID 0000.0001)     36 r...........................................ooop...........................qqp..ooooooqsts
(PID.TID 0000.0001)     35 .q..................................ppp..pppppoppp..ppooo...................qppoooonnopr..
(PID.TID 0000.0001)     34 .....................................pppqppppppppqqqpppoop...................qqpqqppppqq..
(PID.TID 0000.0001)     33 .....................................ppqpppppppppppqqpppppp................p..qppqqqpqqqp.
(PID.TID 0000.0001)     32 .....................................ppppqqppqqqppppppppppp................ppppppppppppp..
(PID.TID 0000.0001)     31 .....................................qpppqqqqpppppppppppppp..............poppppppqppppp...
(PID.TID 0000.0001)     30 ....................................qrqqqqqqqqqqqqqqqqqqppo.............oppppppppqqppppp..
(PID.TID 0000.0001)     29 ................................qqqqrrrqqqqqqqqqqqqqqqqqppopo..........pqqpppppppppppppp..
(PID.TID 0000.0001)     28 ...............................pqpqqqqqqqqqqqqqqqrqqqqqqpppoo.......p..qqqpppppppppoooo...
(PID.TID 0000.0001)     27 ................................ppopppppqqqqqqqqqqqqqqqpppooopp....qqrrqqqpqpoooooonnn....
(PID.TID 0000.0001)     26 ................qp...........pxrponnnoooooopoooppooooonnnnnnoppq.....poooomoonnnnmmmmn....
(PID.TID 0000.0001)     25 ..............qrrq...qpq....mo..onlllllllmmmmmmmmmlllllkklllmnopp.....mlmlmlnmmlllllln....
(PID.TID 0000.0001)     24 .............rrrrqq..pqr....hq..oqnkkkkkkkkllkklllllllllllmmnooppppp..ll..mmmmlllllmnn....
(PID.TID 0000.0001)     23 ..............rqqqqqpqqr..eajytmktsnnmmmmmmmmmmmnmnnonoopopppppppqqqp.......nmmmnnnopqq...
(PID.TID 0000.0001)     22 pq...........pqqqqqqrqqq...-...p+yuqpooooooooonnnnoooooppopooppppqqqqq........nnnooppqqqqq
(PID.TID 0000.0001)     21 pp..........oppqqqqqrqqqr......vyvuqopqqpooooonnnnnnnnnoonoooooopppppp.........nmmoooooppp
(PID.TID 0000.0001)     20 opp........opppppqppqpppq............pppppoooonnnnnnnnmnnmnnnnnnnonoo.............nnnnnooo
(PID.TID 0000.0001)     19 ooo........onmmmmnnnmmnnnmo..rplmn....nnonnoooonnnnmmmmnmmmllllllmmnno............mmmlmmnn
(PID.TID 0000.0001)     18 nno........pmiiiijkjjjklllmnmoon.....mlllmmmnnnnnnnnnnnnmmmllllllllmmmo...........mmllmmmm
(PID.TID 0000.0001)     17 lln...........kjjjjkjkklmmnnnno.......mlllmlmmmmmnnnnnnnmmmmmmmllllllmn...........nmmlllll
(PID.TID 0000.0001)     16 kll.......q..ponmmnnnnooooopp.........nmlmmmnnnooooooooonnoonnnnnnmmmmmo.........ponmmllkk
(PID.TID 0000.0001)     15 lll.......o..rqpppppqqqqpppp...........onnnoooppqqqqqqqppppppppoooonnnnn........qqpoonmmll
(PID.TID 0000.0001)     14 nmmn.....qppqqqqppqpqqqqpqqp............poooppqqqqqqrrqqqqqqqqqpppppoonn.......qrqqppoonnn
(PID.TID 0000.0001)     13 ooon....prqqqppppppoopoooopp...........pqppooopppqqqqqrqqqqqqqqqqpqpppoo......pqrqqqqppooo
(PID.TID 0000.0001)     12 ppppqprrrrrrqqpppoooooooooopq..ppp.....ppqppppppppppppqppqpppppppppppppo.....pqqqqqqqpppoo
(PID.TID 0000.0001)     11 oooopoqqrrrrrqqppoonnnnoonoooppppppqsrooppq..pooooopppppoopoooooooppppp.....ppqqpppppppooo
(PID.TID 0000.0001)     10 oooopoppqqpqqqpppoonnnnoonnnnnnooooopoooop..ppoooooooooooononnnnnnooppp....moppoopppppoooo
(PID.TID 0000.0001)      9 oooopoooooooopppooppnnopoonoonnnooooooopqrsrqqppppppoonnonnonnnnnoooppp....qpppooooooooppo
(PID.TID 0000.0001)      8 ppppoooooooooopoopqrqpppoooponnoooooopppppqrrqqqqqqppoooooooonnoppppppq...sqqqqppoonnopppp
(PID.TID 0000.0001)      7 rrqppppooopppppoppqrqqpppppoooppppppppponnopqqqqqqppponoonnoooppqqqqqppppqpopqqqpppoooppqr
(PID.TID 0000.0001)      6 qqqpqqpppppppppppppppqqqqpppqqqppppppppooopqrrrrrqqqqppoooopqrrrrrrqqqqqqpopqppppppppppqqq
(PID.TID 0000.0001)      5 qqppqqqqqqqqqppppppppqqqq..pppppppppppppppqppqqqqqpppppopppqqrrrqqqppqqqqq..rqqppppppppppp
(PID.TID 0000.0001)      4 pppppppp.................................pppppppppppppppqqqqqqqqqpppppqq....qppqpppppppppp
(PID.TID 0000.0001)      3 ............................................oopppppqqqqqqrrqqqppp...........pppppppppp....
(PID.TID 0000.0001)      2 ............................................ppppppp............................ppp........
(PID.TID 0000.0001)      1 ..........................................................................................
(PID.TID 0000.0001) // =======================================================
(PID.TID 0000.0001) // END OF FIELD                                          =
(PID.TID 0000.0001) // =======================================================
(PID.TID 0000.0001) 
(PID.TID 0000.0001) // =======================================================
(PID.TID 0000.0001) // Field Current vVel   at iteration         24
(PID.TID 0000.0001) // CMIN =         -4.991365983909850E-01
(PID.TID 0000.0001) // CMAX =          3.071970220172165E-01
(PID.TID 0000.0001) // CINT =          2.986420816326672E-02
(PID.TID 0000.0001) // SYMBOLS (CMIN->CMAX): -abcdefghijklmnopqrstuvwxyz+
(PID.TID 0000.0001) //                  0.0: .
(PID.TID 0000.0001) // RANGE I (Lo:Hi:Step):(   1:  90:   1)
(PID.TID 0000.0001) // RANGE J (Lo:Hi:Step):(  40:   1:  -1)
(PID.TID 0000.0001) // RANGE K (Lo:Hi:Step):(   1:   1:   1)
(PID.TID 0000.0001) // =======================================================
(PID.TID 0000.0001) K =   1
(PID.TID 0000.0001)                I=10      I=20      I=30      I=40      I=50      I=60      I=70      I=80      I=90
(PID.TID 0000.0001) |--J--|123456789|123456789|123456789|123456789|123456789|123456789|123456789|123456789|123456789|
(PID.TID 0000.0001)     40 ..........................................................................................
(PID.TID 0000.0001)     39 ssss......................................................................pp.........qrrrs
(PID.TID 0000.0001)     38 rq........................................................................pp..........rqsr
(PID.TID 0000.0001)     37 r.........................................................................ppq...qqrs..oprr
(PID.TID 0000.0001)     36 q..........................................qqqqq...........................ppq.ppqrrrqqr..
(PID.TID 0000.0001)     35 ....................................pqr.qqqqqqqppp.ppqqqq...................pqqqqqrrrrrq..
(PID.TID 0000.0001)     34 ....................................qqqqqqqpppppqqqqqqqqqq...................qqqrrrrrrrq..
(PID.TID 0000.0001)     33 ....................................pppqqqqqqqqqqqqqqqqqqqq...............rr.qqqqqqqqrqq..
(PID.TID 0000.0001)     32 ....................................pppppppppppppppppppppqp...............pppppppqqqqqq...
(PID.TID 0000.0001)     31 ....................................ppooooooooooopppppppppp.............qqpppppppqqqqqq...
(PID.TID 0000.0001)     30 ...................................pppooooooooooppppppppppp............qppoopppppqqqqqqq..
(PID.TID 0000.0001)     29 ...............................qppppooooooopppppppppppppppppp.........qpppppqqqqqqqqqqq...
(PID.TID 0000.0001)     28 ...............................qqpppppppppqqqqqppqpqqqqqqqppo......qq.qqqqqqqqqqrrrrqq....
(PID.TID 0000.0001)     27 ...............................rqqqqrrqqqqqqqqqqqqqrrrqqqqqpppp...q.rrqqppqqqqrrrrrrrq....
(PID.TID 0000.0001)     26 ...............ppp....q.....y+.rrrrrrrrrrrrrrrrrrrrrrrrrrqqqpppp.....rrqqrqqqrrrrrrrqp....
(PID.TID 0000.0001)     25 .............qppop..qqpp...uzr.prrqqqrrrrrrrrrrrqrrrrrqqqqqqqpppp....qrq.qrqqrrrrqqqpp....
(PID.TID 0000.0001)     24 .............qpoooo.pppp...so-.ioqppqqqqqqqqrqqqqqqqqqqqqrrrqqqpppqq.......pqrrrrqqqqp....
(PID.TID 0000.0001)     23 .............ppooooppppp..rs..wvnnppqqqqqqqqqqqqrrrrrrrrrrrrqqqqqqrrr........rrrrrrqqqq...
(PID.TID 0000.0001)     22 qq..........ppoooooopppp......lilopqqrqqqqqqqqqqrrrrrrrrrqqqqqqqpqqqqp........qqrrrqqqqqqq
(PID.TID 0000.0001)     21 qq.........qqpooooppppppp.......n...qrrqqqqrrrrrrrrrrrrrrrrrrrrrrrqqq............ssrrrrqqq
(PID.TID 0000.0001)     20 qqq.......srrqqqqqqqqqqqq.......r....rrrqqqqqqqqqpqqqqqqrrrrssrrsrrrq............sssrrrrrr
(PID.TID 0000.0001)     19 qqq.......tsstssssrrrrrqqqp.oqqq.....srrrrqqqqqqqpppqqqqqqqqqqqqrrqrrr...........srrqqqqqq
(PID.TID 0000.0001)     18 qqq.......s..trrqqqpppppppppppq......srqqqqpppppqppppppppppppppppqqqqrr..........srqqqqqqq
(PID.TID 0000.0001)     17 qqq.......r..qpppoooooooopppp........qqppppppppppppppppppppppppppppqqqr..........rrqqppqqq
(PID.TID 0000.0001)     16 pqq......rr.ppppppoooooooppp..........pqpppppppppppppppppppppppppppqqqqq........qrqqqppppp
(PID.TID 0000.0001)     15 ppp......qq.pqppqppppppppppp...........qqqqqqqqpqpppppppqqqpppqqqpqqqqrq.......qqqqqqppppp
(PID.TID 0000.0001)     14 qppo....pqqpqqqqqqqqqqqqqqqp...........qqqqqrrrqqqqqqqqqqqqqqqqqqqqqrrrq......qqrqqqqqqqqq
(PID.TID 0000.0001)     13 rqqp...rrrrrrrrrqqqqqqqrqqqq..........pqrqqrrrrrrrrrrqqqrrrrrrrrrrrrrrrq.....qrrrsrrqqqrrr
(PID.TID 0000.0001)     12 sssssrsrssrsssssrrrrrrrrrrrrq.rqqq....pppqq.qrrrrrqqqqqqqqrrrrrrrrrrrrr.....qrrrsssrrrrrrr
(PID.TID 0000.0001)     11 sssssstttsssssrrrrrrrrrrrrrsrrrrrrrqqqqqpq..pqrrrrqqqqqqqqqqqqqrrrrrrrr....pqrssssrrrqqrrs
(PID.TID 0000.0001)     10 rrrrrrsssrrsssrqppqqrrsrrqqrrqqrrrqqqqqqqq.qpqrrrrrrrqqqqqqqqqrrrrrrrrr...rooprrrrrqqqppqq
(PID.TID 0000.0001)      9 qqqqqqrrqqppqrrqqppppqqqqqqqqpppqppppoppppppppppppooooopppppoppqqqqrrqq...qpoppqqqqppppoop
(PID.TID 0000.0001)      8 pppppqqqqqpppqqqppooppqqppqqqqppppppoooopppqqppqpponnoopooppppqqqqqrrqq..qponnopqqqppppooo
(PID.TID 0000.0001)      7 pppqqqqqqppppppppppooppppppppppppppqppoonnooooopppooooooonoooooppppppoonooonnnooppqpppoooo
(PID.TID 0000.0001)      6 qqqqqqqqppppppppppppppppp.ppppoooooppppoooonoooooooopppppooooppppppooonnnn.ppppppppqpppppp
(PID.TID 0000.0001)      5 qqqqqpqq.p..............................qqppoppppppppppqqpppppppppppppoo...qppppqqqqqqqqqq
(PID.TID 0000.0001)      4 ...........................................pppppppppppppqqppppppp..........ppppppqqqqq....
(PID.TID 0000.0001)      3 ...........................................qqppppqq...........................qqpp........
(PID.TID 0000.0001)      2 ..........................................................................................
(PID.TID 0000.0001)      1 ..........................................................................................
(PID.TID 0000.0001) // =======================================================
(PID.TID 0000.0001) // END OF FIELD                                          =
(PID.TID 0000.0001) // =======================================================
(PID.TID 0000.0001) 
(PID.TID 0000.0001) // =======================================================
(PID.TID 0000.0001) // Field Current theta  at iteration         24
(PID.TID 0000.0001) // CMIN =         -1.885451283394278E+00
(PID.TID 0000.0001) // CMAX =          2.948176751750166E+01
(PID.TID 0000.0001) // CINT =          1.161748844477627E+00
(PID.TID 0000.0001) // SYMBOLS (CMIN->CMAX): -abcdefghijklmnopqrstuvwxyz+
(PID.TID 0000.0001) //                  0.0: .
(PID.TID 0000.0001) // RANGE I (Lo:Hi:Step):(   1:  90:   1)
(PID.TID 0000.0001) // RANGE J (Lo:Hi:Step):(  40:   1:  -1)
(PID.TID 0000.0001) // RANGE K (Lo:Hi:Step):(   1:   1:   1)
(PID.TID 0000.0001) // =======================================================
(PID.TID 0000.0001) K =   1
(PID.TID 0000.0001)                I=10      I=20      I=30      I=40      I=50      I=60      I=70      I=80      I=90
(PID.TID 0000.0001) |--J--|123456789|123456789|123456789|123456789|123456789|123456789|123456789|123456789|123456789|
(PID.TID 0000.0001)     40 ..........................................................................................
(PID.TID 0000.0001)     39 ffgggg...................................................................bbc.........bccde
(PID.TID 0000.0001)     38 hhhh......................................................................cc........dddefg
(PID.TID 0000.0001)     37 jj........................................................................cdd...fggh..ghii
(PID.TID 0000.0001)     36 i..........................................fffed..........................defe.ghiijjkjjjj
(PID.TID 0000.0001)     35 jj.................................eeee.ffggffffff.ghhiii..................eefgghijkllll..
(PID.TID 0000.0001)     34 ....................................eeeffgggggggghhhhiijjj..................dfhijkllmmml..
(PID.TID 0000.0001)     33 ....................................eeefggggghhhhiiiiijjkkk...............ee.egjmmnnnnmml.
(PID.TID 0000.0001)     32 ....................................hhhiiiijjjjjjkkkkklllll...............iihgjnooooonnn..
(PID.TID 0000.0001)     31 ....................................mmnnnmnnnnnnnnnnnnnnnnm.............opqqqqqrrrqqqpp...
(PID.TID 0000.0001)     30 ...................................rrrrqqqqqqppppppppppppon............stuuuttsssrrrrqqq..
(PID.TID 0000.0001)     29 ...............................rtuuttttssssssssrrrssssrrqqpon.........vuuuuuuttttssssrrq..
(PID.TID 0000.0001)     28 ..............................uuvvvvuuuuuuuuuuuuuuuuuttssrrqp......vv.wvvvvvvvuuuuttssr...
(PID.TID 0000.0001)     27 ...............................xwwwwwwwwwwwwwwwwwwvvvuutttssrst...wwxxxxxxxwwwwwvvuuts....
(PID.TID 0000.0001)     26 ...............xxy....y.....xxyyyyyyyyyyyxxxxxxxxxwwvvvvuuuuuvvw..w.yyyyxxxxxxwwvvvutr....
(PID.TID 0000.0001)     25 .............wxyyz..yyyy...xxw.zzzzzzzzyyyyyyyxxxxxwwwwwwwvwwxxyy....yyyyyyyxxxwwwvuts....
(PID.TID 0000.0001)     24 ............xxyyzzz.yzzy...xwu.zzzzzzzzzzyyyyyyyyxxxxxxxxxxxxyyyyyxw.yyx.xxyyxxwwwvvut....
(PID.TID 0000.0001)     23 .............xyzzzzyyzzy.zxvxv++zzzzzzzzzzzzzzzyyyyyyyyyyyxyyyyyyyxwx......yyyyxxxxxwww...
(PID.TID 0000.0001)     22 ww..........xyyzzzzzzzzz..yw..wxzzz+++++++zzzzzzzyyyyyyyxxxxxxxxxxxwww.......yyyyyyxxxxxww
(PID.TID 0000.0001)     21 wv.........yyyzzzzzzzzzzz.....yyyzzz+++++zzzzzzyyyyyyxxxwwwwvvvvuuuuuu........yyyyyxxxxwww
(PID.TID 0000.0001)     20 vut.......yyyyyyyyyyzzzzz.......y...++++++++z+zzzzzzyyyyxxxxwwwvvuuut............yyxxxwwvv
(PID.TID 0000.0001)     19 vut.......yxyxxxyyyyyyyyyyy.yyyyyx...zz+++++++++++zzzzzyyyyxxxwwvvvvus...........yyyxxwwvv
(PID.TID 0000.0001)     18 utt.......yxxxxxxxxxxyyyyyyyyyyy....yyyzzzzzzzzzzzzzzzzyyyyxxwwvvuuutsr..........yyxxwwvvu
(PID.TID 0000.0001)     17 tsr.......x..xwwxwxxwxxxxxxxxxx......xyyyyyyyyyzzyyyyyyyyyxxxwvvvuuutsr..........xxxwvvuut
(PID.TID 0000.0001)     16 srq......ww.wwwvwvwwvvvvvvvww........wwwxxxxxxxxxxxxxxxxxxxxwwvvvuutssrr........wxxxwvuuut
(PID.TID 0000.0001)     15 srq......vv.vwvvvvvvuuuuuuuu..........vvvvvvvvvvvvvvvvvvwwwwvvvvuutssrrq.......vwwwwvvuutt
(PID.TID 0000.0001)     14 srqp....uuuuuvuttttttsssssst...........uuuttutttttttuuuuuuuuuvuutttssrqp......uvvvuuuuutts
(PID.TID 0000.0001)     13 rrrq...ttsssssrrrrrqqqqqqqqr..........tttssssrrrrrsrrsssssssssrrrrrrqqpo.....tttttsstttssr
(PID.TID 0000.0001)     12 pppqrrrsrrrqqqpppoooooooooopq.pppp....srrqqqqppppppppppppppoooooooppppon....oqrqqqqqqqqqpp
(PID.TID 0000.0001)     11 llmnpqppoooononnnnnmmllllllmmnnmnnnoopppppp.pooonnnnnnnnnmmmmmmmmmmnnnn....lmoonnoonnnnmmm
(PID.TID 0000.0001)     10 iiiijjjjjjjihijjkkkkkjjjjjjjjkkkllllmnnnnn.mmmmmmmlllllllllllkkkjjkklll...kjlmlkjjjkjjjjii
(PID.TID 0000.0001)      9 effeeeefffffeeffffffgggfffggghhiiiijjkkklllkkkkkkkkkkkjjjjjjiiiiiiiiijk...iiiiihgfffgffeee
(PID.TID 0000.0001)      8 ccccccddddddddeeedddddddddeeeffffffgghhhiiiiiiiihhhhhhhghhggggghggggghi..ihhggfeddddddddcc
(PID.TID 0000.0001)      7 babbbcccccccccccdccccccccccccddddddddeeffghhgggggfeedddeefffffffffgffgggggffeedccbbbbbbbbb
(PID.TID 0000.0001)      6 aaabbbccccccccccccccbbccccbbbccccccccccddeeeeeeedcbbbbbccdddddddeeeeeeeeeddccbbbbbbbbbbbba
(PID.TID 0000.0001)      5 aabbbbbbbbbbbbbbbbbbbaaab.bbbbbbbbbbbbbbbbccbbbbbbbbbbbbbbbbcccccccccccbbb.baaaaaaaaaaaaaa
(PID.TID 0000.0001)      4 aaaaaaaa.a..............................aaaaaaaaaaaaaaaaaaaaaaaaaaaaaaaa...aa---aaaaaaaaaa
(PID.TID 0000.0001)      3 ...........................................aaaaaaa--aaaaaaaaaaaaa..........a-a--aaaaaa....
(PID.TID 0000.0001)      2 ...........................................aaaaaaaa...........................--aa........
(PID.TID 0000.0001)      1 ..........................................................................................
(PID.TID 0000.0001) // =======================================================
(PID.TID 0000.0001) // END OF FIELD                                          =
(PID.TID 0000.0001) // =======================================================
(PID.TID 0000.0001) 
(PID.TID 0000.0001) // =======================================================
(PID.TID 0000.0001) // Field Current etaN   at iteration         24
(PID.TID 0000.0001) // CMIN =         -2.080375196807626E+00
(PID.TID 0000.0001) // CMAX =          1.288099364622860E+00
(PID.TID 0000.0001) // CINT =          1.247583170900180E-01
(PID.TID 0000.0001) // SYMBOLS (CMIN->CMAX): -abcdefghijklmnopqrstuvwxyz+
(PID.TID 0000.0001) //                  0.0: .
(PID.TID 0000.0001) // RANGE I (Lo:Hi:Step):(  -2:  93:   1)
(PID.TID 0000.0001) // RANGE J (Lo:Hi:Step):(  43:  -2:  -1)
(PID.TID 0000.0001) // RANGE K (Lo:Hi:Step):(   1:   1:   1)
(PID.TID 0000.0001) // =======================================================
(PID.TID 0000.0001) K =   1
(PID.TID 0000.0001)                I=7       I=17      I=27      I=37      I=47      I=57      I=67      I=77      I=87
(PID.TID 0000.0001) |--J--|**0123456|890123456|890123456|890123456|890123456|890123456|890123456|890123456|890123456|890123
(PID.TID 0000.0001)     43 ..............................................ccccddddddeeedddddddee..........aaaaabbbbbb.......
(PID.TID 0000.0001)     42 ..............................................cccccddd...........................aaaa...........
(PID.TID 0000.0001)     41 ................................................................................................
(PID.TID 0000.0001)     40 ................................................................................................
(PID.TID 0000.0001)     39 fgghhiijj...................................................................ffe.........fffgghhi
(PID.TID 0000.0001)     38 ghhiiij......................................................................hg........fffghhiii
(PID.TID 0000.0001)     37 jjijj........................................................................iii...mmno..mjjijj.
(PID.TID 0000.0001)     36 mljk..........................................mmnno..........................jjjj.mmmnpqqomljk..
(PID.TID 0000.0001)     35 s..nq.................................jiij.llmmmmnnoo.onopqq..................kjjkllmnopqrs..nq.
(PID.TID 0000.0001)     34 u......................................kkklllmmmmnnnnnnnnopqq..................kkllmmnpqrsu.....
(PID.TID 0000.0001)     33 vv.....................................kkkklllmmnnnnoooooppqqq...............pp.noppqqrstuvv....
(PID.TID 0000.0001)     32 v......................................lllmmnnoooppppppqqqqqqq...............qqqqqrrssttuvv.....
(PID.TID 0000.0001)     31 .......................................mnoopppqqqrrrrrrrrrrrrr.............rrsssssttttuuvw......
(PID.TID 0000.0001)     30 w.....................................pqrrrrssssssssssssssrrrr............ttuuvuuuuuuuvvvww.....
(PID.TID 0000.0001)     29 w.................................uutttuuuttttttttttttssssssrrqp.........vuvvvvvuuuvvvvvwww.....
(PID.TID 0000.0001)     28 .................................uuvvuuuuuuuuuuttttttttsssssrrqq......st.vvvuuuuuuuuuvvvvv......
(PID.TID 0000.0001)     27 ..................................vvuuuuuuuuuuutttttttttsssrrrqqpp...sstvvvvuuuuuuuuuuuuu.......
(PID.TID 0000.0001)     26 ..................sss....s.....vywvuuuuuuttuuttttttttttssssrrrqqppp..r.uvvuuuuuuuttttuuuu.......
(PID.TID 0000.0001)     25 ................sssss..tttt...vy+.vvuttttttttttttttttsssssrrrqqqpppp....vuuuvuuuttttttttt.......
(PID.TID 0000.0001)     24 ...............sssssss.tttt...wwt.uwvtttttttttttttssssssrrrrqqqqqpppoon.uut.uuuttttttttss.......
(PID.TID 0000.0001)     23 ................ssssssstttt.uwtrooquvuttttttttttssssssssrrrrqqqqqpppoono......utttttssssss......
(PID.TID 0000.0001)     22 sssss..........sssssstttttt..xx..syxvtsssssssssssssssssrrrrrqqqppppoooooo.......tttssssssssssss.
(PID.TID 0000.0001)     21 rrsss.........sssssstttttuuu.....xyvutsssrrrrrrrssrsrrrrrrrqqqqpppoooonnn........tsssssssrrrsss.
(PID.TID 0000.0001)     20 rrrrrs.......tsssssttttttuuu.......u...rrrrrrrssssssrrrrrrrrqqqqpppooooo............ssrrrrrrrrrs
(PID.TID 0000.0001)     19 rrrrrr.......tttttttttttuuuuuv.vvutuu...qqrrrssssssssssrrrrrrqqqqppppoooo...........srrrrrrrrrrr
(PID.TID 0000.0001)     18 rrrrrr.......uttttttuuuuuuuuuuuvvuu....qqqqrrrrssssssrrrrrrrrqqqqppppppooo..........ssrrrrrrrrrr
(PID.TID 0000.0001)     17 rrrrrr.......v..vuuuuuuuuuuuuuuuvv......qqqqrrrrrssrrrrrrrrrrrqqqqqppppppo..........ssrrrrrrrrrr
(PID.TID 0000.0001)     16 rrrrrr......yw.xvuuuuuuuuuutuuuu........qrqqqrrrrrrrrrrrrrrrrrqqqqqqqppppoo........utsrrrrrrrrrr
(PID.TID 0000.0001)     15 sssssr......yw.wvuuuttttttttttt..........rrqrrrrrrrrrrrrrrrrrqqqqrqqqqqpppo.......utssrrrrsssssr
(PID.TID 0000.0001)     14 ssssssr....zxwwvvutttsstsssssss...........srrrrrrrrqqqqqqqqrqqqrrrrqqqqpppo......uttsssrssssssss
(PID.TID 0000.0001)     13 sttttsr...xxxwwvvuttsssssssrrrr..........ssrsssrrrqqqqqppqqqqqqqqrrrqqqppoo.....tttsssrsssstttts
(PID.TID 0000.0001)     12 ssttssssuvwwwwwvvuttttttssssrrqq.qqqp....qrrssssrqqpppppppppppppqqqqqpppoon....qrssrrrqrrsssttss
(PID.TID 0000.0001)     11 ssssrsssttssstttttsssssssssrrrqppqqpppooppqrrs.srrqpppppppoooppppqqppoooon....mpqqppppppqrssssrs
(PID.TID 0000.0001)     10 pqqqqqqqqponnnnmnooopqqrrqqqqqqqqqqppppppqqqr.oqrrqqppoooppppopppqqpoonnnn...klnoonnmmmmnopqqqqq
(PID.TID 0000.0001)      9 klnnnnmmmlkkjjkjjiiiklnoponmmnnnoopppooppqppqoopqqqqppppopppppppqqrqpponnn...ijlmmlkjiijjkklnnnn
(PID.TID 0000.0001)      8 hikkkjjiiihhhhiiihhhhijkllkjjjjkllmmmllmmllllmlmmmmmlllllllmmmnnoppponmlkl..ihijkjjigggghhhikkkj
(PID.TID 0000.0001)      7 ffgggffggggggggggggggfghiiiiiiijjjjjjiihhiijkkkkkkkjihhhhiijklmnooonnmlkjjiifeffggggfeeeffffgggf
(PID.TID 0000.0001)      6 dddeeeeffffffffffffffffghhghhhhhhhhhhhhggfghhhihhhhgfeeeffghijkkkkkjjiihhhhghhgfeededddddddddeee
(PID.TID 0000.0001)      5 cddddddeeeeedeeeeefffffffeee.ffffgggggggggfffeeeeeeeeedeefffgghhhhhggggfffggg.accccccccccccddddd
(PID.TID 0000.0001)      4 cccccccdddd.d..............................dccdddddddeeeeffffffffffffgfffff...-aabbccccccccccccc
(PID.TID 0000.0001)      3 ..............................................ccccddddddeeedddddddee..........aaaaabbbbbb.......
(PID.TID 0000.0001)      2 ..............................................cccccddd...........................aaaa...........
(PID.TID 0000.0001)      1 ................................................................................................
(PID.TID 0000.0001)      0 ................................................................................................
(PID.TID 0000.0001)     -1 fgghhiijj...................................................................ffe.........fffgghhi
(PID.TID 0000.0001)     -2 ghhiiij......................................................................hg........fffghhiii
(PID.TID 0000.0001) // =======================================================
(PID.TID 0000.0001) // END OF FIELD                                          =
(PID.TID 0000.0001) // =======================================================
(PID.TID 0000.0001) 
 cg2d: Sum(rhs),rhsMax =   6.24722495956576E-13  8.53982590734798E+00
(PID.TID 0000.0001)                    cg2d_init_res =    6.99279095335685E-01
(PID.TID 0000.0001)                       cg2d_iters =    39
(PID.TID 0000.0001)                         cg2d_res =    4.89562011673362E-14
(PID.TID 0000.0001) // =======================================================
(PID.TID 0000.0001) // Begin MONITOR dynamic field statistics
(PID.TID 0000.0001) // =======================================================
(PID.TID 0000.0001) %MON time_tsnumber                =                    25
(PID.TID 0000.0001) %MON time_secondsf                =   2.7000000000000E+06
(PID.TID 0000.0001) %MON time_secondsi                =               2700000
(PID.TID 0000.0001) %MON dynstat_eta_max              =   1.1662488047390E+00
(PID.TID 0000.0001) %MON dynstat_eta_min              =  -2.0995908673860E+00
(PID.TID 0000.0001) %MON dynstat_eta_mean             =  -5.3728448500111E-16
(PID.TID 0000.0001) %MON dynstat_eta_sd               =   5.7644293492285E-01
(PID.TID 0000.0001) %MON dynstat_eta_del2             =   2.5656654156653E-02
(PID.TID 0000.0001) %MON dynstat_uvel_max             =   2.4446717309183E-01
(PID.TID 0000.0001) %MON dynstat_uvel_min             =  -4.3545181637572E-01
(PID.TID 0000.0001) %MON dynstat_uvel_mean            =  -3.5634428621769E-03
(PID.TID 0000.0001) %MON dynstat_uvel_sd              =   2.0675164283664E-02
(PID.TID 0000.0001) %MON dynstat_uvel_del2            =   3.3871228238193E-03
(PID.TID 0000.0001) %MON dynstat_vvel_max             =   3.7511606162919E-01
(PID.TID 0000.0001) %MON dynstat_vvel_min             =  -5.1688236873416E-01
(PID.TID 0000.0001) %MON dynstat_vvel_mean            =  -4.9205544556459E-05
(PID.TID 0000.0001) %MON dynstat_vvel_sd              =   2.0004140669573E-02
(PID.TID 0000.0001) %MON dynstat_vvel_del2            =   4.0697505405507E-03
(PID.TID 0000.0001) %MON dynstat_wvel_max             =   1.2053351277536E-03
(PID.TID 0000.0001) %MON dynstat_wvel_min             =  -5.9203944999457E-04
(PID.TID 0000.0001) %MON dynstat_wvel_mean            =   2.5997808705913E-22
(PID.TID 0000.0001) %MON dynstat_wvel_sd              =   4.9996493436260E-05
(PID.TID 0000.0001) %MON dynstat_wvel_del2            =   1.0185568918309E-05
(PID.TID 0000.0001) %MON dynstat_theta_max            =   3.0057105110052E+01
(PID.TID 0000.0001) %MON dynstat_theta_min            =  -3.5526776725557E+00
(PID.TID 0000.0001) %MON dynstat_theta_mean           =   3.3991501129898E+00
(PID.TID 0000.0001) %MON dynstat_theta_sd             =   4.1448561799785E+00
(PID.TID 0000.0001) %MON dynstat_theta_del2           =   1.4777874693822E-01
(PID.TID 0000.0001) %MON dynstat_salt_max             =   3.7410419246920E+01
(PID.TID 0000.0001) %MON dynstat_salt_min             =   3.1048504058094E+01
(PID.TID 0000.0001) %MON dynstat_salt_mean            =   3.4715592348944E+01
(PID.TID 0000.0001) %MON dynstat_salt_sd              =   2.8020339323074E-01
(PID.TID 0000.0001) %MON dynstat_salt_del2            =   2.5395921423961E-02
(PID.TID 0000.0001) %MON advcfl_uvel_max              =   1.0633413968600E-01
(PID.TID 0000.0001) %MON advcfl_vvel_max              =   1.2552744306063E-01
(PID.TID 0000.0001) %MON advcfl_wvel_max              =   4.9030572567275E-01
(PID.TID 0000.0001) %MON advcfl_W_hf_max              =   6.0326383969676E-01
(PID.TID 0000.0001) %MON ke_max                       =   7.6517450213735E-02
(PID.TID 0000.0001) %MON ke_mean                      =   5.3379343183342E-04
(PID.TID 0000.0001) %MON ke_volint                    =   5.5310023220681E+14
(PID.TID 0000.0001) %MON ke_volmean                   =   3.8212070241097E-04
(PID.TID 0000.0001) // =======================================================
(PID.TID 0000.0001) // End MONITOR dynamic field statistics
(PID.TID 0000.0001) // =======================================================
 cg2d: Sum(rhs),rhsMax =   2.38253861084559E-13  8.28140259113398E+00
(PID.TID 0000.0001)                    cg2d_init_res =    7.00866141795469E-01
(PID.TID 0000.0001)                       cg2d_iters =    39
(PID.TID 0000.0001)                         cg2d_res =    4.95741856603842E-14
(PID.TID 0000.0001) // =======================================================
(PID.TID 0000.0001) // Begin MONITOR dynamic field statistics
(PID.TID 0000.0001) // =======================================================
(PID.TID 0000.0001) %MON time_tsnumber                =                    26
(PID.TID 0000.0001) %MON time_secondsf                =   2.8080000000000E+06
(PID.TID 0000.0001) %MON time_secondsi                =               2808000
(PID.TID 0000.0001) %MON dynstat_eta_max              =   1.0692997728291E+00
(PID.TID 0000.0001) %MON dynstat_eta_min              =  -2.0873199308388E+00
(PID.TID 0000.0001) %MON dynstat_eta_mean             =  -6.2640957558830E-16
(PID.TID 0000.0001) %MON dynstat_eta_sd               =   5.7737406502546E-01
(PID.TID 0000.0001) %MON dynstat_eta_del2             =   2.5514800091684E-02
(PID.TID 0000.0001) %MON dynstat_uvel_max             =   2.4587308984054E-01
(PID.TID 0000.0001) %MON dynstat_uvel_min             =  -4.3505946553028E-01
(PID.TID 0000.0001) %MON dynstat_uvel_mean            =  -3.7222722756252E-03
(PID.TID 0000.0001) %MON dynstat_uvel_sd              =   2.0986049501671E-02
(PID.TID 0000.0001) %MON dynstat_uvel_del2            =   3.4694571037584E-03
(PID.TID 0000.0001) %MON dynstat_vvel_max             =   3.5129799249614E-01
(PID.TID 0000.0001) %MON dynstat_vvel_min             =  -5.2376981403976E-01
(PID.TID 0000.0001) %MON dynstat_vvel_mean            =  -8.9591634331188E-04
(PID.TID 0000.0001) %MON dynstat_vvel_sd              =   2.0503346413029E-02
(PID.TID 0000.0001) %MON dynstat_vvel_del2            =   4.1069430162352E-03
(PID.TID 0000.0001) %MON dynstat_wvel_max             =   1.1763480095865E-03
(PID.TID 0000.0001) %MON dynstat_wvel_min             =  -6.3170646996773E-04
(PID.TID 0000.0001) %MON dynstat_wvel_mean            =   2.4999528607135E-22
(PID.TID 0000.0001) %MON dynstat_wvel_sd              =   5.0186386675679E-05
(PID.TID 0000.0001) %MON dynstat_wvel_del2            =   1.0157698769647E-05
(PID.TID 0000.0001) %MON dynstat_theta_max            =   3.0468862997982E+01
(PID.TID 0000.0001) %MON dynstat_theta_min            =  -3.6205042582064E+00
(PID.TID 0000.0001) %MON dynstat_theta_mean           =   3.3989079838931E+00
(PID.TID 0000.0001) %MON dynstat_theta_sd             =   4.1437316345876E+00
(PID.TID 0000.0001) %MON dynstat_theta_del2           =   1.4720621701762E-01
(PID.TID 0000.0001) %MON dynstat_salt_max             =   3.7410449689352E+01
(PID.TID 0000.0001) %MON dynstat_salt_min             =   3.1074036746348E+01
(PID.TID 0000.0001) %MON dynstat_salt_mean            =   3.4715558639949E+01
(PID.TID 0000.0001) %MON dynstat_salt_sd              =   2.8022325670815E-01
(PID.TID 0000.0001) %MON dynstat_salt_del2            =   2.5307789175174E-02
(PID.TID 0000.0001) %MON advcfl_uvel_max              =   1.0623833048729E-01
(PID.TID 0000.0001) %MON advcfl_vvel_max              =   1.2720009326254E-01
(PID.TID 0000.0001) %MON advcfl_wvel_max              =   5.1673299194771E-01
(PID.TID 0000.0001) %MON advcfl_W_hf_max              =   5.9161204567182E-01
(PID.TID 0000.0001) %MON ke_max                       =   7.8099129856185E-02
(PID.TID 0000.0001) %MON ke_mean                      =   5.6938189234646E-04
(PID.TID 0000.0001) %MON ke_volint                    =   5.7617705242470E+14
(PID.TID 0000.0001) %MON ke_volmean                   =   3.9806379958865E-04
(PID.TID 0000.0001) // =======================================================
(PID.TID 0000.0001) // End MONITOR dynamic field statistics
(PID.TID 0000.0001) // =======================================================
(PID.TID 0000.0001)   Seconds in section "ALL                [THE_MODEL_MAIN]":
(PID.TID 0000.0001)           User time:  42.1499998
(PID.TID 0000.0001)         System time:  0.479999989
(PID.TID 0000.0001)     Wall clock time:  42.691007
(PID.TID 0000.0001)          No. starts: 1
(PID.TID 0000.0001)           No. stops: 1
(PID.TID 0000.0001)   Seconds in section "INITIALISE_FIXED   [THE_MODEL_MAIN]":
(PID.TID 0000.0001)           User time:  0.429999998
(PID.TID 0000.0001)         System time:  0.0900000036
(PID.TID 0000.0001)     Wall clock time:  0.556998014
(PID.TID 0000.0001)          No. starts: 1
(PID.TID 0000.0001)           No. stops: 1
(PID.TID 0000.0001)   Seconds in section "THE_MAIN_LOOP      [THE_MODEL_MAIN]":
(PID.TID 0000.0001)           User time:  40.8900018
(PID.TID 0000.0001)         System time:  0.25999999
(PID.TID 0000.0001)     Wall clock time:  41.175357
(PID.TID 0000.0001)          No. starts: 1
(PID.TID 0000.0001)           No. stops: 1
(PID.TID 0000.0001)   Seconds in section "INITIALISE_VARIA    [THE_MAIN_LOOP]":
(PID.TID 0000.0001)           User time:  0.300000012
(PID.TID 0000.0001)         System time:  0.0900000036
(PID.TID 0000.0001)     Wall clock time:  0.409085989
(PID.TID 0000.0001)          No. starts: 1
(PID.TID 0000.0001)           No. stops: 1
(PID.TID 0000.0001)   Seconds in section "WRITE_STATE         [THE_MAIN_LOOP]":
(PID.TID 0000.0001)           User time:  0.139999986
(PID.TID 0000.0001)         System time:  0.00999999046
(PID.TID 0000.0001)     Wall clock time:  0.157165051
(PID.TID 0000.0001)          No. starts: 1
(PID.TID 0000.0001)           No. stops: 1
(PID.TID 0000.0001)   Seconds in section "MONITOR             [THE_MAIN_LOOP]":
(PID.TID 0000.0001)           User time:  0.230000019
(PID.TID 0000.0001)         System time:  0.
(PID.TID 0000.0001)     Wall clock time:  0.221236944
(PID.TID 0000.0001)          No. starts: 1
(PID.TID 0000.0001)           No. stops: 1
(PID.TID 0000.0001)   Seconds in section "MAIN LOOP           [THE_MAIN_LOOP]":
(PID.TID 0000.0001)           User time:  40.2200018
(PID.TID 0000.0001)         System time:  0.159999996
(PID.TID 0000.0001)     Wall clock time:  40.3874071
(PID.TID 0000.0001)          No. starts: 1
(PID.TID 0000.0001)           No. stops: 1
(PID.TID 0000.0001)   Seconds in section "FORWARD_STEP        [THE_MAIN_LOOP]":
(PID.TID 0000.0001)           User time:  40.2100016
(PID.TID 0000.0001)         System time:  0.159999996
(PID.TID 0000.0001)     Wall clock time:  40.3850567
(PID.TID 0000.0001)          No. starts: 26
(PID.TID 0000.0001)           No. stops: 26
(PID.TID 0000.0001)   Seconds in section "EXTERNAL_FIELDS_LOAD[THE_MAIN_LOOP]":
(PID.TID 0000.0001)           User time:  0.0100002289
(PID.TID 0000.0001)         System time:  0.
(PID.TID 0000.0001)     Wall clock time:  0.00227975845
(PID.TID 0000.0001)          No. starts: 26
(PID.TID 0000.0001)           No. stops: 26
(PID.TID 0000.0001)   Seconds in section "THERMODYNAMICS      [THE_MAIN_LOOP]":
(PID.TID 0000.0001)           User time:  10.0699962
(PID.TID 0000.0001)         System time:  0.0300000012
(PID.TID 0000.0001)     Wall clock time:  10.0773498
(PID.TID 0000.0001)          No. starts: 26
(PID.TID 0000.0001)           No. stops: 26
(PID.TID 0000.0001)   Seconds in section "DYNAMICS            [THE_MAIN_LOOP]":
(PID.TID 0000.0001)           User time:  19.1200018
(PID.TID 0000.0001)         System time:  0.0600000024
(PID.TID 0000.0001)     Wall clock time:  19.198249
(PID.TID 0000.0001)          No. starts: 26
(PID.TID 0000.0001)           No. stops: 26
(PID.TID 0000.0001)   Seconds in section "SOLVE_FOR_PRESSURE  [THE_MAIN_LOOP]":
(PID.TID 0000.0001)           User time:  3.30000067
(PID.TID 0000.0001)         System time:  0.
(PID.TID 0000.0001)     Wall clock time:  3.31531394
(PID.TID 0000.0001)          No. starts: 26
(PID.TID 0000.0001)           No. stops: 26
(PID.TID 0000.0001)   Seconds in section "THE_CORRECTION_STEP [THE_MAIN_LOOP]":
(PID.TID 0000.0001)           User time:  1.85999799
(PID.TID 0000.0001)         System time:  0.00999999046
(PID.TID 0000.0001)     Wall clock time:  1.85504341
(PID.TID 0000.0001)          No. starts: 26
(PID.TID 0000.0001)           No. stops: 26
(PID.TID 0000.0001)   Seconds in section "BLOCKING_EXCHANGES  [THE_MAIN_LOOP]":
(PID.TID 0000.0001)           User time:  0.36999774
(PID.TID 0000.0001)         System time:  0.
(PID.TID 0000.0001)     Wall clock time:  0.380165696
(PID.TID 0000.0001)          No. starts: 26
(PID.TID 0000.0001)           No. stops: 26
(PID.TID 0000.0001)   Seconds in section "DO_THE_MODEL_IO     [THE_MAIN_LOOP]":
(PID.TID 0000.0001)           User time:  0.280002594
(PID.TID 0000.0001)         System time:  0.0499999821
(PID.TID 0000.0001)     Wall clock time:  0.343533993
(PID.TID 0000.0001)          No. starts: 26
(PID.TID 0000.0001)           No. stops: 26
(PID.TID 0000.0001)   Seconds in section "WRITE_CHECKPOINT    [THE_MAIN_LOOP]":
(PID.TID 0000.0001)           User time:  0.
(PID.TID 0000.0001)         System time:  0.
(PID.TID 0000.0001)     Wall clock time:  0.00228118896
(PID.TID 0000.0001)          No. starts: 26
(PID.TID 0000.0001)           No. stops: 26
(PID.TID 0000.0001)   Seconds in section "WRITE_CHECKPOINT   [THE_MODEL_MAIN]":
(PID.TID 0000.0001)           User time:  0.829998016
(PID.TID 0000.0001)         System time:  0.129999995
(PID.TID 0000.0001)     Wall clock time:  0.958233953
(PID.TID 0000.0001)          No. starts: 1
(PID.TID 0000.0001)           No. stops: 1
(PID.TID 0000.0001) // ======================================================
(PID.TID 0000.0001) // Tile <-> Tile communication statistics
(PID.TID 0000.0001) // ======================================================
(PID.TID 0000.0001) // o Tile number: 000001
(PID.TID 0000.0001) //         No. X exchanges =              0
(PID.TID 0000.0001) //            Max. X spins =              0
(PID.TID 0000.0001) //            Min. X spins =     1000000000
(PID.TID 0000.0001) //          Total. X spins =              0
(PID.TID 0000.0001) //            Avg. X spins =       0.00E+00
(PID.TID 0000.0001) //         No. Y exchanges =              0
(PID.TID 0000.0001) //            Max. Y spins =              0
(PID.TID 0000.0001) //            Min. Y spins =     1000000000
(PID.TID 0000.0001) //          Total. Y spins =              0
(PID.TID 0000.0001) //            Avg. Y spins =       0.00E+00
(PID.TID 0000.0001) // o Thread number: 000001
(PID.TID 0000.0001) //            No. barriers =          19316
(PID.TID 0000.0001) //      Max. barrier spins =              1
(PID.TID 0000.0001) //      Min. barrier spins =              1
(PID.TID 0000.0001) //     Total barrier spins =          19316
(PID.TID 0000.0001) //      Avg. barrier spins =       1.00E+00
