(PID.TID 0000.0001) 
(PID.TID 0000.0001) // ======================================================
(PID.TID 0000.0001) //                      MITgcm UV
(PID.TID 0000.0001) //                      =========
(PID.TID 0000.0001) // ======================================================
(PID.TID 0000.0001) // execution environment starting up...
(PID.TID 0000.0001) 
(PID.TID 0000.0001) // MITgcmUV version:  checkpoint61l
(PID.TID 0000.0001) // Build user:        jmc
(PID.TID 0000.0001) // Build host:        faulks
(PID.TID 0000.0001) // Build date:        Sat Apr 18 16:36:00 EDT 2009
(PID.TID 0000.0001) 
(PID.TID 0000.0001) // =======================================================
(PID.TID 0000.0001) // Execution Environment parameter file "eedata"
(PID.TID 0000.0001) // =======================================================
(PID.TID 0000.0001) ># Example "eedata" file
(PID.TID 0000.0001) ># Lines beginning "#" are comments
(PID.TID 0000.0001) ># nTx - No. threads per process in X
(PID.TID 0000.0001) ># nTy - No. threads per process in Y
(PID.TID 0000.0001) > &EEPARMS
(PID.TID 0000.0001) > useCubedSphereExchange=.TRUE.,
(PID.TID 0000.0001) > &
(PID.TID 0000.0001) ># Note: Some systems use & as the
(PID.TID 0000.0001) ># namelist terminator. Other systems
(PID.TID 0000.0001) ># use a / character (as shown here).
(PID.TID 0000.0001) 
(PID.TID 0000.0001) // =======================================================
(PID.TID 0000.0001) // Computational Grid Specification ( see files "SIZE.h" )
(PID.TID 0000.0001) //                                  ( and "eedata"       )
(PID.TID 0000.0001) // =======================================================
(PID.TID 0000.0001)      nPx =    1 ; /* No. processes in X */
(PID.TID 0000.0001)      nPy =    1 ; /* No. processes in Y */
(PID.TID 0000.0001)      nSx =   48 ; /* No. tiles in X per process */
(PID.TID 0000.0001)      nSy =    1 ; /* No. tiles in Y per process */
(PID.TID 0000.0001)      sNx =   16 ; /* Tile size in X */
(PID.TID 0000.0001)      sNy =    8 ; /* Tile size in Y */
(PID.TID 0000.0001)      OLx =    2 ; /* Tile overlap distance in X */
(PID.TID 0000.0001)      OLy =    2 ; /* Tile overlap distance in Y */
(PID.TID 0000.0001)      nTx =    1 ; /* No. threads in X per process */
(PID.TID 0000.0001)      nTy =    1 ; /* No. threads in Y per process */
(PID.TID 0000.0001)       Nr =    1 ; /* No. levels in the vertical   */
(PID.TID 0000.0001)       nX =  768 ; /* Total domain size in X ( = nPx*nSx*sNx ) */
(PID.TID 0000.0001)       nY =    8 ; /* Total domain size in Y ( = nPy*nSy*sNy ) */
(PID.TID 0000.0001)   nTiles =   48 ; /* Total no. tiles per process ( = nSx*nSy ) */
(PID.TID 0000.0001)   nProcs =    1 ; /* Total no. processes ( = nPx*nPy ) */
(PID.TID 0000.0001) nThreads =    1 ; /* Total no. threads per process ( = nTx*nTy ) */
(PID.TID 0000.0001) usingMPI =    F ; /* Flag used to control whether MPI is in use */
(PID.TID 0000.0001)                   /*  note: To execute a program with MPI calls */
(PID.TID 0000.0001)                   /*  it must be launched appropriately e.g     */
(PID.TID 0000.0001)                   /*  "mpirun -np 64 ......"                    */
(PID.TID 0000.0001) useCoupler=   F ; /* Flag used to control communications with */
(PID.TID 0000.0001)                   /*  other model components, through a coupler */
(PID.TID 0000.0001) 
(PID.TID 0000.0001) // ======================================================
(PID.TID 0000.0001) // Mapping of tiles to threads
(PID.TID 0000.0001) // ======================================================
(PID.TID 0000.0001) // -o- Thread   1, tiles (   1:  48,   1:   1)
(PID.TID 0000.0001) 
(PID.TID 0000.0001) ===== W2 TILE TOPLOGY =====
(PID.TID 0000.0001)  TILE:    1
(PID.TID 0000.0001)       NEIGHBOUR    1 = TILE    3 Comm = PUT ( PROC =    1)
(PID.TID 0000.0001)       NEIGHBOUR    2 = TILE   47 Comm = PUT ( PROC =    1)
(PID.TID 0000.0001)       NEIGHBOUR    3 = TILE    2 Comm = PUT ( PROC =    1)
(PID.TID 0000.0001)       NEIGHBOUR    4 = TILE   40 Comm = PUT ( PROC =    1)
(PID.TID 0000.0001)  TILE:    2
(PID.TID 0000.0001)       NEIGHBOUR    1 = TILE    4 Comm = PUT ( PROC =    1)
(PID.TID 0000.0001)       NEIGHBOUR    2 = TILE   48 Comm = PUT ( PROC =    1)
(PID.TID 0000.0001)       NEIGHBOUR    3 = TILE    9 Comm = PUT ( PROC =    1)
(PID.TID 0000.0001)       NEIGHBOUR    4 = TILE    1 Comm = PUT ( PROC =    1)
(PID.TID 0000.0001)  TILE:    3
(PID.TID 0000.0001)       NEIGHBOUR    1 = TILE    5 Comm = PUT ( PROC =    1)
(PID.TID 0000.0001)       NEIGHBOUR    2 = TILE    1 Comm = PUT ( PROC =    1)
(PID.TID 0000.0001)       NEIGHBOUR    3 = TILE    4 Comm = PUT ( PROC =    1)
(PID.TID 0000.0001)       NEIGHBOUR    4 = TILE   40 Comm = PUT ( PROC =    1)
(PID.TID 0000.0001)  TILE:    4
(PID.TID 0000.0001)       NEIGHBOUR    1 = TILE    6 Comm = PUT ( PROC =    1)
(PID.TID 0000.0001)       NEIGHBOUR    2 = TILE    2 Comm = PUT ( PROC =    1)
(PID.TID 0000.0001)       NEIGHBOUR    3 = TILE   11 Comm = PUT ( PROC =    1)
(PID.TID 0000.0001)       NEIGHBOUR    4 = TILE    3 Comm = PUT ( PROC =    1)
(PID.TID 0000.0001)  TILE:    5
(PID.TID 0000.0001)       NEIGHBOUR    1 = TILE    7 Comm = PUT ( PROC =    1)
(PID.TID 0000.0001)       NEIGHBOUR    2 = TILE    3 Comm = PUT ( PROC =    1)
(PID.TID 0000.0001)       NEIGHBOUR    3 = TILE    6 Comm = PUT ( PROC =    1)
(PID.TID 0000.0001)       NEIGHBOUR    4 = TILE   39 Comm = PUT ( PROC =    1)
(PID.TID 0000.0001)  TILE:    6
(PID.TID 0000.0001)       NEIGHBOUR    1 = TILE    8 Comm = PUT ( PROC =    1)
(PID.TID 0000.0001)       NEIGHBOUR    2 = TILE    4 Comm = PUT ( PROC =    1)
(PID.TID 0000.0001)       NEIGHBOUR    3 = TILE   13 Comm = PUT ( PROC =    1)
(PID.TID 0000.0001)       NEIGHBOUR    4 = TILE    5 Comm = PUT ( PROC =    1)
(PID.TID 0000.0001)  TILE:    7
(PID.TID 0000.0001)       NEIGHBOUR    1 = TILE   21 Comm = PUT ( PROC =    1)
(PID.TID 0000.0001)       NEIGHBOUR    2 = TILE   23 Comm = PUT ( PROC =    1)
(PID.TID 0000.0001)       NEIGHBOUR    3 = TILE    5 Comm = PUT ( PROC =    1)
(PID.TID 0000.0001)       NEIGHBOUR    4 = TILE    8 Comm = PUT ( PROC =    1)
(PID.TID 0000.0001)       NEIGHBOUR    5 = TILE   39 Comm = PUT ( PROC =    1)
(PID.TID 0000.0001)  TILE:    8
(PID.TID 0000.0001)       NEIGHBOUR    1 = TILE   17 Comm = PUT ( PROC =    1)
(PID.TID 0000.0001)       NEIGHBOUR    2 = TILE   19 Comm = PUT ( PROC =    1)
(PID.TID 0000.0001)       NEIGHBOUR    3 = TILE    6 Comm = PUT ( PROC =    1)
(PID.TID 0000.0001)       NEIGHBOUR    4 = TILE   15 Comm = PUT ( PROC =    1)
(PID.TID 0000.0001)       NEIGHBOUR    5 = TILE    7 Comm = PUT ( PROC =    1)
(PID.TID 0000.0001)  TILE:    9
(PID.TID 0000.0001)       NEIGHBOUR    1 = TILE   11 Comm = PUT ( PROC =    1)
(PID.TID 0000.0001)       NEIGHBOUR    2 = TILE   46 Comm = PUT ( PROC =    1)
(PID.TID 0000.0001)       NEIGHBOUR    3 = TILE   48 Comm = PUT ( PROC =    1)
(PID.TID 0000.0001)       NEIGHBOUR    4 = TILE   10 Comm = PUT ( PROC =    1)
(PID.TID 0000.0001)       NEIGHBOUR    5 = TILE    2 Comm = PUT ( PROC =    1)
(PID.TID 0000.0001)  TILE:   10
(PID.TID 0000.0001)       NEIGHBOUR    1 = TILE   12 Comm = PUT ( PROC =    1)
(PID.TID 0000.0001)       NEIGHBOUR    2 = TILE   42 Comm = PUT ( PROC =    1)
(PID.TID 0000.0001)       NEIGHBOUR    3 = TILE   44 Comm = PUT ( PROC =    1)
(PID.TID 0000.0001)       NEIGHBOUR    4 = TILE   26 Comm = PUT ( PROC =    1)
(PID.TID 0000.0001)       NEIGHBOUR    5 = TILE    9 Comm = PUT ( PROC =    1)
(PID.TID 0000.0001)  TILE:   11
(PID.TID 0000.0001)       NEIGHBOUR    1 = TILE   13 Comm = PUT ( PROC =    1)
(PID.TID 0000.0001)       NEIGHBOUR    2 = TILE    9 Comm = PUT ( PROC =    1)
(PID.TID 0000.0001)       NEIGHBOUR    3 = TILE   12 Comm = PUT ( PROC =    1)
(PID.TID 0000.0001)       NEIGHBOUR    4 = TILE    4 Comm = PUT ( PROC =    1)
(PID.TID 0000.0001)  TILE:   12
(PID.TID 0000.0001)       NEIGHBOUR    1 = TILE   14 Comm = PUT ( PROC =    1)
(PID.TID 0000.0001)       NEIGHBOUR    2 = TILE   10 Comm = PUT ( PROC =    1)
(PID.TID 0000.0001)       NEIGHBOUR    3 = TILE   26 Comm = PUT ( PROC =    1)
(PID.TID 0000.0001)       NEIGHBOUR    4 = TILE   11 Comm = PUT ( PROC =    1)
(PID.TID 0000.0001)  TILE:   13
(PID.TID 0000.0001)       NEIGHBOUR    1 = TILE   15 Comm = PUT ( PROC =    1)
(PID.TID 0000.0001)       NEIGHBOUR    2 = TILE   11 Comm = PUT ( PROC =    1)
(PID.TID 0000.0001)       NEIGHBOUR    3 = TILE   14 Comm = PUT ( PROC =    1)
(PID.TID 0000.0001)       NEIGHBOUR    4 = TILE    6 Comm = PUT ( PROC =    1)
(PID.TID 0000.0001)  TILE:   14
(PID.TID 0000.0001)       NEIGHBOUR    1 = TILE   16 Comm = PUT ( PROC =    1)
(PID.TID 0000.0001)       NEIGHBOUR    2 = TILE   12 Comm = PUT ( PROC =    1)
(PID.TID 0000.0001)       NEIGHBOUR    3 = TILE   25 Comm = PUT ( PROC =    1)
(PID.TID 0000.0001)       NEIGHBOUR    4 = TILE   13 Comm = PUT ( PROC =    1)
(PID.TID 0000.0001)  TILE:   15
(PID.TID 0000.0001)       NEIGHBOUR    1 = TILE   17 Comm = PUT ( PROC =    1)
(PID.TID 0000.0001)       NEIGHBOUR    2 = TILE   13 Comm = PUT ( PROC =    1)
(PID.TID 0000.0001)       NEIGHBOUR    3 = TILE   16 Comm = PUT ( PROC =    1)
(PID.TID 0000.0001)       NEIGHBOUR    4 = TILE    8 Comm = PUT ( PROC =    1)
(PID.TID 0000.0001)  TILE:   16
(PID.TID 0000.0001)       NEIGHBOUR    1 = TILE   18 Comm = PUT ( PROC =    1)
(PID.TID 0000.0001)       NEIGHBOUR    2 = TILE   14 Comm = PUT ( PROC =    1)
(PID.TID 0000.0001)       NEIGHBOUR    3 = TILE   25 Comm = PUT ( PROC =    1)
(PID.TID 0000.0001)       NEIGHBOUR    4 = TILE   15 Comm = PUT ( PROC =    1)
(PID.TID 0000.0001)  TILE:   17
(PID.TID 0000.0001)       NEIGHBOUR    1 = TILE   19 Comm = PUT ( PROC =    1)
(PID.TID 0000.0001)       NEIGHBOUR    2 = TILE   15 Comm = PUT ( PROC =    1)
(PID.TID 0000.0001)       NEIGHBOUR    3 = TILE   18 Comm = PUT ( PROC =    1)
(PID.TID 0000.0001)       NEIGHBOUR    4 = TILE    8 Comm = PUT ( PROC =    1)
(PID.TID 0000.0001)  TILE:   18
(PID.TID 0000.0001)       NEIGHBOUR    1 = TILE   20 Comm = PUT ( PROC =    1)
(PID.TID 0000.0001)       NEIGHBOUR    2 = TILE   16 Comm = PUT ( PROC =    1)
(PID.TID 0000.0001)       NEIGHBOUR    3 = TILE   25 Comm = PUT ( PROC =    1)
(PID.TID 0000.0001)       NEIGHBOUR    4 = TILE   17 Comm = PUT ( PROC =    1)
(PID.TID 0000.0001)  TILE:   19
(PID.TID 0000.0001)       NEIGHBOUR    1 = TILE   21 Comm = PUT ( PROC =    1)
(PID.TID 0000.0001)       NEIGHBOUR    2 = TILE   17 Comm = PUT ( PROC =    1)
(PID.TID 0000.0001)       NEIGHBOUR    3 = TILE   20 Comm = PUT ( PROC =    1)
(PID.TID 0000.0001)       NEIGHBOUR    4 = TILE    8 Comm = PUT ( PROC =    1)
(PID.TID 0000.0001)  TILE:   20
(PID.TID 0000.0001)       NEIGHBOUR    1 = TILE   22 Comm = PUT ( PROC =    1)
(PID.TID 0000.0001)       NEIGHBOUR    2 = TILE   18 Comm = PUT ( PROC =    1)
(PID.TID 0000.0001)       NEIGHBOUR    3 = TILE   27 Comm = PUT ( PROC =    1)
(PID.TID 0000.0001)       NEIGHBOUR    4 = TILE   19 Comm = PUT ( PROC =    1)
(PID.TID 0000.0001)  TILE:   21
(PID.TID 0000.0001)       NEIGHBOUR    1 = TILE   23 Comm = PUT ( PROC =    1)
(PID.TID 0000.0001)       NEIGHBOUR    2 = TILE   19 Comm = PUT ( PROC =    1)
(PID.TID 0000.0001)       NEIGHBOUR    3 = TILE   22 Comm = PUT ( PROC =    1)
(PID.TID 0000.0001)       NEIGHBOUR    4 = TILE    7 Comm = PUT ( PROC =    1)
(PID.TID 0000.0001)  TILE:   22
(PID.TID 0000.0001)       NEIGHBOUR    1 = TILE   24 Comm = PUT ( PROC =    1)
(PID.TID 0000.0001)       NEIGHBOUR    2 = TILE   20 Comm = PUT ( PROC =    1)
(PID.TID 0000.0001)       NEIGHBOUR    3 = TILE   29 Comm = PUT ( PROC =    1)
(PID.TID 0000.0001)       NEIGHBOUR    4 = TILE   21 Comm = PUT ( PROC =    1)
(PID.TID 0000.0001)  TILE:   23
(PID.TID 0000.0001)       NEIGHBOUR    1 = TILE   37 Comm = PUT ( PROC =    1)
(PID.TID 0000.0001)       NEIGHBOUR    2 = TILE   39 Comm = PUT ( PROC =    1)
(PID.TID 0000.0001)       NEIGHBOUR    3 = TILE   21 Comm = PUT ( PROC =    1)
(PID.TID 0000.0001)       NEIGHBOUR    4 = TILE   24 Comm = PUT ( PROC =    1)
(PID.TID 0000.0001)       NEIGHBOUR    5 = TILE    7 Comm = PUT ( PROC =    1)
(PID.TID 0000.0001)  TILE:   24
(PID.TID 0000.0001)       NEIGHBOUR    1 = TILE   33 Comm = PUT ( PROC =    1)
(PID.TID 0000.0001)       NEIGHBOUR    2 = TILE   35 Comm = PUT ( PROC =    1)
(PID.TID 0000.0001)       NEIGHBOUR    3 = TILE   22 Comm = PUT ( PROC =    1)
(PID.TID 0000.0001)       NEIGHBOUR    4 = TILE   31 Comm = PUT ( PROC =    1)
(PID.TID 0000.0001)       NEIGHBOUR    5 = TILE   23 Comm = PUT ( PROC =    1)
(PID.TID 0000.0001)  TILE:   25
(PID.TID 0000.0001)       NEIGHBOUR    1 = TILE   27 Comm = PUT ( PROC =    1)
(PID.TID 0000.0001)       NEIGHBOUR    2 = TILE   14 Comm = PUT ( PROC =    1)
(PID.TID 0000.0001)       NEIGHBOUR    3 = TILE   16 Comm = PUT ( PROC =    1)
(PID.TID 0000.0001)       NEIGHBOUR    4 = TILE   26 Comm = PUT ( PROC =    1)
(PID.TID 0000.0001)       NEIGHBOUR    5 = TILE   18 Comm = PUT ( PROC =    1)
(PID.TID 0000.0001)  TILE:   26
(PID.TID 0000.0001)       NEIGHBOUR    1 = TILE   28 Comm = PUT ( PROC =    1)
(PID.TID 0000.0001)       NEIGHBOUR    2 = TILE   10 Comm = PUT ( PROC =    1)
(PID.TID 0000.0001)       NEIGHBOUR    3 = TILE   12 Comm = PUT ( PROC =    1)
(PID.TID 0000.0001)       NEIGHBOUR    4 = TILE   42 Comm = PUT ( PROC =    1)
(PID.TID 0000.0001)       NEIGHBOUR    5 = TILE   25 Comm = PUT ( PROC =    1)
(PID.TID 0000.0001)  TILE:   27
(PID.TID 0000.0001)       NEIGHBOUR    1 = TILE   29 Comm = PUT ( PROC =    1)
(PID.TID 0000.0001)       NEIGHBOUR    2 = TILE   25 Comm = PUT ( PROC =    1)
(PID.TID 0000.0001)       NEIGHBOUR    3 = TILE   28 Comm = PUT ( PROC =    1)
(PID.TID 0000.0001)       NEIGHBOUR    4 = TILE   20 Comm = PUT ( PROC =    1)
(PID.TID 0000.0001)  TILE:   28
(PID.TID 0000.0001)       NEIGHBOUR    1 = TILE   30 Comm = PUT ( PROC =    1)
(PID.TID 0000.0001)       NEIGHBOUR    2 = TILE   26 Comm = PUT ( PROC =    1)
(PID.TID 0000.0001)       NEIGHBOUR    3 = TILE   42 Comm = PUT ( PROC =    1)
(PID.TID 0000.0001)       NEIGHBOUR    4 = TILE   27 Comm = PUT ( PROC =    1)
(PID.TID 0000.0001)  TILE:   29
(PID.TID 0000.0001)       NEIGHBOUR    1 = TILE   31 Comm = PUT ( PROC =    1)
(PID.TID 0000.0001)       NEIGHBOUR    2 = TILE   27 Comm = PUT ( PROC =    1)
(PID.TID 0000.0001)       NEIGHBOUR    3 = TILE   30 Comm = PUT ( PROC =    1)
(PID.TID 0000.0001)       NEIGHBOUR    4 = TILE   22 Comm = PUT ( PROC =    1)
(PID.TID 0000.0001)  TILE:   30
(PID.TID 0000.0001)       NEIGHBOUR    1 = TILE   32 Comm = PUT ( PROC =    1)
(PID.TID 0000.0001)       NEIGHBOUR    2 = TILE   28 Comm = PUT ( PROC =    1)
(PID.TID 0000.0001)       NEIGHBOUR    3 = TILE   41 Comm = PUT ( PROC =    1)
(PID.TID 0000.0001)       NEIGHBOUR    4 = TILE   29 Comm = PUT ( PROC =    1)
(PID.TID 0000.0001)  TILE:   31
(PID.TID 0000.0001)       NEIGHBOUR    1 = TILE   33 Comm = PUT ( PROC =    1)
(PID.TID 0000.0001)       NEIGHBOUR    2 = TILE   29 Comm = PUT ( PROC =    1)
(PID.TID 0000.0001)       NEIGHBOUR    3 = TILE   32 Comm = PUT ( PROC =    1)
(PID.TID 0000.0001)       NEIGHBOUR    4 = TILE   24 Comm = PUT ( PROC =    1)
(PID.TID 0000.0001)  TILE:   32
(PID.TID 0000.0001)       NEIGHBOUR    1 = TILE   34 Comm = PUT ( PROC =    1)
(PID.TID 0000.0001)       NEIGHBOUR    2 = TILE   30 Comm = PUT ( PROC =    1)
(PID.TID 0000.0001)       NEIGHBOUR    3 = TILE   41 Comm = PUT ( PROC =    1)
(PID.TID 0000.0001)       NEIGHBOUR    4 = TILE   31 Comm = PUT ( PROC =    1)
(PID.TID 0000.0001)  TILE:   33
(PID.TID 0000.0001)       NEIGHBOUR    1 = TILE   35 Comm = PUT ( PROC =    1)
(PID.TID 0000.0001)       NEIGHBOUR    2 = TILE   31 Comm = PUT ( PROC =    1)
(PID.TID 0000.0001)       NEIGHBOUR    3 = TILE   34 Comm = PUT ( PROC =    1)
(PID.TID 0000.0001)       NEIGHBOUR    4 = TILE   24 Comm = PUT ( PROC =    1)
(PID.TID 0000.0001)  TILE:   34
(PID.TID 0000.0001)       NEIGHBOUR    1 = TILE   36 Comm = PUT ( PROC =    1)
(PID.TID 0000.0001)       NEIGHBOUR    2 = TILE   32 Comm = PUT ( PROC =    1)
(PID.TID 0000.0001)       NEIGHBOUR    3 = TILE   41 Comm = PUT ( PROC =    1)
(PID.TID 0000.0001)       NEIGHBOUR    4 = TILE   33 Comm = PUT ( PROC =    1)
(PID.TID 0000.0001)  TILE:   35
(PID.TID 0000.0001)       NEIGHBOUR    1 = TILE   37 Comm = PUT ( PROC =    1)
(PID.TID 0000.0001)       NEIGHBOUR    2 = TILE   33 Comm = PUT ( PROC =    1)
(PID.TID 0000.0001)       NEIGHBOUR    3 = TILE   36 Comm = PUT ( PROC =    1)
(PID.TID 0000.0001)       NEIGHBOUR    4 = TILE   24 Comm = PUT ( PROC =    1)
(PID.TID 0000.0001)  TILE:   36
(PID.TID 0000.0001)       NEIGHBOUR    1 = TILE   38 Comm = PUT ( PROC =    1)
(PID.TID 0000.0001)       NEIGHBOUR    2 = TILE   34 Comm = PUT ( PROC =    1)
(PID.TID 0000.0001)       NEIGHBOUR    3 = TILE   43 Comm = PUT ( PROC =    1)
(PID.TID 0000.0001)       NEIGHBOUR    4 = TILE   35 Comm = PUT ( PROC =    1)
(PID.TID 0000.0001)  TILE:   37
(PID.TID 0000.0001)       NEIGHBOUR    1 = TILE   39 Comm = PUT ( PROC =    1)
(PID.TID 0000.0001)       NEIGHBOUR    2 = TILE   35 Comm = PUT ( PROC =    1)
(PID.TID 0000.0001)       NEIGHBOUR    3 = TILE   38 Comm = PUT ( PROC =    1)
(PID.TID 0000.0001)       NEIGHBOUR    4 = TILE   23 Comm = PUT ( PROC =    1)
(PID.TID 0000.0001)  TILE:   38
(PID.TID 0000.0001)       NEIGHBOUR    1 = TILE   40 Comm = PUT ( PROC =    1)
(PID.TID 0000.0001)       NEIGHBOUR    2 = TILE   36 Comm = PUT ( PROC =    1)
(PID.TID 0000.0001)       NEIGHBOUR    3 = TILE   45 Comm = PUT ( PROC =    1)
(PID.TID 0000.0001)       NEIGHBOUR    4 = TILE   37 Comm = PUT ( PROC =    1)
(PID.TID 0000.0001)  TILE:   39
(PID.TID 0000.0001)       NEIGHBOUR    1 = TILE    5 Comm = PUT ( PROC =    1)
(PID.TID 0000.0001)       NEIGHBOUR    2 = TILE    7 Comm = PUT ( PROC =    1)
(PID.TID 0000.0001)       NEIGHBOUR    3 = TILE   37 Comm = PUT ( PROC =    1)
(PID.TID 0000.0001)       NEIGHBOUR    4 = TILE   40 Comm = PUT ( PROC =    1)
(PID.TID 0000.0001)       NEIGHBOUR    5 = TILE   23 Comm = PUT ( PROC =    1)
(PID.TID 0000.0001)  TILE:   40
(PID.TID 0000.0001)       NEIGHBOUR    1 = TILE    1 Comm = PUT ( PROC =    1)
(PID.TID 0000.0001)       NEIGHBOUR    2 = TILE    3 Comm = PUT ( PROC =    1)
(PID.TID 0000.0001)       NEIGHBOUR    3 = TILE   38 Comm = PUT ( PROC =    1)
(PID.TID 0000.0001)       NEIGHBOUR    4 = TILE   47 Comm = PUT ( PROC =    1)
(PID.TID 0000.0001)       NEIGHBOUR    5 = TILE   39 Comm = PUT ( PROC =    1)
(PID.TID 0000.0001)  TILE:   41
(PID.TID 0000.0001)       NEIGHBOUR    1 = TILE   43 Comm = PUT ( PROC =    1)
(PID.TID 0000.0001)       NEIGHBOUR    2 = TILE   30 Comm = PUT ( PROC =    1)
(PID.TID 0000.0001)       NEIGHBOUR    3 = TILE   32 Comm = PUT ( PROC =    1)
(PID.TID 0000.0001)       NEIGHBOUR    4 = TILE   42 Comm = PUT ( PROC =    1)
(PID.TID 0000.0001)       NEIGHBOUR    5 = TILE   34 Comm = PUT ( PROC =    1)
(PID.TID 0000.0001)  TILE:   42
(PID.TID 0000.0001)       NEIGHBOUR    1 = TILE   44 Comm = PUT ( PROC =    1)
(PID.TID 0000.0001)       NEIGHBOUR    2 = TILE   26 Comm = PUT ( PROC =    1)
(PID.TID 0000.0001)       NEIGHBOUR    3 = TILE   28 Comm = PUT ( PROC =    1)
(PID.TID 0000.0001)       NEIGHBOUR    4 = TILE   10 Comm = PUT ( PROC =    1)
(PID.TID 0000.0001)       NEIGHBOUR    5 = TILE   41 Comm = PUT ( PROC =    1)
(PID.TID 0000.0001)  TILE:   43
(PID.TID 0000.0001)       NEIGHBOUR    1 = TILE   45 Comm = PUT ( PROC =    1)
(PID.TID 0000.0001)       NEIGHBOUR    2 = TILE   41 Comm = PUT ( PROC =    1)
(PID.TID 0000.0001)       NEIGHBOUR    3 = TILE   44 Comm = PUT ( PROC =    1)
(PID.TID 0000.0001)       NEIGHBOUR    4 = TILE   36 Comm = PUT ( PROC =    1)
(PID.TID 0000.0001)  TILE:   44
(PID.TID 0000.0001)       NEIGHBOUR    1 = TILE   46 Comm = PUT ( PROC =    1)
(PID.TID 0000.0001)       NEIGHBOUR    2 = TILE   42 Comm = PUT ( PROC =    1)
(PID.TID 0000.0001)       NEIGHBOUR    3 = TILE   10 Comm = PUT ( PROC =    1)
(PID.TID 0000.0001)       NEIGHBOUR    4 = TILE   43 Comm = PUT ( PROC =    1)
(PID.TID 0000.0001)  TILE:   45
(PID.TID 0000.0001)       NEIGHBOUR    1 = TILE   47 Comm = PUT ( PROC =    1)
(PID.TID 0000.0001)       NEIGHBOUR    2 = TILE   43 Comm = PUT ( PROC =    1)
(PID.TID 0000.0001)       NEIGHBOUR    3 = TILE   46 Comm = PUT ( PROC =    1)
(PID.TID 0000.0001)       NEIGHBOUR    4 = TILE   38 Comm = PUT ( PROC =    1)
(PID.TID 0000.0001)  TILE:   46
(PID.TID 0000.0001)       NEIGHBOUR    1 = TILE   48 Comm = PUT ( PROC =    1)
(PID.TID 0000.0001)       NEIGHBOUR    2 = TILE   44 Comm = PUT ( PROC =    1)
(PID.TID 0000.0001)       NEIGHBOUR    3 = TILE    9 Comm = PUT ( PROC =    1)
(PID.TID 0000.0001)       NEIGHBOUR    4 = TILE   45 Comm = PUT ( PROC =    1)
(PID.TID 0000.0001)  TILE:   47
(PID.TID 0000.0001)       NEIGHBOUR    1 = TILE    1 Comm = PUT ( PROC =    1)
(PID.TID 0000.0001)       NEIGHBOUR    2 = TILE   45 Comm = PUT ( PROC =    1)
(PID.TID 0000.0001)       NEIGHBOUR    3 = TILE   48 Comm = PUT ( PROC =    1)
(PID.TID 0000.0001)       NEIGHBOUR    4 = TILE   40 Comm = PUT ( PROC =    1)
(PID.TID 0000.0001)  TILE:   48
(PID.TID 0000.0001)       NEIGHBOUR    1 = TILE    2 Comm = PUT ( PROC =    1)
(PID.TID 0000.0001)       NEIGHBOUR    2 = TILE   46 Comm = PUT ( PROC =    1)
(PID.TID 0000.0001)       NEIGHBOUR    3 = TILE    9 Comm = PUT ( PROC =    1)
(PID.TID 0000.0001)       NEIGHBOUR    4 = TILE   47 Comm = PUT ( PROC =    1)
(PID.TID 0000.0001) Tile     1 (pr=   1) sends pts i=  -1:  18, j=   7:   8
(PID.TID 0000.0001)                         to pts i=  -1:  18, j=  -1:   0 in tile      3 (pr=   1)
(PID.TID 0000.0001) Tile     1 (pr=   1) sends pts i=  -1:  18, j=   1:   2
(PID.TID 0000.0001)                         to pts i=  -1:  18, j=   9:  10 in tile     47 (pr=   1)
(PID.TID 0000.0001) Tile     1 (pr=   1) sends pts i=  15:  16, j=  -1:  10
(PID.TID 0000.0001)                         to pts i=  -1:   0, j=  -1:  10 in tile      2 (pr=   1)
(PID.TID 0000.0001) Tile     1 (pr=   1) sends pts i=   1:   2, j=  10:  -1
(PID.TID 0000.0001)                         to pts i=   7:  18, j=   9:  10 in tile     40 (pr=   1)
(PID.TID 0000.0001) Tile     2 (pr=   1) sends pts i=  -1:  18, j=   7:   8
(PID.TID 0000.0001)                         to pts i=  -1:  18, j=  -1:   0 in tile      4 (pr=   1)
(PID.TID 0000.0001) Tile     2 (pr=   1) sends pts i=  -1:  18, j=   1:   2
(PID.TID 0000.0001)                         to pts i=  -1:  18, j=   9:  10 in tile     48 (pr=   1)
(PID.TID 0000.0001) Tile     2 (pr=   1) sends pts i=  15:  16, j=  -1:  10
(PID.TID 0000.0001)                         to pts i=  -1:   0, j=  -1:  10 in tile      9 (pr=   1)
(PID.TID 0000.0001) Tile     2 (pr=   1) sends pts i=   1:   2, j=  -1:  10
(PID.TID 0000.0001)                         to pts i=  17:  18, j=  -1:  10 in tile      1 (pr=   1)
(PID.TID 0000.0001) Tile     3 (pr=   1) sends pts i=  -1:  18, j=   7:   8
(PID.TID 0000.0001)                         to pts i=  -1:  18, j=  -1:   0 in tile      5 (pr=   1)
(PID.TID 0000.0001) Tile     3 (pr=   1) sends pts i=  -1:  18, j=   1:   2
(PID.TID 0000.0001)                         to pts i=  -1:  18, j=   9:  10 in tile      1 (pr=   1)
(PID.TID 0000.0001) Tile     3 (pr=   1) sends pts i=  15:  16, j=  -1:  10
(PID.TID 0000.0001)                         to pts i=  -1:   0, j=  -1:  10 in tile      4 (pr=   1)
(PID.TID 0000.0001) Tile     3 (pr=   1) sends pts i=   1:   2, j=  10:  -1
(PID.TID 0000.0001)                         to pts i=  -1:  10, j=   9:  10 in tile     40 (pr=   1)
(PID.TID 0000.0001) Tile     4 (pr=   1) sends pts i=  -1:  18, j=   7:   8
(PID.TID 0000.0001)                         to pts i=  -1:  18, j=  -1:   0 in tile      6 (pr=   1)
(PID.TID 0000.0001) Tile     4 (pr=   1) sends pts i=  -1:  18, j=   1:   2
(PID.TID 0000.0001)                         to pts i=  -1:  18, j=   9:  10 in tile      2 (pr=   1)
(PID.TID 0000.0001) Tile     4 (pr=   1) sends pts i=  15:  16, j=  -1:  10
(PID.TID 0000.0001)                         to pts i=  -1:   0, j=  -1:  10 in tile     11 (pr=   1)
(PID.TID 0000.0001) Tile     4 (pr=   1) sends pts i=   1:   2, j=  -1:  10
(PID.TID 0000.0001)                         to pts i=  17:  18, j=  -1:  10 in tile      3 (pr=   1)
(PID.TID 0000.0001) Tile     5 (pr=   1) sends pts i=  -1:  18, j=   7:   8
(PID.TID 0000.0001)                         to pts i=  -1:  18, j=  -1:   0 in tile      7 (pr=   1)
(PID.TID 0000.0001) Tile     5 (pr=   1) sends pts i=  -1:  18, j=   1:   2
(PID.TID 0000.0001)                         to pts i=  -1:  18, j=   9:  10 in tile      3 (pr=   1)
(PID.TID 0000.0001) Tile     5 (pr=   1) sends pts i=  15:  16, j=  -1:  10
(PID.TID 0000.0001)                         to pts i=  -1:   0, j=  -1:  10 in tile      6 (pr=   1)
(PID.TID 0000.0001) Tile     5 (pr=   1) sends pts i=   1:   2, j=  10:  -1
(PID.TID 0000.0001)                         to pts i=   7:  18, j=   9:  10 in tile     39 (pr=   1)
(PID.TID 0000.0001) Tile     6 (pr=   1) sends pts i=  -1:  18, j=   7:   8
(PID.TID 0000.0001)                         to pts i=  -1:  18, j=  -1:   0 in tile      8 (pr=   1)
(PID.TID 0000.0001) Tile     6 (pr=   1) sends pts i=  -1:  18, j=   1:   2
(PID.TID 0000.0001)                         to pts i=  -1:  18, j=   9:  10 in tile      4 (pr=   1)
(PID.TID 0000.0001) Tile     6 (pr=   1) sends pts i=  15:  16, j=  -1:  10
(PID.TID 0000.0001)                         to pts i=  -1:   0, j=  -1:  10 in tile     13 (pr=   1)
(PID.TID 0000.0001) Tile     6 (pr=   1) sends pts i=   1:   2, j=  -1:  10
(PID.TID 0000.0001)                         to pts i=  17:  18, j=  -1:  10 in tile      5 (pr=   1)
(PID.TID 0000.0001) Tile     7 (pr=   1) sends pts i=  18:   7, j=   7:   8
(PID.TID 0000.0001)                         to pts i=  -1:   0, j=  -1:  10 in tile     21 (pr=   1)
(PID.TID 0000.0001) Tile     7 (pr=   1) sends pts i=  10:  -1, j=   7:   8
(PID.TID 0000.0001)                         to pts i=  -1:   0, j=  -1:  10 in tile     23 (pr=   1)
(PID.TID 0000.0001) Tile     7 (pr=   1) sends pts i=  -1:  18, j=   1:   2
(PID.TID 0000.0001)                         to pts i=  -1:  18, j=   9:  10 in tile      5 (pr=   1)
(PID.TID 0000.0001) Tile     7 (pr=   1) sends pts i=  15:  16, j=  -1:  10
(PID.TID 0000.0001)                         to pts i=  -1:   0, j=  -1:  10 in tile      8 (pr=   1)
(PID.TID 0000.0001) Tile     7 (pr=   1) sends pts i=   1:   2, j=  10:  -1
(PID.TID 0000.0001)                         to pts i=  -1:  10, j=   9:  10 in tile     39 (pr=   1)
(PID.TID 0000.0001) Tile     8 (pr=   1) sends pts i=  18:   7, j=   7:   8
(PID.TID 0000.0001)                         to pts i=  -1:   0, j=  -1:  10 in tile     17 (pr=   1)
(PID.TID 0000.0001) Tile     8 (pr=   1) sends pts i=  10:  -1, j=   7:   8
(PID.TID 0000.0001)                         to pts i=  -1:   0, j=  -1:  10 in tile     19 (pr=   1)
(PID.TID 0000.0001) Tile     8 (pr=   1) sends pts i=  -1:  18, j=   1:   2
(PID.TID 0000.0001)                         to pts i=  -1:  18, j=   9:  10 in tile      6 (pr=   1)
(PID.TID 0000.0001) Tile     8 (pr=   1) sends pts i=  15:  16, j=  -1:  10
(PID.TID 0000.0001)                         to pts i=  -1:   0, j=  -1:  10 in tile     15 (pr=   1)
(PID.TID 0000.0001) Tile     8 (pr=   1) sends pts i=   1:   2, j=  -1:  10
(PID.TID 0000.0001)                         to pts i=  17:  18, j=  -1:  10 in tile      7 (pr=   1)
(PID.TID 0000.0001) Tile     9 (pr=   1) sends pts i=  -1:  18, j=   7:   8
(PID.TID 0000.0001)                         to pts i=  -1:  18, j=  -1:   0 in tile     11 (pr=   1)
(PID.TID 0000.0001) Tile     9 (pr=   1) sends pts i=  18:   7, j=   1:   2
(PID.TID 0000.0001)                         to pts i=  17:  18, j=  -1:  10 in tile     46 (pr=   1)
(PID.TID 0000.0001) Tile     9 (pr=   1) sends pts i=  10:  -1, j=   1:   2
(PID.TID 0000.0001)                         to pts i=  17:  18, j=  -1:  10 in tile     48 (pr=   1)
(PID.TID 0000.0001) Tile     9 (pr=   1) sends pts i=  15:  16, j=  -1:  10
(PID.TID 0000.0001)                         to pts i=  -1:   0, j=  -1:  10 in tile     10 (pr=   1)
(PID.TID 0000.0001) Tile     9 (pr=   1) sends pts i=   1:   2, j=  -1:  10
(PID.TID 0000.0001)                         to pts i=  17:  18, j=  -1:  10 in tile      2 (pr=   1)
(PID.TID 0000.0001) Tile    10 (pr=   1) sends pts i=  -1:  18, j=   7:   8
(PID.TID 0000.0001)                         to pts i=  -1:  18, j=  -1:   0 in tile     12 (pr=   1)
(PID.TID 0000.0001) Tile    10 (pr=   1) sends pts i=  18:   7, j=   1:   2
(PID.TID 0000.0001)                         to pts i=  17:  18, j=  -1:  10 in tile     42 (pr=   1)
(PID.TID 0000.0001) Tile    10 (pr=   1) sends pts i=  10:  -1, j=   1:   2
(PID.TID 0000.0001)                         to pts i=  17:  18, j=  -1:  10 in tile     44 (pr=   1)
(PID.TID 0000.0001) Tile    10 (pr=   1) sends pts i=  15:  16, j=  10:  -1
(PID.TID 0000.0001)                         to pts i=   7:  18, j=  -1:   0 in tile     26 (pr=   1)
(PID.TID 0000.0001) Tile    10 (pr=   1) sends pts i=   1:   2, j=  -1:  10
(PID.TID 0000.0001)                         to pts i=  17:  18, j=  -1:  10 in tile      9 (pr=   1)
(PID.TID 0000.0001) Tile    11 (pr=   1) sends pts i=  -1:  18, j=   7:   8
(PID.TID 0000.0001)                         to pts i=  -1:  18, j=  -1:   0 in tile     13 (pr=   1)
(PID.TID 0000.0001) Tile    11 (pr=   1) sends pts i=  -1:  18, j=   1:   2
(PID.TID 0000.0001)                         to pts i=  -1:  18, j=   9:  10 in tile      9 (pr=   1)
(PID.TID 0000.0001) Tile    11 (pr=   1) sends pts i=  15:  16, j=  -1:  10
(PID.TID 0000.0001)                         to pts i=  -1:   0, j=  -1:  10 in tile     12 (pr=   1)
(PID.TID 0000.0001) Tile    11 (pr=   1) sends pts i=   1:   2, j=  -1:  10
(PID.TID 0000.0001)                         to pts i=  17:  18, j=  -1:  10 in tile      4 (pr=   1)
(PID.TID 0000.0001) Tile    12 (pr=   1) sends pts i=  -1:  18, j=   7:   8
(PID.TID 0000.0001)                         to pts i=  -1:  18, j=  -1:   0 in tile     14 (pr=   1)
(PID.TID 0000.0001) Tile    12 (pr=   1) sends pts i=  -1:  18, j=   1:   2
(PID.TID 0000.0001)                         to pts i=  -1:  18, j=   9:  10 in tile     10 (pr=   1)
(PID.TID 0000.0001) Tile    12 (pr=   1) sends pts i=  15:  16, j=  10:  -1
(PID.TID 0000.0001)                         to pts i=  -1:  10, j=  -1:   0 in tile     26 (pr=   1)
(PID.TID 0000.0001) Tile    12 (pr=   1) sends pts i=   1:   2, j=  -1:  10
(PID.TID 0000.0001)                         to pts i=  17:  18, j=  -1:  10 in tile     11 (pr=   1)
(PID.TID 0000.0001) Tile    13 (pr=   1) sends pts i=  -1:  18, j=   7:   8
(PID.TID 0000.0001)                         to pts i=  -1:  18, j=  -1:   0 in tile     15 (pr=   1)
(PID.TID 0000.0001) Tile    13 (pr=   1) sends pts i=  -1:  18, j=   1:   2
(PID.TID 0000.0001)                         to pts i=  -1:  18, j=   9:  10 in tile     11 (pr=   1)
(PID.TID 0000.0001) Tile    13 (pr=   1) sends pts i=  15:  16, j=  -1:  10
(PID.TID 0000.0001)                         to pts i=  -1:   0, j=  -1:  10 in tile     14 (pr=   1)
(PID.TID 0000.0001) Tile    13 (pr=   1) sends pts i=   1:   2, j=  -1:  10
(PID.TID 0000.0001)                         to pts i=  17:  18, j=  -1:  10 in tile      6 (pr=   1)
(PID.TID 0000.0001) Tile    14 (pr=   1) sends pts i=  -1:  18, j=   7:   8
(PID.TID 0000.0001)                         to pts i=  -1:  18, j=  -1:   0 in tile     16 (pr=   1)
(PID.TID 0000.0001) Tile    14 (pr=   1) sends pts i=  -1:  18, j=   1:   2
(PID.TID 0000.0001)                         to pts i=  -1:  18, j=   9:  10 in tile     12 (pr=   1)
(PID.TID 0000.0001) Tile    14 (pr=   1) sends pts i=  15:  16, j=  10:  -1
(PID.TID 0000.0001)                         to pts i=   7:  18, j=  -1:   0 in tile     25 (pr=   1)
(PID.TID 0000.0001) Tile    14 (pr=   1) sends pts i=   1:   2, j=  -1:  10
(PID.TID 0000.0001)                         to pts i=  17:  18, j=  -1:  10 in tile     13 (pr=   1)
(PID.TID 0000.0001) Tile    15 (pr=   1) sends pts i=  -1:  18, j=   7:   8
(PID.TID 0000.0001)                         to pts i=  -1:  18, j=  -1:   0 in tile     17 (pr=   1)
(PID.TID 0000.0001) Tile    15 (pr=   1) sends pts i=  -1:  18, j=   1:   2
(PID.TID 0000.0001)                         to pts i=  -1:  18, j=   9:  10 in tile     13 (pr=   1)
(PID.TID 0000.0001) Tile    15 (pr=   1) sends pts i=  15:  16, j=  -1:  10
(PID.TID 0000.0001)                         to pts i=  -1:   0, j=  -1:  10 in tile     16 (pr=   1)
(PID.TID 0000.0001) Tile    15 (pr=   1) sends pts i=   1:   2, j=  -1:  10
(PID.TID 0000.0001)                         to pts i=  17:  18, j=  -1:  10 in tile      8 (pr=   1)
(PID.TID 0000.0001) Tile    16 (pr=   1) sends pts i=  -1:  18, j=   7:   8
(PID.TID 0000.0001)                         to pts i=  -1:  18, j=  -1:   0 in tile     18 (pr=   1)
(PID.TID 0000.0001) Tile    16 (pr=   1) sends pts i=  -1:  18, j=   1:   2
(PID.TID 0000.0001)                         to pts i=  -1:  18, j=   9:  10 in tile     14 (pr=   1)
(PID.TID 0000.0001) Tile    16 (pr=   1) sends pts i=  15:  16, j=  10:  -1
(PID.TID 0000.0001)                         to pts i=  -1:  10, j=  -1:   0 in tile     25 (pr=   1)
(PID.TID 0000.0001) Tile    16 (pr=   1) sends pts i=   1:   2, j=  -1:  10
(PID.TID 0000.0001)                         to pts i=  17:  18, j=  -1:  10 in tile     15 (pr=   1)
(PID.TID 0000.0001) Tile    17 (pr=   1) sends pts i=  -1:  18, j=   7:   8
(PID.TID 0000.0001)                         to pts i=  -1:  18, j=  -1:   0 in tile     19 (pr=   1)
(PID.TID 0000.0001) Tile    17 (pr=   1) sends pts i=  -1:  18, j=   1:   2
(PID.TID 0000.0001)                         to pts i=  -1:  18, j=   9:  10 in tile     15 (pr=   1)
(PID.TID 0000.0001) Tile    17 (pr=   1) sends pts i=  15:  16, j=  -1:  10
(PID.TID 0000.0001)                         to pts i=  -1:   0, j=  -1:  10 in tile     18 (pr=   1)
(PID.TID 0000.0001) Tile    17 (pr=   1) sends pts i=   1:   2, j=  10:  -1
(PID.TID 0000.0001)                         to pts i=   7:  18, j=   9:  10 in tile      8 (pr=   1)
(PID.TID 0000.0001) Tile    18 (pr=   1) sends pts i=  -1:  18, j=   7:   8
(PID.TID 0000.0001)                         to pts i=  -1:  18, j=  -1:   0 in tile     20 (pr=   1)
(PID.TID 0000.0001) Tile    18 (pr=   1) sends pts i=  -1:  18, j=   1:   2
(PID.TID 0000.0001)                         to pts i=  -1:  18, j=   9:  10 in tile     16 (pr=   1)
(PID.TID 0000.0001) Tile    18 (pr=   1) sends pts i=  15:  16, j=  -1:  10
(PID.TID 0000.0001)                         to pts i=  -1:   0, j=  -1:  10 in tile     25 (pr=   1)
(PID.TID 0000.0001) Tile    18 (pr=   1) sends pts i=   1:   2, j=  -1:  10
(PID.TID 0000.0001)                         to pts i=  17:  18, j=  -1:  10 in tile     17 (pr=   1)
(PID.TID 0000.0001) Tile    19 (pr=   1) sends pts i=  -1:  18, j=   7:   8
(PID.TID 0000.0001)                         to pts i=  -1:  18, j=  -1:   0 in tile     21 (pr=   1)
(PID.TID 0000.0001) Tile    19 (pr=   1) sends pts i=  -1:  18, j=   1:   2
(PID.TID 0000.0001)                         to pts i=  -1:  18, j=   9:  10 in tile     17 (pr=   1)
(PID.TID 0000.0001) Tile    19 (pr=   1) sends pts i=  15:  16, j=  -1:  10
(PID.TID 0000.0001)                         to pts i=  -1:   0, j=  -1:  10 in tile     20 (pr=   1)
(PID.TID 0000.0001) Tile    19 (pr=   1) sends pts i=   1:   2, j=  10:  -1
(PID.TID 0000.0001)                         to pts i=  -1:  10, j=   9:  10 in tile      8 (pr=   1)
(PID.TID 0000.0001) Tile    20 (pr=   1) sends pts i=  -1:  18, j=   7:   8
(PID.TID 0000.0001)                         to pts i=  -1:  18, j=  -1:   0 in tile     22 (pr=   1)
(PID.TID 0000.0001) Tile    20 (pr=   1) sends pts i=  -1:  18, j=   1:   2
(PID.TID 0000.0001)                         to pts i=  -1:  18, j=   9:  10 in tile     18 (pr=   1)
(PID.TID 0000.0001) Tile    20 (pr=   1) sends pts i=  15:  16, j=  -1:  10
(PID.TID 0000.0001)                         to pts i=  -1:   0, j=  -1:  10 in tile     27 (pr=   1)
(PID.TID 0000.0001) Tile    20 (pr=   1) sends pts i=   1:   2, j=  -1:  10
(PID.TID 0000.0001)                         to pts i=  17:  18, j=  -1:  10 in tile     19 (pr=   1)
(PID.TID 0000.0001) Tile    21 (pr=   1) sends pts i=  -1:  18, j=   7:   8
(PID.TID 0000.0001)                         to pts i=  -1:  18, j=  -1:   0 in tile     23 (pr=   1)
(PID.TID 0000.0001) Tile    21 (pr=   1) sends pts i=  -1:  18, j=   1:   2
(PID.TID 0000.0001)                         to pts i=  -1:  18, j=   9:  10 in tile     19 (pr=   1)
(PID.TID 0000.0001) Tile    21 (pr=   1) sends pts i=  15:  16, j=  -1:  10
(PID.TID 0000.0001)                         to pts i=  -1:   0, j=  -1:  10 in tile     22 (pr=   1)
(PID.TID 0000.0001) Tile    21 (pr=   1) sends pts i=   1:   2, j=  10:  -1
(PID.TID 0000.0001)                         to pts i=   7:  18, j=   9:  10 in tile      7 (pr=   1)
(PID.TID 0000.0001) Tile    22 (pr=   1) sends pts i=  -1:  18, j=   7:   8
(PID.TID 0000.0001)                         to pts i=  -1:  18, j=  -1:   0 in tile     24 (pr=   1)
(PID.TID 0000.0001) Tile    22 (pr=   1) sends pts i=  -1:  18, j=   1:   2
(PID.TID 0000.0001)                         to pts i=  -1:  18, j=   9:  10 in tile     20 (pr=   1)
(PID.TID 0000.0001) Tile    22 (pr=   1) sends pts i=  15:  16, j=  -1:  10
(PID.TID 0000.0001)                         to pts i=  -1:   0, j=  -1:  10 in tile     29 (pr=   1)
(PID.TID 0000.0001) Tile    22 (pr=   1) sends pts i=   1:   2, j=  -1:  10
(PID.TID 0000.0001)                         to pts i=  17:  18, j=  -1:  10 in tile     21 (pr=   1)
(PID.TID 0000.0001) Tile    23 (pr=   1) sends pts i=  18:   7, j=   7:   8
(PID.TID 0000.0001)                         to pts i=  -1:   0, j=  -1:  10 in tile     37 (pr=   1)
(PID.TID 0000.0001) Tile    23 (pr=   1) sends pts i=  10:  -1, j=   7:   8
(PID.TID 0000.0001)                         to pts i=  -1:   0, j=  -1:  10 in tile     39 (pr=   1)
(PID.TID 0000.0001) Tile    23 (pr=   1) sends pts i=  -1:  18, j=   1:   2
(PID.TID 0000.0001)                         to pts i=  -1:  18, j=   9:  10 in tile     21 (pr=   1)
(PID.TID 0000.0001) Tile    23 (pr=   1) sends pts i=  15:  16, j=  -1:  10
(PID.TID 0000.0001)                         to pts i=  -1:   0, j=  -1:  10 in tile     24 (pr=   1)
(PID.TID 0000.0001) Tile    23 (pr=   1) sends pts i=   1:   2, j=  10:  -1
(PID.TID 0000.0001)                         to pts i=  -1:  10, j=   9:  10 in tile      7 (pr=   1)
(PID.TID 0000.0001) Tile    24 (pr=   1) sends pts i=  18:   7, j=   7:   8
(PID.TID 0000.0001)                         to pts i=  -1:   0, j=  -1:  10 in tile     33 (pr=   1)
(PID.TID 0000.0001) Tile    24 (pr=   1) sends pts i=  10:  -1, j=   7:   8
(PID.TID 0000.0001)                         to pts i=  -1:   0, j=  -1:  10 in tile     35 (pr=   1)
(PID.TID 0000.0001) Tile    24 (pr=   1) sends pts i=  -1:  18, j=   1:   2
(PID.TID 0000.0001)                         to pts i=  -1:  18, j=   9:  10 in tile     22 (pr=   1)
(PID.TID 0000.0001) Tile    24 (pr=   1) sends pts i=  15:  16, j=  -1:  10
(PID.TID 0000.0001)                         to pts i=  -1:   0, j=  -1:  10 in tile     31 (pr=   1)
(PID.TID 0000.0001) Tile    24 (pr=   1) sends pts i=   1:   2, j=  -1:  10
(PID.TID 0000.0001)                         to pts i=  17:  18, j=  -1:  10 in tile     23 (pr=   1)
(PID.TID 0000.0001) Tile    25 (pr=   1) sends pts i=  -1:  18, j=   7:   8
(PID.TID 0000.0001)                         to pts i=  -1:  18, j=  -1:   0 in tile     27 (pr=   1)
(PID.TID 0000.0001) Tile    25 (pr=   1) sends pts i=  18:   7, j=   1:   2
(PID.TID 0000.0001)                         to pts i=  17:  18, j=  -1:  10 in tile     14 (pr=   1)
(PID.TID 0000.0001) Tile    25 (pr=   1) sends pts i=  10:  -1, j=   1:   2
(PID.TID 0000.0001)                         to pts i=  17:  18, j=  -1:  10 in tile     16 (pr=   1)
(PID.TID 0000.0001) Tile    25 (pr=   1) sends pts i=  15:  16, j=  -1:  10
(PID.TID 0000.0001)                         to pts i=  -1:   0, j=  -1:  10 in tile     26 (pr=   1)
(PID.TID 0000.0001) Tile    25 (pr=   1) sends pts i=   1:   2, j=  -1:  10
(PID.TID 0000.0001)                         to pts i=  17:  18, j=  -1:  10 in tile     18 (pr=   1)
(PID.TID 0000.0001) Tile    26 (pr=   1) sends pts i=  -1:  18, j=   7:   8
(PID.TID 0000.0001)                         to pts i=  -1:  18, j=  -1:   0 in tile     28 (pr=   1)
(PID.TID 0000.0001) Tile    26 (pr=   1) sends pts i=  18:   7, j=   1:   2
(PID.TID 0000.0001)                         to pts i=  17:  18, j=  -1:  10 in tile     10 (pr=   1)
(PID.TID 0000.0001) Tile    26 (pr=   1) sends pts i=  10:  -1, j=   1:   2
(PID.TID 0000.0001)                         to pts i=  17:  18, j=  -1:  10 in tile     12 (pr=   1)
(PID.TID 0000.0001) Tile    26 (pr=   1) sends pts i=  15:  16, j=  10:  -1
(PID.TID 0000.0001)                         to pts i=   7:  18, j=  -1:   0 in tile     42 (pr=   1)
(PID.TID 0000.0001) Tile    26 (pr=   1) sends pts i=   1:   2, j=  -1:  10
(PID.TID 0000.0001)                         to pts i=  17:  18, j=  -1:  10 in tile     25 (pr=   1)
(PID.TID 0000.0001) Tile    27 (pr=   1) sends pts i=  -1:  18, j=   7:   8
(PID.TID 0000.0001)                         to pts i=  -1:  18, j=  -1:   0 in tile     29 (pr=   1)
(PID.TID 0000.0001) Tile    27 (pr=   1) sends pts i=  -1:  18, j=   1:   2
(PID.TID 0000.0001)                         to pts i=  -1:  18, j=   9:  10 in tile     25 (pr=   1)
(PID.TID 0000.0001) Tile    27 (pr=   1) sends pts i=  15:  16, j=  -1:  10
(PID.TID 0000.0001)                         to pts i=  -1:   0, j=  -1:  10 in tile     28 (pr=   1)
(PID.TID 0000.0001) Tile    27 (pr=   1) sends pts i=   1:   2, j=  -1:  10
(PID.TID 0000.0001)                         to pts i=  17:  18, j=  -1:  10 in tile     20 (pr=   1)
(PID.TID 0000.0001) Tile    28 (pr=   1) sends pts i=  -1:  18, j=   7:   8
(PID.TID 0000.0001)                         to pts i=  -1:  18, j=  -1:   0 in tile     30 (pr=   1)
(PID.TID 0000.0001) Tile    28 (pr=   1) sends pts i=  -1:  18, j=   1:   2
(PID.TID 0000.0001)                         to pts i=  -1:  18, j=   9:  10 in tile     26 (pr=   1)
(PID.TID 0000.0001) Tile    28 (pr=   1) sends pts i=  15:  16, j=  10:  -1
(PID.TID 0000.0001)                         to pts i=  -1:  10, j=  -1:   0 in tile     42 (pr=   1)
(PID.TID 0000.0001) Tile    28 (pr=   1) sends pts i=   1:   2, j=  -1:  10
(PID.TID 0000.0001)                         to pts i=  17:  18, j=  -1:  10 in tile     27 (pr=   1)
(PID.TID 0000.0001) Tile    29 (pr=   1) sends pts i=  -1:  18, j=   7:   8
(PID.TID 0000.0001)                         to pts i=  -1:  18, j=  -1:   0 in tile     31 (pr=   1)
(PID.TID 0000.0001) Tile    29 (pr=   1) sends pts i=  -1:  18, j=   1:   2
(PID.TID 0000.0001)                         to pts i=  -1:  18, j=   9:  10 in tile     27 (pr=   1)
(PID.TID 0000.0001) Tile    29 (pr=   1) sends pts i=  15:  16, j=  -1:  10
(PID.TID 0000.0001)                         to pts i=  -1:   0, j=  -1:  10 in tile     30 (pr=   1)
(PID.TID 0000.0001) Tile    29 (pr=   1) sends pts i=   1:   2, j=  -1:  10
(PID.TID 0000.0001)                         to pts i=  17:  18, j=  -1:  10 in tile     22 (pr=   1)
(PID.TID 0000.0001) Tile    30 (pr=   1) sends pts i=  -1:  18, j=   7:   8
(PID.TID 0000.0001)                         to pts i=  -1:  18, j=  -1:   0 in tile     32 (pr=   1)
(PID.TID 0000.0001) Tile    30 (pr=   1) sends pts i=  -1:  18, j=   1:   2
(PID.TID 0000.0001)                         to pts i=  -1:  18, j=   9:  10 in tile     28 (pr=   1)
(PID.TID 0000.0001) Tile    30 (pr=   1) sends pts i=  15:  16, j=  10:  -1
(PID.TID 0000.0001)                         to pts i=   7:  18, j=  -1:   0 in tile     41 (pr=   1)
(PID.TID 0000.0001) Tile    30 (pr=   1) sends pts i=   1:   2, j=  -1:  10
(PID.TID 0000.0001)                         to pts i=  17:  18, j=  -1:  10 in tile     29 (pr=   1)
(PID.TID 0000.0001) Tile    31 (pr=   1) sends pts i=  -1:  18, j=   7:   8
(PID.TID 0000.0001)                         to pts i=  -1:  18, j=  -1:   0 in tile     33 (pr=   1)
(PID.TID 0000.0001) Tile    31 (pr=   1) sends pts i=  -1:  18, j=   1:   2
(PID.TID 0000.0001)                         to pts i=  -1:  18, j=   9:  10 in tile     29 (pr=   1)
(PID.TID 0000.0001) Tile    31 (pr=   1) sends pts i=  15:  16, j=  -1:  10
(PID.TID 0000.0001)                         to pts i=  -1:   0, j=  -1:  10 in tile     32 (pr=   1)
(PID.TID 0000.0001) Tile    31 (pr=   1) sends pts i=   1:   2, j=  -1:  10
(PID.TID 0000.0001)                         to pts i=  17:  18, j=  -1:  10 in tile     24 (pr=   1)
(PID.TID 0000.0001) Tile    32 (pr=   1) sends pts i=  -1:  18, j=   7:   8
(PID.TID 0000.0001)                         to pts i=  -1:  18, j=  -1:   0 in tile     34 (pr=   1)
(PID.TID 0000.0001) Tile    32 (pr=   1) sends pts i=  -1:  18, j=   1:   2
(PID.TID 0000.0001)                         to pts i=  -1:  18, j=   9:  10 in tile     30 (pr=   1)
(PID.TID 0000.0001) Tile    32 (pr=   1) sends pts i=  15:  16, j=  10:  -1
(PID.TID 0000.0001)                         to pts i=  -1:  10, j=  -1:   0 in tile     41 (pr=   1)
(PID.TID 0000.0001) Tile    32 (pr=   1) sends pts i=   1:   2, j=  -1:  10
(PID.TID 0000.0001)                         to pts i=  17:  18, j=  -1:  10 in tile     31 (pr=   1)
(PID.TID 0000.0001) Tile    33 (pr=   1) sends pts i=  -1:  18, j=   7:   8
(PID.TID 0000.0001)                         to pts i=  -1:  18, j=  -1:   0 in tile     35 (pr=   1)
(PID.TID 0000.0001) Tile    33 (pr=   1) sends pts i=  -1:  18, j=   1:   2
(PID.TID 0000.0001)                         to pts i=  -1:  18, j=   9:  10 in tile     31 (pr=   1)
(PID.TID 0000.0001) Tile    33 (pr=   1) sends pts i=  15:  16, j=  -1:  10
(PID.TID 0000.0001)                         to pts i=  -1:   0, j=  -1:  10 in tile     34 (pr=   1)
(PID.TID 0000.0001) Tile    33 (pr=   1) sends pts i=   1:   2, j=  10:  -1
(PID.TID 0000.0001)                         to pts i=   7:  18, j=   9:  10 in tile     24 (pr=   1)
(PID.TID 0000.0001) Tile    34 (pr=   1) sends pts i=  -1:  18, j=   7:   8
(PID.TID 0000.0001)                         to pts i=  -1:  18, j=  -1:   0 in tile     36 (pr=   1)
(PID.TID 0000.0001) Tile    34 (pr=   1) sends pts i=  -1:  18, j=   1:   2
(PID.TID 0000.0001)                         to pts i=  -1:  18, j=   9:  10 in tile     32 (pr=   1)
(PID.TID 0000.0001) Tile    34 (pr=   1) sends pts i=  15:  16, j=  -1:  10
(PID.TID 0000.0001)                         to pts i=  -1:   0, j=  -1:  10 in tile     41 (pr=   1)
(PID.TID 0000.0001) Tile    34 (pr=   1) sends pts i=   1:   2, j=  -1:  10
(PID.TID 0000.0001)                         to pts i=  17:  18, j=  -1:  10 in tile     33 (pr=   1)
(PID.TID 0000.0001) Tile    35 (pr=   1) sends pts i=  -1:  18, j=   7:   8
(PID.TID 0000.0001)                         to pts i=  -1:  18, j=  -1:   0 in tile     37 (pr=   1)
(PID.TID 0000.0001) Tile    35 (pr=   1) sends pts i=  -1:  18, j=   1:   2
(PID.TID 0000.0001)                         to pts i=  -1:  18, j=   9:  10 in tile     33 (pr=   1)
(PID.TID 0000.0001) Tile    35 (pr=   1) sends pts i=  15:  16, j=  -1:  10
(PID.TID 0000.0001)                         to pts i=  -1:   0, j=  -1:  10 in tile     36 (pr=   1)
(PID.TID 0000.0001) Tile    35 (pr=   1) sends pts i=   1:   2, j=  10:  -1
(PID.TID 0000.0001)                         to pts i=  -1:  10, j=   9:  10 in tile     24 (pr=   1)
(PID.TID 0000.0001) Tile    36 (pr=   1) sends pts i=  -1:  18, j=   7:   8
(PID.TID 0000.0001)                         to pts i=  -1:  18, j=  -1:   0 in tile     38 (pr=   1)
(PID.TID 0000.0001) Tile    36 (pr=   1) sends pts i=  -1:  18, j=   1:   2
(PID.TID 0000.0001)                         to pts i=  -1:  18, j=   9:  10 in tile     34 (pr=   1)
(PID.TID 0000.0001) Tile    36 (pr=   1) sends pts i=  15:  16, j=  -1:  10
(PID.TID 0000.0001)                         to pts i=  -1:   0, j=  -1:  10 in tile     43 (pr=   1)
(PID.TID 0000.0001) Tile    36 (pr=   1) sends pts i=   1:   2, j=  -1:  10
(PID.TID 0000.0001)                         to pts i=  17:  18, j=  -1:  10 in tile     35 (pr=   1)
(PID.TID 0000.0001) Tile    37 (pr=   1) sends pts i=  -1:  18, j=   7:   8
(PID.TID 0000.0001)                         to pts i=  -1:  18, j=  -1:   0 in tile     39 (pr=   1)
(PID.TID 0000.0001) Tile    37 (pr=   1) sends pts i=  -1:  18, j=   1:   2
(PID.TID 0000.0001)                         to pts i=  -1:  18, j=   9:  10 in tile     35 (pr=   1)
(PID.TID 0000.0001) Tile    37 (pr=   1) sends pts i=  15:  16, j=  -1:  10
(PID.TID 0000.0001)                         to pts i=  -1:   0, j=  -1:  10 in tile     38 (pr=   1)
(PID.TID 0000.0001) Tile    37 (pr=   1) sends pts i=   1:   2, j=  10:  -1
(PID.TID 0000.0001)                         to pts i=   7:  18, j=   9:  10 in tile     23 (pr=   1)
(PID.TID 0000.0001) Tile    38 (pr=   1) sends pts i=  -1:  18, j=   7:   8
(PID.TID 0000.0001)                         to pts i=  -1:  18, j=  -1:   0 in tile     40 (pr=   1)
(PID.TID 0000.0001) Tile    38 (pr=   1) sends pts i=  -1:  18, j=   1:   2
(PID.TID 0000.0001)                         to pts i=  -1:  18, j=   9:  10 in tile     36 (pr=   1)
(PID.TID 0000.0001) Tile    38 (pr=   1) sends pts i=  15:  16, j=  -1:  10
(PID.TID 0000.0001)                         to pts i=  -1:   0, j=  -1:  10 in tile     45 (pr=   1)
(PID.TID 0000.0001) Tile    38 (pr=   1) sends pts i=   1:   2, j=  -1:  10
(PID.TID 0000.0001)                         to pts i=  17:  18, j=  -1:  10 in tile     37 (pr=   1)
(PID.TID 0000.0001) Tile    39 (pr=   1) sends pts i=  18:   7, j=   7:   8
(PID.TID 0000.0001)                         to pts i=  -1:   0, j=  -1:  10 in tile      5 (pr=   1)
(PID.TID 0000.0001) Tile    39 (pr=   1) sends pts i=  10:  -1, j=   7:   8
(PID.TID 0000.0001)                         to pts i=  -1:   0, j=  -1:  10 in tile      7 (pr=   1)
(PID.TID 0000.0001) Tile    39 (pr=   1) sends pts i=  -1:  18, j=   1:   2
(PID.TID 0000.0001)                         to pts i=  -1:  18, j=   9:  10 in tile     37 (pr=   1)
(PID.TID 0000.0001) Tile    39 (pr=   1) sends pts i=  15:  16, j=  -1:  10
(PID.TID 0000.0001)                         to pts i=  -1:   0, j=  -1:  10 in tile     40 (pr=   1)
(PID.TID 0000.0001) Tile    39 (pr=   1) sends pts i=   1:   2, j=  10:  -1
(PID.TID 0000.0001)                         to pts i=  -1:  10, j=   9:  10 in tile     23 (pr=   1)
(PID.TID 0000.0001) Tile    40 (pr=   1) sends pts i=  18:   7, j=   7:   8
(PID.TID 0000.0001)                         to pts i=  -1:   0, j=  -1:  10 in tile      1 (pr=   1)
(PID.TID 0000.0001) Tile    40 (pr=   1) sends pts i=  10:  -1, j=   7:   8
(PID.TID 0000.0001)                         to pts i=  -1:   0, j=  -1:  10 in tile      3 (pr=   1)
(PID.TID 0000.0001) Tile    40 (pr=   1) sends pts i=  -1:  18, j=   1:   2
(PID.TID 0000.0001)                         to pts i=  -1:  18, j=   9:  10 in tile     38 (pr=   1)
(PID.TID 0000.0001) Tile    40 (pr=   1) sends pts i=  15:  16, j=  -1:  10
(PID.TID 0000.0001)                         to pts i=  -1:   0, j=  -1:  10 in tile     47 (pr=   1)
(PID.TID 0000.0001) Tile    40 (pr=   1) sends pts i=   1:   2, j=  -1:  10
(PID.TID 0000.0001)                         to pts i=  17:  18, j=  -1:  10 in tile     39 (pr=   1)
(PID.TID 0000.0001) Tile    41 (pr=   1) sends pts i=  -1:  18, j=   7:   8
(PID.TID 0000.0001)                         to pts i=  -1:  18, j=  -1:   0 in tile     43 (pr=   1)
(PID.TID 0000.0001) Tile    41 (pr=   1) sends pts i=  18:   7, j=   1:   2
(PID.TID 0000.0001)                         to pts i=  17:  18, j=  -1:  10 in tile     30 (pr=   1)
(PID.TID 0000.0001) Tile    41 (pr=   1) sends pts i=  10:  -1, j=   1:   2
(PID.TID 0000.0001)                         to pts i=  17:  18, j=  -1:  10 in tile     32 (pr=   1)
(PID.TID 0000.0001) Tile    41 (pr=   1) sends pts i=  15:  16, j=  -1:  10
(PID.TID 0000.0001)                         to pts i=  -1:   0, j=  -1:  10 in tile     42 (pr=   1)
(PID.TID 0000.0001) Tile    41 (pr=   1) sends pts i=   1:   2, j=  -1:  10
(PID.TID 0000.0001)                         to pts i=  17:  18, j=  -1:  10 in tile     34 (pr=   1)
(PID.TID 0000.0001) Tile    42 (pr=   1) sends pts i=  -1:  18, j=   7:   8
(PID.TID 0000.0001)                         to pts i=  -1:  18, j=  -1:   0 in tile     44 (pr=   1)
(PID.TID 0000.0001) Tile    42 (pr=   1) sends pts i=  18:   7, j=   1:   2
(PID.TID 0000.0001)                         to pts i=  17:  18, j=  -1:  10 in tile     26 (pr=   1)
(PID.TID 0000.0001) Tile    42 (pr=   1) sends pts i=  10:  -1, j=   1:   2
(PID.TID 0000.0001)                         to pts i=  17:  18, j=  -1:  10 in tile     28 (pr=   1)
(PID.TID 0000.0001) Tile    42 (pr=   1) sends pts i=  15:  16, j=  10:  -1
(PID.TID 0000.0001)                         to pts i=   7:  18, j=  -1:   0 in tile     10 (pr=   1)
(PID.TID 0000.0001) Tile    42 (pr=   1) sends pts i=   1:   2, j=  -1:  10
(PID.TID 0000.0001)                         to pts i=  17:  18, j=  -1:  10 in tile     41 (pr=   1)
(PID.TID 0000.0001) Tile    43 (pr=   1) sends pts i=  -1:  18, j=   7:   8
(PID.TID 0000.0001)                         to pts i=  -1:  18, j=  -1:   0 in tile     45 (pr=   1)
(PID.TID 0000.0001) Tile    43 (pr=   1) sends pts i=  -1:  18, j=   1:   2
(PID.TID 0000.0001)                         to pts i=  -1:  18, j=   9:  10 in tile     41 (pr=   1)
(PID.TID 0000.0001) Tile    43 (pr=   1) sends pts i=  15:  16, j=  -1:  10
(PID.TID 0000.0001)                         to pts i=  -1:   0, j=  -1:  10 in tile     44 (pr=   1)
(PID.TID 0000.0001) Tile    43 (pr=   1) sends pts i=   1:   2, j=  -1:  10
(PID.TID 0000.0001)                         to pts i=  17:  18, j=  -1:  10 in tile     36 (pr=   1)
(PID.TID 0000.0001) Tile    44 (pr=   1) sends pts i=  -1:  18, j=   7:   8
(PID.TID 0000.0001)                         to pts i=  -1:  18, j=  -1:   0 in tile     46 (pr=   1)
(PID.TID 0000.0001) Tile    44 (pr=   1) sends pts i=  -1:  18, j=   1:   2
(PID.TID 0000.0001)                         to pts i=  -1:  18, j=   9:  10 in tile     42 (pr=   1)
(PID.TID 0000.0001) Tile    44 (pr=   1) sends pts i=  15:  16, j=  10:  -1
(PID.TID 0000.0001)                         to pts i=  -1:  10, j=  -1:   0 in tile     10 (pr=   1)
(PID.TID 0000.0001) Tile    44 (pr=   1) sends pts i=   1:   2, j=  -1:  10
(PID.TID 0000.0001)                         to pts i=  17:  18, j=  -1:  10 in tile     43 (pr=   1)
(PID.TID 0000.0001) Tile    45 (pr=   1) sends pts i=  -1:  18, j=   7:   8
(PID.TID 0000.0001)                         to pts i=  -1:  18, j=  -1:   0 in tile     47 (pr=   1)
(PID.TID 0000.0001) Tile    45 (pr=   1) sends pts i=  -1:  18, j=   1:   2
(PID.TID 0000.0001)                         to pts i=  -1:  18, j=   9:  10 in tile     43 (pr=   1)
(PID.TID 0000.0001) Tile    45 (pr=   1) sends pts i=  15:  16, j=  -1:  10
(PID.TID 0000.0001)                         to pts i=  -1:   0, j=  -1:  10 in tile     46 (pr=   1)
(PID.TID 0000.0001) Tile    45 (pr=   1) sends pts i=   1:   2, j=  -1:  10
(PID.TID 0000.0001)                         to pts i=  17:  18, j=  -1:  10 in tile     38 (pr=   1)
(PID.TID 0000.0001) Tile    46 (pr=   1) sends pts i=  -1:  18, j=   7:   8
(PID.TID 0000.0001)                         to pts i=  -1:  18, j=  -1:   0 in tile     48 (pr=   1)
(PID.TID 0000.0001) Tile    46 (pr=   1) sends pts i=  -1:  18, j=   1:   2
(PID.TID 0000.0001)                         to pts i=  -1:  18, j=   9:  10 in tile     44 (pr=   1)
(PID.TID 0000.0001) Tile    46 (pr=   1) sends pts i=  15:  16, j=  10:  -1
(PID.TID 0000.0001)                         to pts i=   7:  18, j=  -1:   0 in tile      9 (pr=   1)
(PID.TID 0000.0001) Tile    46 (pr=   1) sends pts i=   1:   2, j=  -1:  10
(PID.TID 0000.0001)                         to pts i=  17:  18, j=  -1:  10 in tile     45 (pr=   1)
(PID.TID 0000.0001) Tile    47 (pr=   1) sends pts i=  -1:  18, j=   7:   8
(PID.TID 0000.0001)                         to pts i=  -1:  18, j=  -1:   0 in tile      1 (pr=   1)
(PID.TID 0000.0001) Tile    47 (pr=   1) sends pts i=  -1:  18, j=   1:   2
(PID.TID 0000.0001)                         to pts i=  -1:  18, j=   9:  10 in tile     45 (pr=   1)
(PID.TID 0000.0001) Tile    47 (pr=   1) sends pts i=  15:  16, j=  -1:  10
(PID.TID 0000.0001)                         to pts i=  -1:   0, j=  -1:  10 in tile     48 (pr=   1)
(PID.TID 0000.0001) Tile    47 (pr=   1) sends pts i=   1:   2, j=  -1:  10
(PID.TID 0000.0001)                         to pts i=  17:  18, j=  -1:  10 in tile     40 (pr=   1)
(PID.TID 0000.0001) Tile    48 (pr=   1) sends pts i=  -1:  18, j=   7:   8
(PID.TID 0000.0001)                         to pts i=  -1:  18, j=  -1:   0 in tile      2 (pr=   1)
(PID.TID 0000.0001) Tile    48 (pr=   1) sends pts i=  -1:  18, j=   1:   2
(PID.TID 0000.0001)                         to pts i=  -1:  18, j=   9:  10 in tile     46 (pr=   1)
(PID.TID 0000.0001) Tile    48 (pr=   1) sends pts i=  15:  16, j=  10:  -1
(PID.TID 0000.0001)                         to pts i=  -1:  10, j=  -1:   0 in tile      9 (pr=   1)
(PID.TID 0000.0001) Tile    48 (pr=   1) sends pts i=   1:   2, j=  -1:  10
(PID.TID 0000.0001)                         to pts i=  17:  18, j=  -1:  10 in tile     47 (pr=   1)
(PID.TID 0000.0001) Tile     1 (pr=   1) recv pts i=  -1:  18, j=   9:  10 from tile     3 (pr=   1)
(PID.TID 0000.0001) Tile     1 (pr=   1) recv pts i=  -1:  18, j=  -1:   0 from tile    47 (pr=   1)
(PID.TID 0000.0001) Tile     1 (pr=   1) recv pts i=  17:  18, j=  -1:  10 from tile     2 (pr=   1)
(PID.TID 0000.0001) Tile     1 (pr=   1) recv pts i=  -1:   0, j=  -1:  10 from tile    40 (pr=   1)
(PID.TID 0000.0001) Tile     2 (pr=   1) recv pts i=  -1:  18, j=   9:  10 from tile     4 (pr=   1)
(PID.TID 0000.0001) Tile     2 (pr=   1) recv pts i=  -1:  18, j=  -1:   0 from tile    48 (pr=   1)
(PID.TID 0000.0001) Tile     2 (pr=   1) recv pts i=  17:  18, j=  -1:  10 from tile     9 (pr=   1)
(PID.TID 0000.0001) Tile     2 (pr=   1) recv pts i=  -1:   0, j=  -1:  10 from tile     1 (pr=   1)
(PID.TID 0000.0001) Tile     3 (pr=   1) recv pts i=  -1:  18, j=   9:  10 from tile     5 (pr=   1)
(PID.TID 0000.0001) Tile     3 (pr=   1) recv pts i=  -1:  18, j=  -1:   0 from tile     1 (pr=   1)
(PID.TID 0000.0001) Tile     3 (pr=   1) recv pts i=  17:  18, j=  -1:  10 from tile     4 (pr=   1)
(PID.TID 0000.0001) Tile     3 (pr=   1) recv pts i=  -1:   0, j=  -1:  10 from tile    40 (pr=   1)
(PID.TID 0000.0001) Tile     4 (pr=   1) recv pts i=  -1:  18, j=   9:  10 from tile     6 (pr=   1)
(PID.TID 0000.0001) Tile     4 (pr=   1) recv pts i=  -1:  18, j=  -1:   0 from tile     2 (pr=   1)
(PID.TID 0000.0001) Tile     4 (pr=   1) recv pts i=  17:  18, j=  -1:  10 from tile    11 (pr=   1)
(PID.TID 0000.0001) Tile     4 (pr=   1) recv pts i=  -1:   0, j=  -1:  10 from tile     3 (pr=   1)
(PID.TID 0000.0001) Tile     5 (pr=   1) recv pts i=  -1:  18, j=   9:  10 from tile     7 (pr=   1)
(PID.TID 0000.0001) Tile     5 (pr=   1) recv pts i=  -1:  18, j=  -1:   0 from tile     3 (pr=   1)
(PID.TID 0000.0001) Tile     5 (pr=   1) recv pts i=  17:  18, j=  -1:  10 from tile     6 (pr=   1)
(PID.TID 0000.0001) Tile     5 (pr=   1) recv pts i=  -1:   0, j=  -1:  10 from tile    39 (pr=   1)
(PID.TID 0000.0001) Tile     6 (pr=   1) recv pts i=  -1:  18, j=   9:  10 from tile     8 (pr=   1)
(PID.TID 0000.0001) Tile     6 (pr=   1) recv pts i=  -1:  18, j=  -1:   0 from tile     4 (pr=   1)
(PID.TID 0000.0001) Tile     6 (pr=   1) recv pts i=  17:  18, j=  -1:  10 from tile    13 (pr=   1)
(PID.TID 0000.0001) Tile     6 (pr=   1) recv pts i=  -1:   0, j=  -1:  10 from tile     5 (pr=   1)
(PID.TID 0000.0001) Tile     7 (pr=   1) recv pts i=   7:  18, j=   9:  10 from tile    21 (pr=   1)
(PID.TID 0000.0001) Tile     7 (pr=   1) recv pts i=  -1:  10, j=   9:  10 from tile    23 (pr=   1)
(PID.TID 0000.0001) Tile     7 (pr=   1) recv pts i=  -1:  18, j=  -1:   0 from tile     5 (pr=   1)
(PID.TID 0000.0001) Tile     7 (pr=   1) recv pts i=  17:  18, j=  -1:  10 from tile     8 (pr=   1)
(PID.TID 0000.0001) Tile     7 (pr=   1) recv pts i=  -1:   0, j=  -1:  10 from tile    39 (pr=   1)
(PID.TID 0000.0001) Tile     8 (pr=   1) recv pts i=   7:  18, j=   9:  10 from tile    17 (pr=   1)
(PID.TID 0000.0001) Tile     8 (pr=   1) recv pts i=  -1:  10, j=   9:  10 from tile    19 (pr=   1)
(PID.TID 0000.0001) Tile     8 (pr=   1) recv pts i=  -1:  18, j=  -1:   0 from tile     6 (pr=   1)
(PID.TID 0000.0001) Tile     8 (pr=   1) recv pts i=  17:  18, j=  -1:  10 from tile    15 (pr=   1)
(PID.TID 0000.0001) Tile     8 (pr=   1) recv pts i=  -1:   0, j=  -1:  10 from tile     7 (pr=   1)
(PID.TID 0000.0001) Tile     9 (pr=   1) recv pts i=  -1:  18, j=   9:  10 from tile    11 (pr=   1)
(PID.TID 0000.0001) Tile     9 (pr=   1) recv pts i=   7:  18, j=  -1:   0 from tile    46 (pr=   1)
(PID.TID 0000.0001) Tile     9 (pr=   1) recv pts i=  -1:  10, j=  -1:   0 from tile    48 (pr=   1)
(PID.TID 0000.0001) Tile     9 (pr=   1) recv pts i=  17:  18, j=  -1:  10 from tile    10 (pr=   1)
(PID.TID 0000.0001) Tile     9 (pr=   1) recv pts i=  -1:   0, j=  -1:  10 from tile     2 (pr=   1)
(PID.TID 0000.0001) Tile    10 (pr=   1) recv pts i=  -1:  18, j=   9:  10 from tile    12 (pr=   1)
(PID.TID 0000.0001) Tile    10 (pr=   1) recv pts i=   7:  18, j=  -1:   0 from tile    42 (pr=   1)
(PID.TID 0000.0001) Tile    10 (pr=   1) recv pts i=  -1:  10, j=  -1:   0 from tile    44 (pr=   1)
(PID.TID 0000.0001) Tile    10 (pr=   1) recv pts i=  17:  18, j=  -1:  10 from tile    26 (pr=   1)
(PID.TID 0000.0001) Tile    10 (pr=   1) recv pts i=  -1:   0, j=  -1:  10 from tile     9 (pr=   1)
(PID.TID 0000.0001) Tile    11 (pr=   1) recv pts i=  -1:  18, j=   9:  10 from tile    13 (pr=   1)
(PID.TID 0000.0001) Tile    11 (pr=   1) recv pts i=  -1:  18, j=  -1:   0 from tile     9 (pr=   1)
(PID.TID 0000.0001) Tile    11 (pr=   1) recv pts i=  17:  18, j=  -1:  10 from tile    12 (pr=   1)
(PID.TID 0000.0001) Tile    11 (pr=   1) recv pts i=  -1:   0, j=  -1:  10 from tile     4 (pr=   1)
(PID.TID 0000.0001) Tile    12 (pr=   1) recv pts i=  -1:  18, j=   9:  10 from tile    14 (pr=   1)
(PID.TID 0000.0001) Tile    12 (pr=   1) recv pts i=  -1:  18, j=  -1:   0 from tile    10 (pr=   1)
(PID.TID 0000.0001) Tile    12 (pr=   1) recv pts i=  17:  18, j=  -1:  10 from tile    26 (pr=   1)
(PID.TID 0000.0001) Tile    12 (pr=   1) recv pts i=  -1:   0, j=  -1:  10 from tile    11 (pr=   1)
(PID.TID 0000.0001) Tile    13 (pr=   1) recv pts i=  -1:  18, j=   9:  10 from tile    15 (pr=   1)
(PID.TID 0000.0001) Tile    13 (pr=   1) recv pts i=  -1:  18, j=  -1:   0 from tile    11 (pr=   1)
(PID.TID 0000.0001) Tile    13 (pr=   1) recv pts i=  17:  18, j=  -1:  10 from tile    14 (pr=   1)
(PID.TID 0000.0001) Tile    13 (pr=   1) recv pts i=  -1:   0, j=  -1:  10 from tile     6 (pr=   1)
(PID.TID 0000.0001) Tile    14 (pr=   1) recv pts i=  -1:  18, j=   9:  10 from tile    16 (pr=   1)
(PID.TID 0000.0001) Tile    14 (pr=   1) recv pts i=  -1:  18, j=  -1:   0 from tile    12 (pr=   1)
(PID.TID 0000.0001) Tile    14 (pr=   1) recv pts i=  17:  18, j=  -1:  10 from tile    25 (pr=   1)
(PID.TID 0000.0001) Tile    14 (pr=   1) recv pts i=  -1:   0, j=  -1:  10 from tile    13 (pr=   1)
(PID.TID 0000.0001) Tile    15 (pr=   1) recv pts i=  -1:  18, j=   9:  10 from tile    17 (pr=   1)
(PID.TID 0000.0001) Tile    15 (pr=   1) recv pts i=  -1:  18, j=  -1:   0 from tile    13 (pr=   1)
(PID.TID 0000.0001) Tile    15 (pr=   1) recv pts i=  17:  18, j=  -1:  10 from tile    16 (pr=   1)
(PID.TID 0000.0001) Tile    15 (pr=   1) recv pts i=  -1:   0, j=  -1:  10 from tile     8 (pr=   1)
(PID.TID 0000.0001) Tile    16 (pr=   1) recv pts i=  -1:  18, j=   9:  10 from tile    18 (pr=   1)
(PID.TID 0000.0001) Tile    16 (pr=   1) recv pts i=  -1:  18, j=  -1:   0 from tile    14 (pr=   1)
(PID.TID 0000.0001) Tile    16 (pr=   1) recv pts i=  17:  18, j=  -1:  10 from tile    25 (pr=   1)
(PID.TID 0000.0001) Tile    16 (pr=   1) recv pts i=  -1:   0, j=  -1:  10 from tile    15 (pr=   1)
(PID.TID 0000.0001) Tile    17 (pr=   1) recv pts i=  -1:  18, j=   9:  10 from tile    19 (pr=   1)
(PID.TID 0000.0001) Tile    17 (pr=   1) recv pts i=  -1:  18, j=  -1:   0 from tile    15 (pr=   1)
(PID.TID 0000.0001) Tile    17 (pr=   1) recv pts i=  17:  18, j=  -1:  10 from tile    18 (pr=   1)
(PID.TID 0000.0001) Tile    17 (pr=   1) recv pts i=  -1:   0, j=  -1:  10 from tile     8 (pr=   1)
(PID.TID 0000.0001) Tile    18 (pr=   1) recv pts i=  -1:  18, j=   9:  10 from tile    20 (pr=   1)
(PID.TID 0000.0001) Tile    18 (pr=   1) recv pts i=  -1:  18, j=  -1:   0 from tile    16 (pr=   1)
(PID.TID 0000.0001) Tile    18 (pr=   1) recv pts i=  17:  18, j=  -1:  10 from tile    25 (pr=   1)
(PID.TID 0000.0001) Tile    18 (pr=   1) recv pts i=  -1:   0, j=  -1:  10 from tile    17 (pr=   1)
(PID.TID 0000.0001) Tile    19 (pr=   1) recv pts i=  -1:  18, j=   9:  10 from tile    21 (pr=   1)
(PID.TID 0000.0001) Tile    19 (pr=   1) recv pts i=  -1:  18, j=  -1:   0 from tile    17 (pr=   1)
(PID.TID 0000.0001) Tile    19 (pr=   1) recv pts i=  17:  18, j=  -1:  10 from tile    20 (pr=   1)
(PID.TID 0000.0001) Tile    19 (pr=   1) recv pts i=  -1:   0, j=  -1:  10 from tile     8 (pr=   1)
(PID.TID 0000.0001) Tile    20 (pr=   1) recv pts i=  -1:  18, j=   9:  10 from tile    22 (pr=   1)
(PID.TID 0000.0001) Tile    20 (pr=   1) recv pts i=  -1:  18, j=  -1:   0 from tile    18 (pr=   1)
(PID.TID 0000.0001) Tile    20 (pr=   1) recv pts i=  17:  18, j=  -1:  10 from tile    27 (pr=   1)
(PID.TID 0000.0001) Tile    20 (pr=   1) recv pts i=  -1:   0, j=  -1:  10 from tile    19 (pr=   1)
(PID.TID 0000.0001) Tile    21 (pr=   1) recv pts i=  -1:  18, j=   9:  10 from tile    23 (pr=   1)
(PID.TID 0000.0001) Tile    21 (pr=   1) recv pts i=  -1:  18, j=  -1:   0 from tile    19 (pr=   1)
(PID.TID 0000.0001) Tile    21 (pr=   1) recv pts i=  17:  18, j=  -1:  10 from tile    22 (pr=   1)
(PID.TID 0000.0001) Tile    21 (pr=   1) recv pts i=  -1:   0, j=  -1:  10 from tile     7 (pr=   1)
(PID.TID 0000.0001) Tile    22 (pr=   1) recv pts i=  -1:  18, j=   9:  10 from tile    24 (pr=   1)
(PID.TID 0000.0001) Tile    22 (pr=   1) recv pts i=  -1:  18, j=  -1:   0 from tile    20 (pr=   1)
(PID.TID 0000.0001) Tile    22 (pr=   1) recv pts i=  17:  18, j=  -1:  10 from tile    29 (pr=   1)
(PID.TID 0000.0001) Tile    22 (pr=   1) recv pts i=  -1:   0, j=  -1:  10 from tile    21 (pr=   1)
(PID.TID 0000.0001) Tile    23 (pr=   1) recv pts i=   7:  18, j=   9:  10 from tile    37 (pr=   1)
(PID.TID 0000.0001) Tile    23 (pr=   1) recv pts i=  -1:  10, j=   9:  10 from tile    39 (pr=   1)
(PID.TID 0000.0001) Tile    23 (pr=   1) recv pts i=  -1:  18, j=  -1:   0 from tile    21 (pr=   1)
(PID.TID 0000.0001) Tile    23 (pr=   1) recv pts i=  17:  18, j=  -1:  10 from tile    24 (pr=   1)
(PID.TID 0000.0001) Tile    23 (pr=   1) recv pts i=  -1:   0, j=  -1:  10 from tile     7 (pr=   1)
(PID.TID 0000.0001) Tile    24 (pr=   1) recv pts i=   7:  18, j=   9:  10 from tile    33 (pr=   1)
(PID.TID 0000.0001) Tile    24 (pr=   1) recv pts i=  -1:  10, j=   9:  10 from tile    35 (pr=   1)
(PID.TID 0000.0001) Tile    24 (pr=   1) recv pts i=  -1:  18, j=  -1:   0 from tile    22 (pr=   1)
(PID.TID 0000.0001) Tile    24 (pr=   1) recv pts i=  17:  18, j=  -1:  10 from tile    31 (pr=   1)
(PID.TID 0000.0001) Tile    24 (pr=   1) recv pts i=  -1:   0, j=  -1:  10 from tile    23 (pr=   1)
(PID.TID 0000.0001) Tile    25 (pr=   1) recv pts i=  -1:  18, j=   9:  10 from tile    27 (pr=   1)
(PID.TID 0000.0001) Tile    25 (pr=   1) recv pts i=   7:  18, j=  -1:   0 from tile    14 (pr=   1)
(PID.TID 0000.0001) Tile    25 (pr=   1) recv pts i=  -1:  10, j=  -1:   0 from tile    16 (pr=   1)
(PID.TID 0000.0001) Tile    25 (pr=   1) recv pts i=  17:  18, j=  -1:  10 from tile    26 (pr=   1)
(PID.TID 0000.0001) Tile    25 (pr=   1) recv pts i=  -1:   0, j=  -1:  10 from tile    18 (pr=   1)
(PID.TID 0000.0001) Tile    26 (pr=   1) recv pts i=  -1:  18, j=   9:  10 from tile    28 (pr=   1)
(PID.TID 0000.0001) Tile    26 (pr=   1) recv pts i=   7:  18, j=  -1:   0 from tile    10 (pr=   1)
(PID.TID 0000.0001) Tile    26 (pr=   1) recv pts i=  -1:  10, j=  -1:   0 from tile    12 (pr=   1)
(PID.TID 0000.0001) Tile    26 (pr=   1) recv pts i=  17:  18, j=  -1:  10 from tile    42 (pr=   1)
(PID.TID 0000.0001) Tile    26 (pr=   1) recv pts i=  -1:   0, j=  -1:  10 from tile    25 (pr=   1)
(PID.TID 0000.0001) Tile    27 (pr=   1) recv pts i=  -1:  18, j=   9:  10 from tile    29 (pr=   1)
(PID.TID 0000.0001) Tile    27 (pr=   1) recv pts i=  -1:  18, j=  -1:   0 from tile    25 (pr=   1)
(PID.TID 0000.0001) Tile    27 (pr=   1) recv pts i=  17:  18, j=  -1:  10 from tile    28 (pr=   1)
(PID.TID 0000.0001) Tile    27 (pr=   1) recv pts i=  -1:   0, j=  -1:  10 from tile    20 (pr=   1)
(PID.TID 0000.0001) Tile    28 (pr=   1) recv pts i=  -1:  18, j=   9:  10 from tile    30 (pr=   1)
(PID.TID 0000.0001) Tile    28 (pr=   1) recv pts i=  -1:  18, j=  -1:   0 from tile    26 (pr=   1)
(PID.TID 0000.0001) Tile    28 (pr=   1) recv pts i=  17:  18, j=  -1:  10 from tile    42 (pr=   1)
(PID.TID 0000.0001) Tile    28 (pr=   1) recv pts i=  -1:   0, j=  -1:  10 from tile    27 (pr=   1)
(PID.TID 0000.0001) Tile    29 (pr=   1) recv pts i=  -1:  18, j=   9:  10 from tile    31 (pr=   1)
(PID.TID 0000.0001) Tile    29 (pr=   1) recv pts i=  -1:  18, j=  -1:   0 from tile    27 (pr=   1)
(PID.TID 0000.0001) Tile    29 (pr=   1) recv pts i=  17:  18, j=  -1:  10 from tile    30 (pr=   1)
(PID.TID 0000.0001) Tile    29 (pr=   1) recv pts i=  -1:   0, j=  -1:  10 from tile    22 (pr=   1)
(PID.TID 0000.0001) Tile    30 (pr=   1) recv pts i=  -1:  18, j=   9:  10 from tile    32 (pr=   1)
(PID.TID 0000.0001) Tile    30 (pr=   1) recv pts i=  -1:  18, j=  -1:   0 from tile    28 (pr=   1)
(PID.TID 0000.0001) Tile    30 (pr=   1) recv pts i=  17:  18, j=  -1:  10 from tile    41 (pr=   1)
(PID.TID 0000.0001) Tile    30 (pr=   1) recv pts i=  -1:   0, j=  -1:  10 from tile    29 (pr=   1)
(PID.TID 0000.0001) Tile    31 (pr=   1) recv pts i=  -1:  18, j=   9:  10 from tile    33 (pr=   1)
(PID.TID 0000.0001) Tile    31 (pr=   1) recv pts i=  -1:  18, j=  -1:   0 from tile    29 (pr=   1)
(PID.TID 0000.0001) Tile    31 (pr=   1) recv pts i=  17:  18, j=  -1:  10 from tile    32 (pr=   1)
(PID.TID 0000.0001) Tile    31 (pr=   1) recv pts i=  -1:   0, j=  -1:  10 from tile    24 (pr=   1)
(PID.TID 0000.0001) Tile    32 (pr=   1) recv pts i=  -1:  18, j=   9:  10 from tile    34 (pr=   1)
(PID.TID 0000.0001) Tile    32 (pr=   1) recv pts i=  -1:  18, j=  -1:   0 from tile    30 (pr=   1)
(PID.TID 0000.0001) Tile    32 (pr=   1) recv pts i=  17:  18, j=  -1:  10 from tile    41 (pr=   1)
(PID.TID 0000.0001) Tile    32 (pr=   1) recv pts i=  -1:   0, j=  -1:  10 from tile    31 (pr=   1)
(PID.TID 0000.0001) Tile    33 (pr=   1) recv pts i=  -1:  18, j=   9:  10 from tile    35 (pr=   1)
(PID.TID 0000.0001) Tile    33 (pr=   1) recv pts i=  -1:  18, j=  -1:   0 from tile    31 (pr=   1)
(PID.TID 0000.0001) Tile    33 (pr=   1) recv pts i=  17:  18, j=  -1:  10 from tile    34 (pr=   1)
(PID.TID 0000.0001) Tile    33 (pr=   1) recv pts i=  -1:   0, j=  -1:  10 from tile    24 (pr=   1)
(PID.TID 0000.0001) Tile    34 (pr=   1) recv pts i=  -1:  18, j=   9:  10 from tile    36 (pr=   1)
(PID.TID 0000.0001) Tile    34 (pr=   1) recv pts i=  -1:  18, j=  -1:   0 from tile    32 (pr=   1)
(PID.TID 0000.0001) Tile    34 (pr=   1) recv pts i=  17:  18, j=  -1:  10 from tile    41 (pr=   1)
(PID.TID 0000.0001) Tile    34 (pr=   1) recv pts i=  -1:   0, j=  -1:  10 from tile    33 (pr=   1)
(PID.TID 0000.0001) Tile    35 (pr=   1) recv pts i=  -1:  18, j=   9:  10 from tile    37 (pr=   1)
(PID.TID 0000.0001) Tile    35 (pr=   1) recv pts i=  -1:  18, j=  -1:   0 from tile    33 (pr=   1)
(PID.TID 0000.0001) Tile    35 (pr=   1) recv pts i=  17:  18, j=  -1:  10 from tile    36 (pr=   1)
(PID.TID 0000.0001) Tile    35 (pr=   1) recv pts i=  -1:   0, j=  -1:  10 from tile    24 (pr=   1)
(PID.TID 0000.0001) Tile    36 (pr=   1) recv pts i=  -1:  18, j=   9:  10 from tile    38 (pr=   1)
(PID.TID 0000.0001) Tile    36 (pr=   1) recv pts i=  -1:  18, j=  -1:   0 from tile    34 (pr=   1)
(PID.TID 0000.0001) Tile    36 (pr=   1) recv pts i=  17:  18, j=  -1:  10 from tile    43 (pr=   1)
(PID.TID 0000.0001) Tile    36 (pr=   1) recv pts i=  -1:   0, j=  -1:  10 from tile    35 (pr=   1)
(PID.TID 0000.0001) Tile    37 (pr=   1) recv pts i=  -1:  18, j=   9:  10 from tile    39 (pr=   1)
(PID.TID 0000.0001) Tile    37 (pr=   1) recv pts i=  -1:  18, j=  -1:   0 from tile    35 (pr=   1)
(PID.TID 0000.0001) Tile    37 (pr=   1) recv pts i=  17:  18, j=  -1:  10 from tile    38 (pr=   1)
(PID.TID 0000.0001) Tile    37 (pr=   1) recv pts i=  -1:   0, j=  -1:  10 from tile    23 (pr=   1)
(PID.TID 0000.0001) Tile    38 (pr=   1) recv pts i=  -1:  18, j=   9:  10 from tile    40 (pr=   1)
(PID.TID 0000.0001) Tile    38 (pr=   1) recv pts i=  -1:  18, j=  -1:   0 from tile    36 (pr=   1)
(PID.TID 0000.0001) Tile    38 (pr=   1) recv pts i=  17:  18, j=  -1:  10 from tile    45 (pr=   1)
(PID.TID 0000.0001) Tile    38 (pr=   1) recv pts i=  -1:   0, j=  -1:  10 from tile    37 (pr=   1)
(PID.TID 0000.0001) Tile    39 (pr=   1) recv pts i=   7:  18, j=   9:  10 from tile     5 (pr=   1)
(PID.TID 0000.0001) Tile    39 (pr=   1) recv pts i=  -1:  10, j=   9:  10 from tile     7 (pr=   1)
(PID.TID 0000.0001) Tile    39 (pr=   1) recv pts i=  -1:  18, j=  -1:   0 from tile    37 (pr=   1)
(PID.TID 0000.0001) Tile    39 (pr=   1) recv pts i=  17:  18, j=  -1:  10 from tile    40 (pr=   1)
(PID.TID 0000.0001) Tile    39 (pr=   1) recv pts i=  -1:   0, j=  -1:  10 from tile    23 (pr=   1)
(PID.TID 0000.0001) Tile    40 (pr=   1) recv pts i=   7:  18, j=   9:  10 from tile     1 (pr=   1)
(PID.TID 0000.0001) Tile    40 (pr=   1) recv pts i=  -1:  10, j=   9:  10 from tile     3 (pr=   1)
(PID.TID 0000.0001) Tile    40 (pr=   1) recv pts i=  -1:  18, j=  -1:   0 from tile    38 (pr=   1)
(PID.TID 0000.0001) Tile    40 (pr=   1) recv pts i=  17:  18, j=  -1:  10 from tile    47 (pr=   1)
(PID.TID 0000.0001) Tile    40 (pr=   1) recv pts i=  -1:   0, j=  -1:  10 from tile    39 (pr=   1)
(PID.TID 0000.0001) Tile    41 (pr=   1) recv pts i=  -1:  18, j=   9:  10 from tile    43 (pr=   1)
(PID.TID 0000.0001) Tile    41 (pr=   1) recv pts i=   7:  18, j=  -1:   0 from tile    30 (pr=   1)
(PID.TID 0000.0001) Tile    41 (pr=   1) recv pts i=  -1:  10, j=  -1:   0 from tile    32 (pr=   1)
(PID.TID 0000.0001) Tile    41 (pr=   1) recv pts i=  17:  18, j=  -1:  10 from tile    42 (pr=   1)
(PID.TID 0000.0001) Tile    41 (pr=   1) recv pts i=  -1:   0, j=  -1:  10 from tile    34 (pr=   1)
(PID.TID 0000.0001) Tile    42 (pr=   1) recv pts i=  -1:  18, j=   9:  10 from tile    44 (pr=   1)
(PID.TID 0000.0001) Tile    42 (pr=   1) recv pts i=   7:  18, j=  -1:   0 from tile    26 (pr=   1)
(PID.TID 0000.0001) Tile    42 (pr=   1) recv pts i=  -1:  10, j=  -1:   0 from tile    28 (pr=   1)
(PID.TID 0000.0001) Tile    42 (pr=   1) recv pts i=  17:  18, j=  -1:  10 from tile    10 (pr=   1)
(PID.TID 0000.0001) Tile    42 (pr=   1) recv pts i=  -1:   0, j=  -1:  10 from tile    41 (pr=   1)
(PID.TID 0000.0001) Tile    43 (pr=   1) recv pts i=  -1:  18, j=   9:  10 from tile    45 (pr=   1)
(PID.TID 0000.0001) Tile    43 (pr=   1) recv pts i=  -1:  18, j=  -1:   0 from tile    41 (pr=   1)
(PID.TID 0000.0001) Tile    43 (pr=   1) recv pts i=  17:  18, j=  -1:  10 from tile    44 (pr=   1)
(PID.TID 0000.0001) Tile    43 (pr=   1) recv pts i=  -1:   0, j=  -1:  10 from tile    36 (pr=   1)
(PID.TID 0000.0001) Tile    44 (pr=   1) recv pts i=  -1:  18, j=   9:  10 from tile    46 (pr=   1)
(PID.TID 0000.0001) Tile    44 (pr=   1) recv pts i=  -1:  18, j=  -1:   0 from tile    42 (pr=   1)
(PID.TID 0000.0001) Tile    44 (pr=   1) recv pts i=  17:  18, j=  -1:  10 from tile    10 (pr=   1)
(PID.TID 0000.0001) Tile    44 (pr=   1) recv pts i=  -1:   0, j=  -1:  10 from tile    43 (pr=   1)
(PID.TID 0000.0001) Tile    45 (pr=   1) recv pts i=  -1:  18, j=   9:  10 from tile    47 (pr=   1)
(PID.TID 0000.0001) Tile    45 (pr=   1) recv pts i=  -1:  18, j=  -1:   0 from tile    43 (pr=   1)
(PID.TID 0000.0001) Tile    45 (pr=   1) recv pts i=  17:  18, j=  -1:  10 from tile    46 (pr=   1)
(PID.TID 0000.0001) Tile    45 (pr=   1) recv pts i=  -1:   0, j=  -1:  10 from tile    38 (pr=   1)
(PID.TID 0000.0001) Tile    46 (pr=   1) recv pts i=  -1:  18, j=   9:  10 from tile    48 (pr=   1)
(PID.TID 0000.0001) Tile    46 (pr=   1) recv pts i=  -1:  18, j=  -1:   0 from tile    44 (pr=   1)
(PID.TID 0000.0001) Tile    46 (pr=   1) recv pts i=  17:  18, j=  -1:  10 from tile     9 (pr=   1)
(PID.TID 0000.0001) Tile    46 (pr=   1) recv pts i=  -1:   0, j=  -1:  10 from tile    45 (pr=   1)
(PID.TID 0000.0001) Tile    47 (pr=   1) recv pts i=  -1:  18, j=   9:  10 from tile     1 (pr=   1)
(PID.TID 0000.0001) Tile    47 (pr=   1) recv pts i=  -1:  18, j=  -1:   0 from tile    45 (pr=   1)
(PID.TID 0000.0001) Tile    47 (pr=   1) recv pts i=  17:  18, j=  -1:  10 from tile    48 (pr=   1)
(PID.TID 0000.0001) Tile    47 (pr=   1) recv pts i=  -1:   0, j=  -1:  10 from tile    40 (pr=   1)
(PID.TID 0000.0001) Tile    48 (pr=   1) recv pts i=  -1:  18, j=   9:  10 from tile     2 (pr=   1)
(PID.TID 0000.0001) Tile    48 (pr=   1) recv pts i=  -1:  18, j=  -1:   0 from tile    46 (pr=   1)
(PID.TID 0000.0001) Tile    48 (pr=   1) recv pts i=  17:  18, j=  -1:  10 from tile     9 (pr=   1)
(PID.TID 0000.0001) Tile    48 (pr=   1) recv pts i=  -1:   0, j=  -1:  10 from tile    47 (pr=   1)
(PID.TID 0000.0001) // =======================================================
(PID.TID 0000.0001) // Model parameter file "data"
(PID.TID 0000.0001) // =======================================================
(PID.TID 0000.0001) ># ====================
(PID.TID 0000.0001) ># | Model parameters |
(PID.TID 0000.0001) ># ====================
(PID.TID 0000.0001) >#
(PID.TID 0000.0001) ># Continuous equation parameters
(PID.TID 0000.0001) > &PARM01
(PID.TID 0000.0001) > tRef=15.,
(PID.TID 0000.0001) > sRef=0.,
(PID.TID 0000.0001) > viscAr=0.,
(PID.TID 0000.0001) > viscAh=0.,
(PID.TID 0000.0001) > viscA4=0.,
(PID.TID 0000.0001) > no_slip_sides=.FALSE.,
(PID.TID 0000.0001) > no_slip_bottom=.FALSE.,
(PID.TID 0000.0001) > buoyancyRelation='OCEANIC',
(PID.TID 0000.0001) > eosType='LINEAR',
(PID.TID 0000.0001) > gravity=9.8184,
(PID.TID 0000.0001) > rhonil=1000.,
(PID.TID 0000.0001) > rhoConst=1000.,
(PID.TID 0000.0001) > implicitFreeSurface=.TRUE.,
(PID.TID 0000.0001) > implicSurfPress=0.5,
(PID.TID 0000.0001) > implicDiv2DFlow=0.5,
(PID.TID 0000.0001) >#nonlinFreeSurf=3,
(PID.TID 0000.0001) >#hFacInf=0.2,
(PID.TID 0000.0001) >#hFacSup=1.8,
(PID.TID 0000.0001) > exactConserv=.TRUE.,
(PID.TID 0000.0001) > momAdvection=.FALSE.,
(PID.TID 0000.0001) > useCoriolis=.FALSE.,
(PID.TID 0000.0001) > tempStepping=.FALSE.,
(PID.TID 0000.0001) > saltStepping=.FALSE.,
(PID.TID 0000.0001) > readBinaryPrec=64,
(PID.TID 0000.0001) > writeBinaryPrec=64,
(PID.TID 0000.0001) > useSingleCpuIO=.TRUE.,
(PID.TID 0000.0001) > &
(PID.TID 0000.0001) >
(PID.TID 0000.0001) ># Elliptic solver parameters
(PID.TID 0000.0001) > &PARM02
(PID.TID 0000.0001) > cg2dMaxIters=600,
(PID.TID 0000.0001) > cg2dTargetResidual=1.E-13,
(PID.TID 0000.0001) > &
(PID.TID 0000.0001) >
(PID.TID 0000.0001) ># Time stepping parameters
(PID.TID 0000.0001) > &PARM03
(PID.TID 0000.0001) > nIter0=0,
(PID.TID 0000.0001) > nTimeSteps=24,
(PID.TID 0000.0001) >#endTime=172800.,
(PID.TID 0000.0001) > abEps=0.1,
(PID.TID 0000.0001) > deltaT=900.,
(PID.TID 0000.0001) > cAdjFreq=0.,
(PID.TID 0000.0001) > pChkptFreq=0.,
(PID.TID 0000.0001) > chkptFreq=0.,
(PID.TID 0000.0001) > dumpFreq=10800.,
(PID.TID 0000.0001) > monitorFreq=1.,
(PID.TID 0000.0001) > &
(PID.TID 0000.0001) >
(PID.TID 0000.0001) ># Gridding parameters
(PID.TID 0000.0001) > &PARM04
(PID.TID 0000.0001) > usingCurvilinearGrid=.TRUE.,
(PID.TID 0000.0001) > delR=1366.,
(PID.TID 0000.0001) > &
(PID.TID 0000.0001) >
(PID.TID 0000.0001) ># Input datasets
(PID.TID 0000.0001) > &PARM05
(PID.TID 0000.0001) > bathyFile='bathy_f2.bin',
(PID.TID 0000.0001) > pSurfInitFile='ssh_eq.bin',
(PID.TID 0000.0001) > &
(PID.TID 0000.0001) 
(PID.TID 0000.0001) S/R INI_PARMS ; starts to read PARM01
(PID.TID 0000.0001) S/R INI_PARMS ; read PARM01 : OK
(PID.TID 0000.0001) S/R INI_PARMS ; starts to read PARM02
(PID.TID 0000.0001) S/R INI_PARMS ; read PARM02 : OK
(PID.TID 0000.0001) S/R INI_PARMS ; starts to read PARM03
(PID.TID 0000.0001) S/R INI_PARMS ; read PARM03 : OK
(PID.TID 0000.0001) S/R INI_PARMS ; starts to read PARM04
(PID.TID 0000.0001) S/R INI_PARMS ; read PARM04 : OK
(PID.TID 0000.0001) S/R INI_PARMS ; starts to read PARM05
(PID.TID 0000.0001) S/R INI_PARMS ; read PARM05 : OK
(PID.TID 0000.0001)  PACKAGES_BOOT: opening data.pkg
(PID.TID 0000.0001)  OPEN_COPY_DATA_FILE: opening file data.pkg
(PID.TID 0000.0001) // =======================================================
(PID.TID 0000.0001) // Parameter file "data.pkg"
(PID.TID 0000.0001) // =======================================================
(PID.TID 0000.0001) ># Packages
(PID.TID 0000.0001) > &PACKAGES
(PID.TID 0000.0001) > &
(PID.TID 0000.0001) 
(PID.TID 0000.0001)  PACKAGES_BOOT: finished reading data.pkg
(PID.TID 0000.0001) SET_PARMS: done
(PID.TID 0000.0001) Enter INI_VERTICAL_GRID: setInterFDr=    T ; setCenterDr=    F
(PID.TID 0000.0001) tile:   1 ; Read from file tile001.mitgrid
(PID.TID 0000.0001)   => xC yC dxF dyF rA xG yG dxV dyU rAz dxC dyC rAw rAs dxG dyG
(PID.TID 0000.0001) tile:   2 ; Read from file tile001.mitgrid
(PID.TID 0000.0001)   => xC yC dxF dyF rA xG yG dxV dyU rAz dxC dyC rAw rAs dxG dyG
(PID.TID 0000.0001) tile:   3 ; Read from file tile001.mitgrid
(PID.TID 0000.0001)   => xC yC dxF dyF rA xG yG dxV dyU rAz dxC dyC rAw rAs dxG dyG
(PID.TID 0000.0001) tile:   4 ; Read from file tile001.mitgrid
(PID.TID 0000.0001)   => xC yC dxF dyF rA xG yG dxV dyU rAz dxC dyC rAw rAs dxG dyG
(PID.TID 0000.0001) tile:   5 ; Read from file tile001.mitgrid
(PID.TID 0000.0001)   => xC yC dxF dyF rA xG yG dxV dyU rAz dxC dyC rAw rAs dxG dyG
(PID.TID 0000.0001) tile:   6 ; Read from file tile001.mitgrid
(PID.TID 0000.0001)   => xC yC dxF dyF rA xG yG dxV dyU rAz dxC dyC rAw rAs dxG dyG
(PID.TID 0000.0001) tile:   7 ; Read from file tile001.mitgrid
(PID.TID 0000.0001)   => xC yC dxF dyF rA xG yG dxV dyU rAz dxC dyC rAw rAs dxG dyG
(PID.TID 0000.0001) tile:   8 ; Read from file tile001.mitgrid
(PID.TID 0000.0001)   => xC yC dxF dyF rA xG yG dxV dyU rAz dxC dyC rAw rAs dxG dyG
(PID.TID 0000.0001) tile:   9 ; Read from file tile002.mitgrid
(PID.TID 0000.0001)   => xC yC dxF dyF rA xG yG dxV dyU rAz dxC dyC rAw rAs dxG dyG
(PID.TID 0000.0001) tile:  10 ; Read from file tile002.mitgrid
(PID.TID 0000.0001)   => xC yC dxF dyF rA xG yG dxV dyU rAz dxC dyC rAw rAs dxG dyG
(PID.TID 0000.0001) tile:  11 ; Read from file tile002.mitgrid
(PID.TID 0000.0001)   => xC yC dxF dyF rA xG yG dxV dyU rAz dxC dyC rAw rAs dxG dyG
(PID.TID 0000.0001) tile:  12 ; Read from file tile002.mitgrid
(PID.TID 0000.0001)   => xC yC dxF dyF rA xG yG dxV dyU rAz dxC dyC rAw rAs dxG dyG
(PID.TID 0000.0001) tile:  13 ; Read from file tile002.mitgrid
(PID.TID 0000.0001)   => xC yC dxF dyF rA xG yG dxV dyU rAz dxC dyC rAw rAs dxG dyG
(PID.TID 0000.0001) tile:  14 ; Read from file tile002.mitgrid
(PID.TID 0000.0001)   => xC yC dxF dyF rA xG yG dxV dyU rAz dxC dyC rAw rAs dxG dyG
(PID.TID 0000.0001) tile:  15 ; Read from file tile002.mitgrid
(PID.TID 0000.0001)   => xC yC dxF dyF rA xG yG dxV dyU rAz dxC dyC rAw rAs dxG dyG
(PID.TID 0000.0001) tile:  16 ; Read from file tile002.mitgrid
(PID.TID 0000.0001)   => xC yC dxF dyF rA xG yG dxV dyU rAz dxC dyC rAw rAs dxG dyG
(PID.TID 0000.0001) tile:  17 ; Read from file tile003.mitgrid
(PID.TID 0000.0001)   => xC yC dxF dyF rA xG yG dxV dyU rAz dxC dyC rAw rAs dxG dyG
(PID.TID 0000.0001) tile:  18 ; Read from file tile003.mitgrid
(PID.TID 0000.0001)   => xC yC dxF dyF rA xG yG dxV dyU rAz dxC dyC rAw rAs dxG dyG
(PID.TID 0000.0001) tile:  19 ; Read from file tile003.mitgrid
(PID.TID 0000.0001)   => xC yC dxF dyF rA xG yG dxV dyU rAz dxC dyC rAw rAs dxG dyG
(PID.TID 0000.0001) tile:  20 ; Read from file tile003.mitgrid
(PID.TID 0000.0001)   => xC yC dxF dyF rA xG yG dxV dyU rAz dxC dyC rAw rAs dxG dyG
(PID.TID 0000.0001) tile:  21 ; Read from file tile003.mitgrid
(PID.TID 0000.0001)   => xC yC dxF dyF rA xG yG dxV dyU rAz dxC dyC rAw rAs dxG dyG
(PID.TID 0000.0001) tile:  22 ; Read from file tile003.mitgrid
(PID.TID 0000.0001)   => xC yC dxF dyF rA xG yG dxV dyU rAz dxC dyC rAw rAs dxG dyG
(PID.TID 0000.0001) tile:  23 ; Read from file tile003.mitgrid
(PID.TID 0000.0001)   => xC yC dxF dyF rA xG yG dxV dyU rAz dxC dyC rAw rAs dxG dyG
(PID.TID 0000.0001) tile:  24 ; Read from file tile003.mitgrid
(PID.TID 0000.0001)   => xC yC dxF dyF rA xG yG dxV dyU rAz dxC dyC rAw rAs dxG dyG
(PID.TID 0000.0001) tile:  25 ; Read from file tile004.mitgrid
(PID.TID 0000.0001)   => xC yC dxF dyF rA xG yG dxV dyU rAz dxC dyC rAw rAs dxG dyG
(PID.TID 0000.0001) tile:  26 ; Read from file tile004.mitgrid
(PID.TID 0000.0001)   => xC yC dxF dyF rA xG yG dxV dyU rAz dxC dyC rAw rAs dxG dyG
(PID.TID 0000.0001) tile:  27 ; Read from file tile004.mitgrid
(PID.TID 0000.0001)   => xC yC dxF dyF rA xG yG dxV dyU rAz dxC dyC rAw rAs dxG dyG
(PID.TID 0000.0001) tile:  28 ; Read from file tile004.mitgrid
(PID.TID 0000.0001)   => xC yC dxF dyF rA xG yG dxV dyU rAz dxC dyC rAw rAs dxG dyG
(PID.TID 0000.0001) tile:  29 ; Read from file tile004.mitgrid
(PID.TID 0000.0001)   => xC yC dxF dyF rA xG yG dxV dyU rAz dxC dyC rAw rAs dxG dyG
(PID.TID 0000.0001) tile:  30 ; Read from file tile004.mitgrid
(PID.TID 0000.0001)   => xC yC dxF dyF rA xG yG dxV dyU rAz dxC dyC rAw rAs dxG dyG
(PID.TID 0000.0001) tile:  31 ; Read from file tile004.mitgrid
(PID.TID 0000.0001)   => xC yC dxF dyF rA xG yG dxV dyU rAz dxC dyC rAw rAs dxG dyG
(PID.TID 0000.0001) tile:  32 ; Read from file tile004.mitgrid
(PID.TID 0000.0001)   => xC yC dxF dyF rA xG yG dxV dyU rAz dxC dyC rAw rAs dxG dyG
(PID.TID 0000.0001) tile:  33 ; Read from file tile005.mitgrid
(PID.TID 0000.0001)   => xC yC dxF dyF rA xG yG dxV dyU rAz dxC dyC rAw rAs dxG dyG
(PID.TID 0000.0001) tile:  34 ; Read from file tile005.mitgrid
(PID.TID 0000.0001)   => xC yC dxF dyF rA xG yG dxV dyU rAz dxC dyC rAw rAs dxG dyG
(PID.TID 0000.0001) tile:  35 ; Read from file tile005.mitgrid
(PID.TID 0000.0001)   => xC yC dxF dyF rA xG yG dxV dyU rAz dxC dyC rAw rAs dxG dyG
(PID.TID 0000.0001) tile:  36 ; Read from file tile005.mitgrid
(PID.TID 0000.0001)   => xC yC dxF dyF rA xG yG dxV dyU rAz dxC dyC rAw rAs dxG dyG
(PID.TID 0000.0001) tile:  37 ; Read from file tile005.mitgrid
(PID.TID 0000.0001)   => xC yC dxF dyF rA xG yG dxV dyU rAz dxC dyC rAw rAs dxG dyG
(PID.TID 0000.0001) tile:  38 ; Read from file tile005.mitgrid
(PID.TID 0000.0001)   => xC yC dxF dyF rA xG yG dxV dyU rAz dxC dyC rAw rAs dxG dyG
(PID.TID 0000.0001) tile:  39 ; Read from file tile005.mitgrid
(PID.TID 0000.0001)   => xC yC dxF dyF rA xG yG dxV dyU rAz dxC dyC rAw rAs dxG dyG
(PID.TID 0000.0001) tile:  40 ; Read from file tile005.mitgrid
(PID.TID 0000.0001)   => xC yC dxF dyF rA xG yG dxV dyU rAz dxC dyC rAw rAs dxG dyG
(PID.TID 0000.0001) tile:  41 ; Read from file tile006.mitgrid
(PID.TID 0000.0001)   => xC yC dxF dyF rA xG yG dxV dyU rAz dxC dyC rAw rAs dxG dyG
(PID.TID 0000.0001) tile:  42 ; Read from file tile006.mitgrid
(PID.TID 0000.0001)   => xC yC dxF dyF rA xG yG dxV dyU rAz dxC dyC rAw rAs dxG dyG
(PID.TID 0000.0001) tile:  43 ; Read from file tile006.mitgrid
(PID.TID 0000.0001)   => xC yC dxF dyF rA xG yG dxV dyU rAz dxC dyC rAw rAs dxG dyG
(PID.TID 0000.0001) tile:  44 ; Read from file tile006.mitgrid
(PID.TID 0000.0001)   => xC yC dxF dyF rA xG yG dxV dyU rAz dxC dyC rAw rAs dxG dyG
(PID.TID 0000.0001) tile:  45 ; Read from file tile006.mitgrid
(PID.TID 0000.0001)   => xC yC dxF dyF rA xG yG dxV dyU rAz dxC dyC rAw rAs dxG dyG
(PID.TID 0000.0001) tile:  46 ; Read from file tile006.mitgrid
(PID.TID 0000.0001)   => xC yC dxF dyF rA xG yG dxV dyU rAz dxC dyC rAw rAs dxG dyG
(PID.TID 0000.0001) tile:  47 ; Read from file tile006.mitgrid
(PID.TID 0000.0001)   => xC yC dxF dyF rA xG yG dxV dyU rAz dxC dyC rAw rAs dxG dyG
(PID.TID 0000.0001) tile:  48 ; Read from file tile006.mitgrid
(PID.TID 0000.0001)   => xC yC dxF dyF rA xG yG dxV dyU rAz dxC dyC rAw rAs dxG dyG
(PID.TID 0000.0001) %MON XC_max                       =   1.7854351589505E+02
(PID.TID 0000.0001) %MON XC_min                       =  -1.7854351589505E+02
(PID.TID 0000.0001) %MON XC_mean                      =  -5.9211894646675E-16
(PID.TID 0000.0001) %MON XC_sd                        =   1.0355545336287E+02
(PID.TID 0000.0001) %MON XG_max                       =   1.8000000000000E+02
(PID.TID 0000.0001) %MON XG_min                       =  -1.7708797161002E+02
(PID.TID 0000.0001) %MON XG_mean                      =   1.8603515625000E+00
(PID.TID 0000.0001) %MON XG_sd                        =   1.0357130300504E+02
(PID.TID 0000.0001) %MON DXC_max                      =   3.2375185836900E+05
(PID.TID 0000.0001) %MON DXC_min                      =   1.1142031410131E+05
(PID.TID 0000.0001) %MON DXC_mean                     =   2.8605689051214E+05
(PID.TID 0000.0001) %MON DXC_sd                       =   3.4042087138252E+04
(PID.TID 0000.0001) %MON DXF_max                      =   3.2369947500827E+05
(PID.TID 0000.0001) %MON DXF_min                      =   1.2020820513318E+05
(PID.TID 0000.0001) %MON DXF_mean                     =   2.8605437324820E+05
(PID.TID 0000.0001) %MON DXF_sd                       =   3.4050524252539E+04
(PID.TID 0000.0001) %MON DXG_max                      =   3.2375195872773E+05
(PID.TID 0000.0001) %MON DXG_min                      =   1.0098378008791E+05
(PID.TID 0000.0001) %MON DXG_mean                     =   2.8603818508931E+05
(PID.TID 0000.0001) %MON DXG_sd                       =   3.4140406908005E+04
(PID.TID 0000.0001) %MON DXV_max                      =   3.2380418162750E+05
(PID.TID 0000.0001) %MON DXV_min                      =   8.0152299824136E+04
(PID.TID 0000.0001) %MON DXV_mean                     =   2.8603970633619E+05
(PID.TID 0000.0001) %MON DXV_sd                       =   3.4145142117723E+04
(PID.TID 0000.0001) %MON YC_max                       =   8.7940663871962E+01
(PID.TID 0000.0001) %MON YC_min                       =  -8.7940663871962E+01
(PID.TID 0000.0001) %MON YC_mean                      =   4.4408920985006E-15
(PID.TID 0000.0001) %MON YC_sd                        =   3.8676242969072E+01
(PID.TID 0000.0001) %MON YG_max                       =   9.0000000000000E+01
(PID.TID 0000.0001) %MON YG_min                       =  -9.0000000000000E+01
(PID.TID 0000.0001) %MON YG_mean                      =   1.9243865760169E-15
(PID.TID 0000.0001) %MON YG_sd                        =   3.8676895860710E+01
(PID.TID 0000.0001) %MON DYC_max                      =   3.2375185836900E+05
(PID.TID 0000.0001) %MON DYC_min                      =   1.1142031410131E+05
(PID.TID 0000.0001) %MON DYC_mean                     =   2.8605689051214E+05
(PID.TID 0000.0001) %MON DYC_sd                       =   3.4042087138252E+04
(PID.TID 0000.0001) %MON DYF_max                      =   3.2369947500827E+05
(PID.TID 0000.0001) %MON DYF_min                      =   1.2020820513318E+05
(PID.TID 0000.0001) %MON DYF_mean                     =   2.8605437324820E+05
(PID.TID 0000.0001) %MON DYF_sd                       =   3.4050524252539E+04
(PID.TID 0000.0001) %MON DYG_max                      =   3.2375195872773E+05
(PID.TID 0000.0001) %MON DYG_min                      =   1.0098378008791E+05
(PID.TID 0000.0001) %MON DYG_mean                     =   2.8603818508931E+05
(PID.TID 0000.0001) %MON DYG_sd                       =   3.4140406908005E+04
(PID.TID 0000.0001) %MON DYU_max                      =   3.2380418162750E+05
(PID.TID 0000.0001) %MON DYU_min                      =   8.0152299824136E+04
(PID.TID 0000.0001) %MON DYU_mean                     =   2.8603970633619E+05
(PID.TID 0000.0001) %MON DYU_sd                       =   3.4145142117723E+04
(PID.TID 0000.0001) %MON RA_max                       =   1.0479260248419E+11
(PID.TID 0000.0001) %MON RA_min                       =   1.4019007022556E+10
(PID.TID 0000.0001) %MON RA_mean                      =   8.2992246709265E+10
(PID.TID 0000.0001) %MON RA_sd                        =   1.7509089299457E+10
(PID.TID 0000.0001) %MON RAW_max                      =   1.0480965274559E+11
(PID.TID 0000.0001) %MON RAW_min                      =   1.2166903467143E+10
(PID.TID 0000.0001) %MON RAW_mean                     =   8.2992246709235E+10
(PID.TID 0000.0001) %MON RAW_sd                       =   1.7481917919656E+10
(PID.TID 0000.0001) %MON RAS_max                      =   1.0480965274559E+11
(PID.TID 0000.0001) %MON RAS_min                      =   1.2166903467143E+10
(PID.TID 0000.0001) %MON RAS_mean                     =   8.2992246709235E+10
(PID.TID 0000.0001) %MON RAS_sd                       =   1.7481917919656E+10
(PID.TID 0000.0001) %MON RAZ_max                      =   1.0484349334619E+11
(PID.TID 0000.0001) %MON RAZ_min                      =   8.8317900612505E+09
(PID.TID 0000.0001) %MON RAZ_mean                     =   8.2992246709235E+10
(PID.TID 0000.0001) %MON RAZ_sd                       =   1.7482297311044E+10
(PID.TID 0000.0001) %MON AngleCS_max                  =   1.0000000000000E+00
(PID.TID 0000.0001) %MON AngleCS_min                  =   1.0000000000000E+00
(PID.TID 0000.0001) %MON AngleCS_mean                 =   1.0000000000000E+00
(PID.TID 0000.0001) %MON AngleCS_sd                   =   0.0000000000000E+00
(PID.TID 0000.0001) %MON AngleSN_max                  =   0.0000000000000E+00
(PID.TID 0000.0001) %MON AngleSN_min                  =   0.0000000000000E+00
(PID.TID 0000.0001) %MON AngleSN_mean                 =   0.0000000000000E+00
(PID.TID 0000.0001) %MON AngleSN_sd                   =   0.0000000000000E+00
(PID.TID 0000.0001)  MDS_READ_FIELD: opening global file: bathy_f2.bin
(PID.TID 0000.0001) // =======================================================
(PID.TID 0000.0001) // Field Model R_low (ini_masks_etc) at iteration          1
(PID.TID 0000.0001) // CMIN =         -1.366000000000000E+03
(PID.TID 0000.0001) // CMAX =         -1.366000000000000E+03
(PID.TID 0000.0001) // CINT =          0.000000000000000E+00
(PID.TID 0000.0001) // SYMBOLS (CMIN->CMAX): -abcdefghijklmnopqrstuvwxyz+
(PID.TID 0000.0001) //                  0.0: .
(PID.TID 0000.0001) // RANGE I (Lo:Hi:Step):(  -1: 770:   1)
(PID.TID 0000.0001) // RANGE J (Lo:Hi:Step):(  10:  -1:  -1)
(PID.TID 0000.0001) // RANGE K (Lo:Hi:Step):(   1:   1:   1)
(PID.TID 0000.0001) // =======================================================
(PID.TID 0000.0001) // =======================================================
(PID.TID 0000.0001) // END OF FIELD                                          =
(PID.TID 0000.0001) // =======================================================
(PID.TID 0000.0001) 
(PID.TID 0000.0001) // =======================================================
(PID.TID 0000.0001) // Field Model Ro_surf (ini_masks_etc) at iteration          1
(PID.TID 0000.0001) // CMIN =          1.000000000000000E+32
(PID.TID 0000.0001) // CMAX =         -1.000000000000000E+32
(PID.TID 0000.0001) // CINT =          0.000000000000000E+00
(PID.TID 0000.0001) // SYMBOLS (CMIN->CMAX): -abcdefghijklmnopqrstuvwxyz+
(PID.TID 0000.0001) //                  0.0: .
(PID.TID 0000.0001) // RANGE I (Lo:Hi:Step):(  -1: 770:   1)
(PID.TID 0000.0001) // RANGE J (Lo:Hi:Step):(  10:  -1:  -1)
(PID.TID 0000.0001) // RANGE K (Lo:Hi:Step):(   1:   1:   1)
(PID.TID 0000.0001) // =======================================================
(PID.TID 0000.0001) // =======================================================
(PID.TID 0000.0001) // END OF FIELD                                          =
(PID.TID 0000.0001) // =======================================================
(PID.TID 0000.0001) 
(PID.TID 0000.0001) Empty tile: #    11 (bi=    11 )
(PID.TID 0000.0001) Empty tile: #    12 (bi=    12 )
(PID.TID 0000.0001) Empty tile: #    13 (bi=    13 )
(PID.TID 0000.0001) Empty tile: #    14 (bi=    14 )
(PID.TID 0000.0001) 
(PID.TID 0000.0001) // =======================================================
(PID.TID 0000.0001) // Field hFacC at iteration          1
(PID.TID 0000.0001) // CMIN =          1.000000000000000E+00
(PID.TID 0000.0001) // CMAX =          1.000000000000000E+00
(PID.TID 0000.0001) // CINT =          0.000000000000000E+00
(PID.TID 0000.0001) // SYMBOLS (CMIN->CMAX): -abcdefghijklmnopqrstuvwxyz+
(PID.TID 0000.0001) //                  0.0: .
(PID.TID 0000.0001) // RANGE I (Lo:Hi:Step):(  -1: 770:   1)
(PID.TID 0000.0001) // RANGE J (Lo:Hi:Step):(  10:  -1:  -1)
(PID.TID 0000.0001) // RANGE K (Lo:Hi:Step):(   1:   1:   1)
(PID.TID 0000.0001) // =======================================================
(PID.TID 0000.0001) // =======================================================
(PID.TID 0000.0001) // END OF FIELD                                          =
(PID.TID 0000.0001) // =======================================================
(PID.TID 0000.0001) 
(PID.TID 0000.0001) // =======================================================
(PID.TID 0000.0001) // Field hFacW at iteration          1
(PID.TID 0000.0001) // CMIN =          1.000000000000000E+00
(PID.TID 0000.0001) // CMAX =          1.000000000000000E+00
(PID.TID 0000.0001) // CINT =          0.000000000000000E+00
(PID.TID 0000.0001) // SYMBOLS (CMIN->CMAX): -abcdefghijklmnopqrstuvwxyz+
(PID.TID 0000.0001) //                  0.0: .
(PID.TID 0000.0001) // RANGE I (Lo:Hi:Step):(  -1: 770:   1)
(PID.TID 0000.0001) // RANGE J (Lo:Hi:Step):(  10:  -1:  -1)
(PID.TID 0000.0001) // RANGE K (Lo:Hi:Step):(   1:   1:   1)
(PID.TID 0000.0001) // =======================================================
(PID.TID 0000.0001) // =======================================================
(PID.TID 0000.0001) // END OF FIELD                                          =
(PID.TID 0000.0001) // =======================================================
(PID.TID 0000.0001) 
(PID.TID 0000.0001) // =======================================================
(PID.TID 0000.0001) // Field hFacS at iteration          1
(PID.TID 0000.0001) // CMIN =          1.000000000000000E+00
(PID.TID 0000.0001) // CMAX =          1.000000000000000E+00
(PID.TID 0000.0001) // CINT =          0.000000000000000E+00
(PID.TID 0000.0001) // SYMBOLS (CMIN->CMAX): -abcdefghijklmnopqrstuvwxyz+
(PID.TID 0000.0001) //                  0.0: .
(PID.TID 0000.0001) // RANGE I (Lo:Hi:Step):(  -1: 770:   1)
(PID.TID 0000.0001) // RANGE J (Lo:Hi:Step):(  10:  -1:  -1)
(PID.TID 0000.0001) // RANGE K (Lo:Hi:Step):(   1:   1:   1)
(PID.TID 0000.0001) // =======================================================
(PID.TID 0000.0001) // =======================================================
(PID.TID 0000.0001) // END OF FIELD                                          =
(PID.TID 0000.0001) // =======================================================
(PID.TID 0000.0001) 
(PID.TID 0000.0001) %MON fCori_max                    =   1.4574827780704E-04
(PID.TID 0000.0001) %MON fCori_min                    =  -1.4574827780704E-04
(PID.TID 0000.0001) %MON fCori_mean                   =   1.1858461261560E-20
(PID.TID 0000.0001) %MON fCori_sd                     =   8.4202189509968E-05
(PID.TID 0000.0001) %MON fCoriG_max                   =   1.4584247033981E-04
(PID.TID 0000.0001) %MON fCoriG_min                   =  -1.4584247033981E-04
(PID.TID 0000.0001) %MON fCoriG_mean                  =   5.0821976835258E-21
(PID.TID 0000.0001) %MON fCoriG_sd                    =   8.4202189509968E-05
(PID.TID 0000.0001) %MON fCoriCos_max                 =   1.4580166994612E-04
(PID.TID 0000.0001) %MON fCoriCos_min                 =   5.2407700865903E-06
(PID.TID 0000.0001) %MON fCoriCos_mean                =   1.1514045869113E-04
(PID.TID 0000.0001) %MON fCoriCos_sd                  =   3.0375849106513E-05
(PID.TID 0000.0001) INI_CG2D: CG2D normalisation factor =  2.9024774185495597E-03
(PID.TID 0000.0001) 
(PID.TID 0000.0001) // =======================================================
(PID.TID 0000.0001) // Model configuration
(PID.TID 0000.0001) // =======================================================
(PID.TID 0000.0001) //
(PID.TID 0000.0001) // "Physical" paramters ( PARM01 in namelist )
(PID.TID 0000.0001) //
(PID.TID 0000.0001) buoyancyRelation = /* Type of relation to get Buoyancy */
(PID.TID 0000.0001)               'OCEANIC'
(PID.TID 0000.0001)     ;
(PID.TID 0000.0001) fluidIsAir  =  /* fluid major constituent is Air */
(PID.TID 0000.0001)                   F
(PID.TID 0000.0001)     ;
(PID.TID 0000.0001) fluidIsWater=  /* fluid major constituent is Water */
(PID.TID 0000.0001)                   T
(PID.TID 0000.0001)     ;
(PID.TID 0000.0001) usingPCoords =  /* use p (or p*) vertical coordinate */
(PID.TID 0000.0001)                   F
(PID.TID 0000.0001)     ;
(PID.TID 0000.0001) usingZCoords =  /* use z (or z*) vertical coordinate */
(PID.TID 0000.0001)                   T
(PID.TID 0000.0001)     ;
(PID.TID 0000.0001) tRef =   /* Reference temperature profile ( oC or K ) */
(PID.TID 0000.0001)                 1.500000000000000E+01       /* K =  1 */
(PID.TID 0000.0001)     ;
(PID.TID 0000.0001) sRef =   /* Reference salinity profile ( psu ) */
(PID.TID 0000.0001)                 0.000000000000000E+00       /* K =  1 */
(PID.TID 0000.0001)     ;
(PID.TID 0000.0001) viscAh =   /* Lateral eddy viscosity ( m^2/s ) */
(PID.TID 0000.0001)                 0.000000000000000E+00
(PID.TID 0000.0001)     ;
(PID.TID 0000.0001) viscAhMax =   /* Maximum lateral eddy viscosity ( m^2/s ) */
(PID.TID 0000.0001)                 1.000000000000000E+21
(PID.TID 0000.0001)     ;
(PID.TID 0000.0001) viscAhGrid =   /* Grid dependent lateral eddy viscosity ( non-dim. ) */
(PID.TID 0000.0001)                 0.000000000000000E+00
(PID.TID 0000.0001)     ;
(PID.TID 0000.0001) useFullLeith =   /* Use Full Form of Leith Viscosity on/off flag*/
(PID.TID 0000.0001)                   F
(PID.TID 0000.0001)     ;
(PID.TID 0000.0001) useStrainTensionVisc =   /* Use StrainTension Form of Viscous Operator on/off flag*/
(PID.TID 0000.0001)                   F
(PID.TID 0000.0001)     ;
(PID.TID 0000.0001) useAreaViscLength =   /* Use area for visc length instead of geom. mean*/
(PID.TID 0000.0001)                   F
(PID.TID 0000.0001)     ;
(PID.TID 0000.0001) viscC2leith = /* Leith harmonic visc. factor (on grad(vort),non-dim.) */
(PID.TID 0000.0001)                 0.000000000000000E+00
(PID.TID 0000.0001)     ;
(PID.TID 0000.0001) viscC2leithD = /* Leith harmonic viscosity factor (on grad(div),non-dim.) */
(PID.TID 0000.0001)                 0.000000000000000E+00
(PID.TID 0000.0001)     ;
(PID.TID 0000.0001) viscC2smag =   /* Smagorinsky harmonic viscosity factor (non-dim.) */
(PID.TID 0000.0001)                 0.000000000000000E+00
(PID.TID 0000.0001)     ;
(PID.TID 0000.0001) viscA4 =   /* Lateral biharmonic viscosity ( m^4/s ) */
(PID.TID 0000.0001)                 0.000000000000000E+00
(PID.TID 0000.0001)     ;
(PID.TID 0000.0001) viscA4Max =   /* Maximum biharmonic viscosity ( m^2/s ) */
(PID.TID 0000.0001)                 1.000000000000000E+21
(PID.TID 0000.0001)     ;
(PID.TID 0000.0001) viscA4Grid =   /* Grid dependent biharmonic viscosity ( non-dim. ) */
(PID.TID 0000.0001)                 0.000000000000000E+00
(PID.TID 0000.0001)     ;
(PID.TID 0000.0001) viscC4leith = /* Leith biharm viscosity factor (on grad(vort), non-dim.) */
(PID.TID 0000.0001)                 0.000000000000000E+00
(PID.TID 0000.0001)     ;
(PID.TID 0000.0001) viscC4leithD = /* Leith biharm viscosity factor (on grad(div), non-dim.) */
(PID.TID 0000.0001)                 0.000000000000000E+00
(PID.TID 0000.0001)     ;
(PID.TID 0000.0001) viscC4Smag = /* Smagorinsky biharm viscosity factor (non-dim) */
(PID.TID 0000.0001)                 0.000000000000000E+00
(PID.TID 0000.0001)     ;
(PID.TID 0000.0001) no_slip_sides =  /* Viscous BCs: No-slip sides */
(PID.TID 0000.0001)                   F
(PID.TID 0000.0001)     ;
(PID.TID 0000.0001) sideDragFactor = /* side-drag scaling factor (non-dim) */
(PID.TID 0000.0001)                 2.000000000000000E+00
(PID.TID 0000.0001)     ;
(PID.TID 0000.0001) viscAr =   /* Vertical eddy viscosity ( m^2/s ) */
(PID.TID 0000.0001)                 0.000000000000000E+00
(PID.TID 0000.0001)     ;
(PID.TID 0000.0001) no_slip_bottom =  /* Viscous BCs: No-slip bottom */
(PID.TID 0000.0001)                   F
(PID.TID 0000.0001)     ;
(PID.TID 0000.0001) bottomDragLinear = /* linear bottom-drag coefficient ( m/s ) */
(PID.TID 0000.0001)                 0.000000000000000E+00
(PID.TID 0000.0001)     ;
(PID.TID 0000.0001) bottomDragQuadratic = /* quadratic bottom-drag coefficient (-) */
(PID.TID 0000.0001)                 0.000000000000000E+00
(PID.TID 0000.0001)     ;
(PID.TID 0000.0001) diffKhT =   /* Laplacian diffusion of heat laterally ( m^2/s ) */
(PID.TID 0000.0001)                 0.000000000000000E+00
(PID.TID 0000.0001)     ;
(PID.TID 0000.0001) diffK4T =   /* Biharmonic diffusion of heat laterally ( m^4/s ) */
(PID.TID 0000.0001)                 0.000000000000000E+00
(PID.TID 0000.0001)     ;
(PID.TID 0000.0001) diffKhS =   /* Laplacian diffusion of salt laterally ( m^2/s ) */
(PID.TID 0000.0001)                 0.000000000000000E+00
(PID.TID 0000.0001)     ;
(PID.TID 0000.0001) diffK4S =   /* Biharmonic diffusion of salt laterally ( m^4/s ) */
(PID.TID 0000.0001)                 0.000000000000000E+00
(PID.TID 0000.0001)     ;
(PID.TID 0000.0001) diffKrNrT = /* vertical profile of vertical diffusion of Temp ( m^2/s )*/
(PID.TID 0000.0001)                 0.000000000000000E+00       /* K =  1 */
(PID.TID 0000.0001)     ;
(PID.TID 0000.0001) diffKrNrS = /* vertical profile of vertical diffusion of Salt ( m^2/s )*/
(PID.TID 0000.0001)                 0.000000000000000E+00       /* K =  1 */
(PID.TID 0000.0001)     ;
(PID.TID 0000.0001) diffKrBL79surf = /* Surface diffusion for Bryan and Lewis 79 ( m^2/s ) */
(PID.TID 0000.0001)                 0.000000000000000E+00
(PID.TID 0000.0001)     ;
(PID.TID 0000.0001) diffKrBL79deep = /* Deep diffusion for Bryan and Lewis 1979 ( m^2/s ) */
(PID.TID 0000.0001)                 0.000000000000000E+00
(PID.TID 0000.0001)     ;
(PID.TID 0000.0001) diffKrBL79scl = /* Depth scale for Bryan and Lewis 1979 ( m ) */
(PID.TID 0000.0001)                 2.000000000000000E+02
(PID.TID 0000.0001)     ;
(PID.TID 0000.0001) diffKrBL79Ho = /* Turning depth for Bryan and Lewis 1979 ( m ) */
(PID.TID 0000.0001)                -2.000000000000000E+03
(PID.TID 0000.0001)     ;
(PID.TID 0000.0001) ivdc_kappa = /* Implicit Vertical Diffusivity for Convection ( m^2/s ) */
(PID.TID 0000.0001)                 0.000000000000000E+00
(PID.TID 0000.0001)     ;
(PID.TID 0000.0001) hMixCriteria=  /* Criteria for mixed-layer diagnostic */
(PID.TID 0000.0001)                -8.000000000000000E-01
(PID.TID 0000.0001)     ;
(PID.TID 0000.0001) dRhoSmall=  /* Parameter for mixed-layer diagnostic */
(PID.TID 0000.0001)                 1.000000000000000E-06
(PID.TID 0000.0001)     ;
(PID.TID 0000.0001) hMixSmooth=  /* Smoothing parameter for mixed-layer diagnostic */
(PID.TID 0000.0001)                 0.000000000000000E+00
(PID.TID 0000.0001)     ;
(PID.TID 0000.0001) eosType =  /* Type of Equation of State */
(PID.TID 0000.0001)               'LINEAR'
(PID.TID 0000.0001)     ;
(PID.TID 0000.0001) tAlpha =   /* Linear EOS thermal expansion coefficient ( 1/oC ) */
(PID.TID 0000.0001)                 2.000000000000000E-04
(PID.TID 0000.0001)     ;
(PID.TID 0000.0001) sBeta =   /* Linear EOS haline contraction coefficient ( 1/psu ) */
(PID.TID 0000.0001)                 7.400000000000000E-04
(PID.TID 0000.0001)     ;
(PID.TID 0000.0001) rhonil =   /* Reference density ( kg/m^3 ) */
(PID.TID 0000.0001)                 1.000000000000000E+03
(PID.TID 0000.0001)     ;
(PID.TID 0000.0001) rhoConst =   /* Reference density ( kg/m^3 ) */
(PID.TID 0000.0001)                 1.000000000000000E+03
(PID.TID 0000.0001)     ;
(PID.TID 0000.0001) rhoFacC = /* normalized Reference density @ cell-Center (-) */
(PID.TID 0000.0001)                 1.000000000000000E+00       /* K =  1 */
(PID.TID 0000.0001)     ;
(PID.TID 0000.0001) rhoFacF = /* normalized Reference density @ W-Interface (-) */
(PID.TID 0000.0001)     2 @  1.000000000000000E+00              /* K =  1:  2 */
(PID.TID 0000.0001)     ;
(PID.TID 0000.0001) rhoConstFresh =   /* Reference density ( kg/m^3 ) */
(PID.TID 0000.0001)                 1.000000000000000E+03
(PID.TID 0000.0001)     ;
(PID.TID 0000.0001) gravity =   /* Gravitational acceleration ( m/s^2 ) */
(PID.TID 0000.0001)                 9.818400000000000E+00
(PID.TID 0000.0001)     ;
(PID.TID 0000.0001) gBaro =   /* Barotropic gravity ( m/s^2 ) */
(PID.TID 0000.0001)                 9.818400000000000E+00
(PID.TID 0000.0001)     ;
(PID.TID 0000.0001) rotationPeriod =   /* Rotation Period ( s ) */
(PID.TID 0000.0001)                 8.616400000000000E+04
(PID.TID 0000.0001)     ;
(PID.TID 0000.0001) omega =   /* Angular velocity ( rad/s ) */
(PID.TID 0000.0001)                 7.292123516990375E-05
(PID.TID 0000.0001)     ;
(PID.TID 0000.0001) f0 =   /* Reference coriolis parameter ( 1/s ) */
(PID.TID 0000.0001)                 1.000000000000000E-04
(PID.TID 0000.0001)     ;
(PID.TID 0000.0001) beta =   /* Beta ( 1/(m.s) ) */
(PID.TID 0000.0001)                 9.999999999999999E-12
(PID.TID 0000.0001)     ;
(PID.TID 0000.0001) freeSurfFac =   /* Implicit free surface factor */
(PID.TID 0000.0001)                 1.000000000000000E+00
(PID.TID 0000.0001)     ;
(PID.TID 0000.0001) implicitFreeSurface =   /* Implicit free surface on/off flag */
(PID.TID 0000.0001)                   T
(PID.TID 0000.0001)     ;
(PID.TID 0000.0001) rigidLid =   /* Rigid lid on/off flag */
(PID.TID 0000.0001)                   F
(PID.TID 0000.0001)     ;
(PID.TID 0000.0001) implicSurfPress =   /* Surface Pressure implicit factor (0-1)*/
(PID.TID 0000.0001)                 5.000000000000000E-01
(PID.TID 0000.0001)     ;
(PID.TID 0000.0001) implicDiv2Dflow =   /* Barot. Flow Div. implicit factor (0-1)*/
(PID.TID 0000.0001)                 5.000000000000000E-01
(PID.TID 0000.0001)     ;
(PID.TID 0000.0001) exactConserv =   /* Exact Volume Conservation on/off flag*/
(PID.TID 0000.0001)                   T
(PID.TID 0000.0001)     ;
(PID.TID 0000.0001) linFSConserveTr =   /* Tracer correction for Lin Free Surface on/off flag*/
(PID.TID 0000.0001)                   F
(PID.TID 0000.0001)     ;
(PID.TID 0000.0001) uniformLin_PhiSurf =   /* use uniform Bo_surf on/off flag*/
(PID.TID 0000.0001)                   T
(PID.TID 0000.0001)     ;
(PID.TID 0000.0001) nonlinFreeSurf =   /* Non-linear Free Surf. options (-1,0,1,2,3)*/
(PID.TID 0000.0001)                       0
(PID.TID 0000.0001)     ;
(PID.TID 0000.0001)      -1,0= Off ; 1,2,3= On, 2=+rescale gU,gV, 3=+update cg2d solv.
(PID.TID 0000.0001) hFacInf =   /* lower threshold for hFac (nonlinFreeSurf only)*/
(PID.TID 0000.0001)                 2.000000000000000E-01
(PID.TID 0000.0001)     ;
(PID.TID 0000.0001) hFacSup =   /* upper threshold for hFac (nonlinFreeSurf only)*/
(PID.TID 0000.0001)                 2.000000000000000E+00
(PID.TID 0000.0001)     ;
(PID.TID 0000.0001) select_rStar = /* r* Vertical coord. options (=0 r coord.; > 0 uses r*) */
(PID.TID 0000.0001)                       0
(PID.TID 0000.0001)     ;
(PID.TID 0000.0001) selectAddFluid = /* option for mass source/sink of fluid (=0: off) */
(PID.TID 0000.0001)                       0
(PID.TID 0000.0001)     ;
(PID.TID 0000.0001) useRealFreshWaterFlux = /* Real Fresh Water Flux on/off flag*/
(PID.TID 0000.0001)                   F
(PID.TID 0000.0001)     ;
(PID.TID 0000.0001) temp_EvPrRn = /* Temp. of Evap/Prec/R (UNSET=use local T)(oC)*/
(PID.TID 0000.0001)                 1.234567000000000E+05
(PID.TID 0000.0001)     ;
(PID.TID 0000.0001) salt_EvPrRn = /* Salin. of Evap/Prec/R (UNSET=use local S)(ppt)*/
(PID.TID 0000.0001)                 0.000000000000000E+00
(PID.TID 0000.0001)     ;
(PID.TID 0000.0001) convertFW2Salt = /* convert F.W. Flux to Salt Flux (-1=use local S)(ppt)*/
(PID.TID 0000.0001)                 3.500000000000000E+01
(PID.TID 0000.0001)     ;
(PID.TID 0000.0001) use3Dsolver = /* use 3-D pressure solver on/off flag */
(PID.TID 0000.0001)                   F
(PID.TID 0000.0001)     ;
(PID.TID 0000.0001) nonHydrostatic =  /* Non-Hydrostatic on/off flag */
(PID.TID 0000.0001)                   F
(PID.TID 0000.0001)     ;
(PID.TID 0000.0001) nh_Am2 = /* Non-Hydrostatic terms scaling factor */
(PID.TID 0000.0001)                 1.000000000000000E+00
(PID.TID 0000.0001)     ;
(PID.TID 0000.0001) quasiHydrostatic = /* Quasi-Hydrostatic on/off flag */
(PID.TID 0000.0001)                   F
(PID.TID 0000.0001)     ;
(PID.TID 0000.0001) momStepping =  /* Momentum equation on/off flag */
(PID.TID 0000.0001)                   T
(PID.TID 0000.0001)     ;
(PID.TID 0000.0001) vectorInvariantMomentum= /* Vector-Invariant Momentum on/off */
(PID.TID 0000.0001)                   F
(PID.TID 0000.0001)     ;
(PID.TID 0000.0001) momAdvection =  /* Momentum advection on/off flag */
(PID.TID 0000.0001)                   F
(PID.TID 0000.0001)     ;
(PID.TID 0000.0001) momViscosity =  /* Momentum viscosity on/off flag */
(PID.TID 0000.0001)                   T
(PID.TID 0000.0001)     ;
(PID.TID 0000.0001) momImplVertAdv =/* Momentum implicit vert. advection on/off*/
(PID.TID 0000.0001)                   F
(PID.TID 0000.0001)     ;
(PID.TID 0000.0001) implicitViscosity = /* Implicit viscosity on/off flag */
(PID.TID 0000.0001)                   F
(PID.TID 0000.0001)     ;
(PID.TID 0000.0001) metricTerms =  /* metric-Terms on/off flag */
(PID.TID 0000.0001)                   F
(PID.TID 0000.0001)     ;
(PID.TID 0000.0001) useNHMTerms = /* Non-Hydrostatic Metric-Terms on/off */
(PID.TID 0000.0001)                   F
(PID.TID 0000.0001)     ;
(PID.TID 0000.0001) useConstantF =  /* use Constant f0 Coriolis flag */
(PID.TID 0000.0001)                   F
(PID.TID 0000.0001)     ;
(PID.TID 0000.0001) useBetaPlaneF = /* use Beta-Plane Coriolis flag */
(PID.TID 0000.0001)                   F
(PID.TID 0000.0001)     ;
(PID.TID 0000.0001) useSphereF  =   /* use Spherical Coriolis flag */
(PID.TID 0000.0001)                   T
(PID.TID 0000.0001)     ;
(PID.TID 0000.0001) use3dCoriolis = /* 3-D Coriolis on/off flag */
(PID.TID 0000.0001)                   F
(PID.TID 0000.0001)     ;
(PID.TID 0000.0001) useCoriolis =  /* Coriolis on/off flag */
(PID.TID 0000.0001)                   F
(PID.TID 0000.0001)     ;
(PID.TID 0000.0001) useCDscheme =  /* CD scheme on/off flag */
(PID.TID 0000.0001)                   F
(PID.TID 0000.0001)     ;
(PID.TID 0000.0001) useJamartWetPoints= /* Coriolis WetPoints method flag */
(PID.TID 0000.0001)                   F
(PID.TID 0000.0001)     ;
(PID.TID 0000.0001) useJamartMomAdv= /* V.I. Non-linear terms Jamart flag */
(PID.TID 0000.0001)                   F
(PID.TID 0000.0001)     ;
(PID.TID 0000.0001) useAbsVorticity= /* Work with f+zeta in Coriolis */
(PID.TID 0000.0001)                   F
(PID.TID 0000.0001)     ;
(PID.TID 0000.0001) selectVortScheme= /* Scheme selector for Vorticity-Term */
(PID.TID 0000.0001)               123456789
(PID.TID 0000.0001)    = 0 : enstrophy (Shallow-Water Eq.) conserving scheme by Sadourny, JAS 75
(PID.TID 0000.0001)    = 1 : same as 0 with modified hFac
(PID.TID 0000.0001)    = 2 : energy conserving scheme (used by Sadourny in JAS 75 paper)
(PID.TID 0000.0001)    = 3 : energy (general) and enstrophy (2D, nonDiv.) conserving scheme
(PID.TID 0000.0001)          from Sadourny (Burridge & Haseler, ECMWF Rep.4, 1977)
(PID.TID 0000.0001)     ;
(PID.TID 0000.0001) upwindVorticity= /* Upwind bias vorticity flag */
(PID.TID 0000.0001)                   F
(PID.TID 0000.0001)     ;
(PID.TID 0000.0001) highOrderVorticity= /* High order interp. of vort. flag */
(PID.TID 0000.0001)                   F
(PID.TID 0000.0001)     ;
(PID.TID 0000.0001) upwindShear= /* Upwind vertical Shear advection flag */
(PID.TID 0000.0001)                   F
(PID.TID 0000.0001)     ;
(PID.TID 0000.0001) selectKEscheme= /* Kinetic Energy scheme selector */
(PID.TID 0000.0001)                       0
(PID.TID 0000.0001)     ;
(PID.TID 0000.0001) momForcing =  /* Momentum forcing on/off flag */
(PID.TID 0000.0001)                   T
(PID.TID 0000.0001)     ;
(PID.TID 0000.0001) momPressureForcing =  /* Momentum pressure term on/off flag */
(PID.TID 0000.0001)                   T
(PID.TID 0000.0001)     ;
(PID.TID 0000.0001) implicitIntGravWave= /* Implicit Internal Gravity Wave flag */
(PID.TID 0000.0001)                   F
(PID.TID 0000.0001)     ;
(PID.TID 0000.0001) staggerTimeStep =   /* Stagger time stepping on/off flag */
(PID.TID 0000.0001)                   F
(PID.TID 0000.0001)     ;
(PID.TID 0000.0001) multiDimAdvection =   /* enable/disable Multi-Dim Advection */
(PID.TID 0000.0001)                   T
(PID.TID 0000.0001)     ;
(PID.TID 0000.0001) useMultiDimAdvec =   /* Multi-Dim Advection is/is-not used */
(PID.TID 0000.0001)                   F
(PID.TID 0000.0001)     ;
(PID.TID 0000.0001) implicitDiffusion =/* Implicit Diffusion on/off flag */
(PID.TID 0000.0001)                   F
(PID.TID 0000.0001)     ;
(PID.TID 0000.0001) tempStepping =  /* Temperature equation on/off flag */
(PID.TID 0000.0001)                   F
(PID.TID 0000.0001)     ;
(PID.TID 0000.0001) tempAdvection=  /* Temperature advection on/off flag */
(PID.TID 0000.0001)                   F
(PID.TID 0000.0001)     ;
(PID.TID 0000.0001) tempImplVertAdv =/* Temp. implicit vert. advection on/off */
(PID.TID 0000.0001)                   F
(PID.TID 0000.0001)     ;
(PID.TID 0000.0001) tempForcing  =  /* Temperature forcing on/off flag */
(PID.TID 0000.0001)                   F
(PID.TID 0000.0001)     ;
(PID.TID 0000.0001) tempIsActiveTr = /* Temp. is a dynamically Active Tracer */
(PID.TID 0000.0001)                   F
(PID.TID 0000.0001)     ;
(PID.TID 0000.0001) saltStepping =  /* Salinity equation on/off flag */
(PID.TID 0000.0001)                   F
(PID.TID 0000.0001)     ;
(PID.TID 0000.0001) saltAdvection=  /* Salinity advection on/off flag */
(PID.TID 0000.0001)                   F
(PID.TID 0000.0001)     ;
(PID.TID 0000.0001) saltImplVertAdv =/* Sali. implicit vert. advection on/off */
(PID.TID 0000.0001)                   F
(PID.TID 0000.0001)     ;
(PID.TID 0000.0001) saltForcing  =  /* Salinity forcing on/off flag */
(PID.TID 0000.0001)                   F
(PID.TID 0000.0001)     ;
(PID.TID 0000.0001) saltIsActiveTr = /* Salt  is a dynamically Active Tracer */
(PID.TID 0000.0001)                   F
(PID.TID 0000.0001)     ;
(PID.TID 0000.0001)  readBinaryPrec = /* Precision used for reading binary files */
(PID.TID 0000.0001)                      64
(PID.TID 0000.0001)     ;
(PID.TID 0000.0001) writeBinaryPrec = /* Precision used for writing binary files */
(PID.TID 0000.0001)                      64
(PID.TID 0000.0001)     ;
(PID.TID 0000.0001)  globalFiles = /* write "global" (=not per tile) files */
(PID.TID 0000.0001)                   F
(PID.TID 0000.0001)     ;
(PID.TID 0000.0001)  useSingleCpuIO = /* only master MPI process does I/O */
(PID.TID 0000.0001)                   T
(PID.TID 0000.0001)     ;
(PID.TID 0000.0001)  debugMode  =  /* Debug Mode on/off flag */
(PID.TID 0000.0001)                   F
(PID.TID 0000.0001)     ;
(PID.TID 0000.0001)    debLevA  =  /* 1rst level of debugging */
(PID.TID 0000.0001)                       1
(PID.TID 0000.0001)     ;
(PID.TID 0000.0001)    debLevB  =  /* 2nd  level of debugging */
(PID.TID 0000.0001)                       2
(PID.TID 0000.0001)     ;
(PID.TID 0000.0001)  debugLevel =  /* select debugging level */
(PID.TID 0000.0001)                       1
(PID.TID 0000.0001)     ;
(PID.TID 0000.0001) //
(PID.TID 0000.0001) // Elliptic solver(s) paramters ( PARM02 in namelist )
(PID.TID 0000.0001) //
(PID.TID 0000.0001) cg2dMaxIters =   /* Upper limit on 2d con. grad iterations  */
(PID.TID 0000.0001)                     600
(PID.TID 0000.0001)     ;
(PID.TID 0000.0001) cg2dChkResFreq =   /* 2d con. grad convergence test frequency */
(PID.TID 0000.0001)                       1
(PID.TID 0000.0001)     ;
(PID.TID 0000.0001) cg2dTargetResidual =   /* 2d con. grad target residual  */
(PID.TID 0000.0001)                 1.000000000000000E-13
(PID.TID 0000.0001)     ;
(PID.TID 0000.0001) cg2dTargetResWunit =   /* CG2d target residual [W units] */
(PID.TID 0000.0001)                -1.000000000000000E+00
(PID.TID 0000.0001)     ;
(PID.TID 0000.0001) cg2dPreCondFreq =   /* Freq. for updating cg2d preconditioner */
(PID.TID 0000.0001)                       1
(PID.TID 0000.0001)     ;
(PID.TID 0000.0001) //
(PID.TID 0000.0001) // Time stepping paramters ( PARM03 in namelist )
(PID.TID 0000.0001) //
(PID.TID 0000.0001) deltaTmom =   /* Momentum equation timestep ( s ) */
(PID.TID 0000.0001)                 9.000000000000000E+02
(PID.TID 0000.0001)     ;
(PID.TID 0000.0001) deltaTfreesurf =   /* FreeSurface equation timestep ( s ) */
(PID.TID 0000.0001)                 9.000000000000000E+02
(PID.TID 0000.0001)     ;
(PID.TID 0000.0001) dTtracerLev =   /* Tracer equation timestep ( s ) */
(PID.TID 0000.0001)                 9.000000000000000E+02       /* K =  1 */
(PID.TID 0000.0001)     ;
(PID.TID 0000.0001) deltaTClock  =   /* Model clock timestep ( s ) */
(PID.TID 0000.0001)                 9.000000000000000E+02
(PID.TID 0000.0001)     ;
(PID.TID 0000.0001) cAdjFreq =   /* Convective adjustment interval ( s ) */
(PID.TID 0000.0001)                 0.000000000000000E+00
(PID.TID 0000.0001)     ;
(PID.TID 0000.0001) momForcingOutAB = /* =1: take Momentum Forcing out of Adams-Bash. stepping */
(PID.TID 0000.0001)                       0
(PID.TID 0000.0001)     ;
(PID.TID 0000.0001) tracForcingOutAB = /* =1: take T,S,pTr Forcing out of Adams-Bash. stepping */
(PID.TID 0000.0001)                       0
(PID.TID 0000.0001)     ;
(PID.TID 0000.0001) momDissip_In_AB = /* put Dissipation Tendency in Adams-Bash. stepping */
(PID.TID 0000.0001)                   T
(PID.TID 0000.0001)     ;
(PID.TID 0000.0001) doAB_onGtGs = /* apply AB on Tendencies (rather than on T,S)*/
(PID.TID 0000.0001)                   T
(PID.TID 0000.0001)     ;
(PID.TID 0000.0001) abEps =   /* Adams-Bashforth-2 stabilizing weight */
(PID.TID 0000.0001)                 1.000000000000000E-01
(PID.TID 0000.0001)     ;
(PID.TID 0000.0001) pickupStrictlyMatch= /* stop if pickup do not strictly match */
(PID.TID 0000.0001)                   T
(PID.TID 0000.0001)     ;
(PID.TID 0000.0001) nIter0 =   /* Run starting timestep number  */
(PID.TID 0000.0001)                       0
(PID.TID 0000.0001)     ;
(PID.TID 0000.0001) nTimeSteps =   /* Number of timesteps */
(PID.TID 0000.0001)                      24
(PID.TID 0000.0001)     ;
(PID.TID 0000.0001) baseTime =   /* Model base time ( s ). */
(PID.TID 0000.0001)                 0.000000000000000E+00
(PID.TID 0000.0001)     ;
(PID.TID 0000.0001) startTime =   /* Run start time ( s ). */
(PID.TID 0000.0001)                 0.000000000000000E+00
(PID.TID 0000.0001)     ;
(PID.TID 0000.0001) endTime =   /* Integration ending time ( s ). */
(PID.TID 0000.0001)                 2.160000000000000E+04
(PID.TID 0000.0001)     ;
(PID.TID 0000.0001) pChkPtFreq =   /* Permanent restart/checkpoint file interval ( s ). */
(PID.TID 0000.0001)                 0.000000000000000E+00
(PID.TID 0000.0001)     ;
(PID.TID 0000.0001) chkPtFreq =   /* Rolling restart/checkpoint file interval ( s ). */
(PID.TID 0000.0001)                 0.000000000000000E+00
(PID.TID 0000.0001)     ;
(PID.TID 0000.0001) pickup_write_mdsio =   /* Model IO flag. */
(PID.TID 0000.0001)                   T
(PID.TID 0000.0001)     ;
(PID.TID 0000.0001) pickup_read_mdsio =   /* Model IO flag. */
(PID.TID 0000.0001)                   T
(PID.TID 0000.0001)     ;
(PID.TID 0000.0001) pickup_write_immed =   /* Model IO flag. */
(PID.TID 0000.0001)                   F
(PID.TID 0000.0001)     ;
(PID.TID 0000.0001) writePickupAtEnd =   /* Model IO flag. */
(PID.TID 0000.0001)                   T
(PID.TID 0000.0001)     ;
(PID.TID 0000.0001) dumpFreq =   /* Model state write out interval ( s ). */
(PID.TID 0000.0001)                 1.080000000000000E+04
(PID.TID 0000.0001)     ;
(PID.TID 0000.0001) dumpInitAndLast= /* write out Initial & Last iter. model state */
(PID.TID 0000.0001)                   T
(PID.TID 0000.0001)     ;
(PID.TID 0000.0001) snapshot_mdsio =   /* Model IO flag. */
(PID.TID 0000.0001)                   T
(PID.TID 0000.0001)     ;
(PID.TID 0000.0001) monitorFreq =   /* Monitor output interval ( s ). */
(PID.TID 0000.0001)                 1.000000000000000E+00
(PID.TID 0000.0001)     ;
(PID.TID 0000.0001) monitorSelect = /* select group of variables to monitor */
(PID.TID 0000.0001)                       3
(PID.TID 0000.0001)     ;
(PID.TID 0000.0001) monitor_stdio =   /* Model IO flag. */
(PID.TID 0000.0001)                   T
(PID.TID 0000.0001)     ;
(PID.TID 0000.0001) externForcingPeriod =   /* forcing period (s) */
(PID.TID 0000.0001)                 0.000000000000000E+00
(PID.TID 0000.0001)     ;
(PID.TID 0000.0001) externForcingCycle =   /* period of the cyle (s). */
(PID.TID 0000.0001)                 0.000000000000000E+00
(PID.TID 0000.0001)     ;
(PID.TID 0000.0001) tauThetaClimRelax =   /* relaxation time scale (s) */
(PID.TID 0000.0001)                 0.000000000000000E+00
(PID.TID 0000.0001)     ;
(PID.TID 0000.0001) tauSaltClimRelax =   /* relaxation time scale (s) */
(PID.TID 0000.0001)                 0.000000000000000E+00
(PID.TID 0000.0001)     ;
(PID.TID 0000.0001) latBandClimRelax =   /* max. Lat. where relaxation */
(PID.TID 0000.0001)                 1.800000000000000E+02
(PID.TID 0000.0001)     ;
(PID.TID 0000.0001) //
(PID.TID 0000.0001) // Gridding paramters ( PARM04 in namelist )
(PID.TID 0000.0001) //
(PID.TID 0000.0001) usingCartesianGrid = /* Cartesian coordinates flag ( True/False ) */
(PID.TID 0000.0001)                   F
(PID.TID 0000.0001)     ;
(PID.TID 0000.0001) usingCylindricalGrid = /* Cylindrical coordinates flag ( True/False ) */
(PID.TID 0000.0001)                   F
(PID.TID 0000.0001)     ;
(PID.TID 0000.0001) usingSphericalPolarGrid = /* Spherical coordinates flag ( True/False ) */
(PID.TID 0000.0001)                   F
(PID.TID 0000.0001)     ;
(PID.TID 0000.0001) usingCurvilinearGrid = /* Curvilinear coordinates flag ( True/False ) */
(PID.TID 0000.0001)                   T
(PID.TID 0000.0001)     ;
(PID.TID 0000.0001) Ro_SeaLevel = /* r(1) ( units of r ==  m ) */
(PID.TID 0000.0001)                 0.000000000000000E+00
(PID.TID 0000.0001)     ;
(PID.TID 0000.0001) rkSign =   /* index orientation relative to vertical coordinate */
(PID.TID 0000.0001)                -1.000000000000000E+00
(PID.TID 0000.0001)     ;
(PID.TID 0000.0001) gravitySign = /* gravity orientation relative to vertical coordinate */
(PID.TID 0000.0001)                -1.000000000000000E+00
(PID.TID 0000.0001)     ;
(PID.TID 0000.0001) mass2rUnit = /* convert mass per unit area [kg/m2] to r-units [m] */
(PID.TID 0000.0001)                 1.000000000000000E-03
(PID.TID 0000.0001)     ;
(PID.TID 0000.0001) rUnit2mass = /* convert r-units [m] to mass per unit area [kg/m2] */
(PID.TID 0000.0001)                 1.000000000000000E+03
(PID.TID 0000.0001)     ;
(PID.TID 0000.0001) drC =   /* C spacing ( units of r ) */
(PID.TID 0000.0001)                 6.830000000000000E+02       /* K =  1 */
(PID.TID 0000.0001)     ;
(PID.TID 0000.0001) drF =   /* W spacing ( units of r ) */
(PID.TID 0000.0001)                 1.366000000000000E+03       /* K =  1 */
(PID.TID 0000.0001)     ;
(PID.TID 0000.0001) delX =   /* U spacing ( m - cartesian, degrees - spherical ) */
(PID.TID 0000.0001)   768 @  1.234567000000000E+05              /* I =  1:768 */
(PID.TID 0000.0001)     ;
(PID.TID 0000.0001) delY =   /* V spacing ( m - cartesian, degrees - spherical ) */
(PID.TID 0000.0001)     8 @  1.234567000000000E+05              /* J =  1:  8 */
(PID.TID 0000.0001)     ;
(PID.TID 0000.0001) xgOrigin = /* X-axis origin of West  edge (cartesian: m, lat-lon: deg.) */
(PID.TID 0000.0001)                 0.000000000000000E+00
(PID.TID 0000.0001)     ;
(PID.TID 0000.0001) ygOrigin = /* Y-axis origin of South edge (cartesian: m, lat-lon: deg.) */
(PID.TID 0000.0001)                 0.000000000000000E+00
(PID.TID 0000.0001)     ;
(PID.TID 0000.0001) rSphere =  /* Radius ( ignored - cartesian, m - spherical ) */
(PID.TID 0000.0001)                 6.370000000000000E+06
(PID.TID 0000.0001)     ;
(PID.TID 0000.0001) deepAtmosphere = /* Deep/Shallow Atmosphere flag (True/False) */
(PID.TID 0000.0001)                   F
(PID.TID 0000.0001)     ;
(PID.TID 0000.0001) xcoord =   /* P-point X coord ( m - cartesian, degrees - spherical ) */
(PID.TID 0000.0001)                -4.439521994760536E+01,      /* I =  1 */
(PID.TID 0000.0001)                -4.295641272275883E+01,      /* I =  2 */
(PID.TID 0000.0001)                -4.122055553388957E+01,      /* I =  3 */
(PID.TID 0000.0001)                -3.923446288487304E+01,      /* I =  4 */
(PID.TID 0000.0001)                -3.702585158682200E+01,      /* I =  5 */
(PID.TID 0000.0001)                -3.461179367094151E+01,      /* I =  6 */
(PID.TID 0000.0001)                -3.200434569041793E+01,      /* I =  7 */
(PID.TID 0000.0001)                -2.921355965632675E+01,      /* I =  8 */
(PID.TID 0000.0001)                -2.624932223028290E+01,      /* I =  9 */
(PID.TID 0000.0001)                -2.312261250426344E+01,      /* I = 10 */
(PID.TID 0000.0001)                -1.984640717127058E+01,      /* I = 11 */
(PID.TID 0000.0001)                -1.643630800555134E+01,      /* I = 12 */
(PID.TID 0000.0001)                -1.291089806302069E+01,      /* I = 13 */
(PID.TID 0000.0001)                -9.291807802719402E+00,      /* I = 14 */
(PID.TID 0000.0001)                -5.603475335822332E+00,      /* I = 15 */
(PID.TID 0000.0001)                -1.872608513033445E+00,      /* I = 16 */
(PID.TID 0000.0001)                 1.872608513033445E+00,      /* I = 17 */
(PID.TID 0000.0001)                 5.603475335822332E+00,      /* I = 18 */
(PID.TID 0000.0001)                 9.291807802719402E+00,      /* I = 19 */
(PID.TID 0000.0001)                 1.291089806302069E+01,      /* I = 20 */
(PID.TID 0000.0001)                 1.643630800555134E+01,      /* I = 21 */
(PID.TID 0000.0001)                 1.984640717127058E+01,      /* I = 22 */
(PID.TID 0000.0001)                 2.312261250426344E+01,      /* I = 23 */
(PID.TID 0000.0001)                 2.624932223028290E+01,      /* I = 24 */
(PID.TID 0000.0001)                 2.921355965632675E+01,      /* I = 25 */
(PID.TID 0000.0001)                 3.200434569041793E+01,      /* I = 26 */
(PID.TID 0000.0001)                 3.461179367094151E+01,      /* I = 27 */
(PID.TID 0000.0001)                 3.702585158682200E+01,      /* I = 28 */
(PID.TID 0000.0001)                 3.923446288487304E+01,      /* I = 29 */
(PID.TID 0000.0001)                 4.122055553388957E+01,      /* I = 30 */
(PID.TID 0000.0001)                 4.295641272275883E+01,      /* I = 31 */
(PID.TID 0000.0001)                 4.439521994760536E+01,      /* I = 32 */
(PID.TID 0000.0001)                -4.371437196732662E+01,      /* I = 33 */
(PID.TID 0000.0001)                -4.113779912064380E+01,      /* I = 34 */
(PID.TID 0000.0001)                -3.854563384453478E+01,      /* I = 35 */
(PID.TID 0000.0001)                -3.592861144827750E+01,      /* I = 36 */
(PID.TID 0000.0001)                -3.327896932688326E+01,      /* I = 37 */
(PID.TID 0000.0001)                -3.059073785313681E+01,      /* I = 38 */
(PID.TID 0000.0001)                -2.785985050479606E+01,      /* I = 39 */
(PID.TID 0000.0001)                -2.508412290111091E+01,      /* I = 40 */
(PID.TID 0000.0001)                -2.226315249572405E+01,      /* I = 41 */
(PID.TID 0000.0001)                -1.939817736903109E+01,      /* I = 42 */
(PID.TID 0000.0001)                -1.649191629557423E+01,      /* I = 43 */
(PID.TID 0000.0001)                -1.354839957433250E+01,      /* I = 44 */
(PID.TID 0000.0001)                -1.057279257437913E+01,      /* I = 45 */
(PID.TID 0000.0001)                -7.571210723433387E+00,      /* I = 46 */
(PID.TID 0000.0001)                -4.550524293150388E+00,      /* I = 47 */
(PID.TID 0000.0001)                -1.518152510024056E+00,      /* I = 48 */
(PID.TID 0000.0001)                 1.518152510024056E+00,      /* I = 49 */
(PID.TID 0000.0001)                 4.550524293150388E+00,      /* I = 50 */
(PID.TID 0000.0001)                 7.571210723433387E+00,      /* I = 51 */
(PID.TID 0000.0001)                 1.057279257437913E+01,      /* I = 52 */
(PID.TID 0000.0001)                 1.354839957433250E+01,      /* I = 53 */
(PID.TID 0000.0001)                 1.649191629557423E+01,      /* I = 54 */
(PID.TID 0000.0001)                 1.939817736903109E+01,      /* I = 55 */
(PID.TID 0000.0001)                 2.226315249572405E+01,      /* I = 56 */
(PID.TID 0000.0001)                 2.508412290111091E+01,      /* I = 57 */
(PID.TID 0000.0001)                 2.785985050479606E+01,      /* I = 58 */
(PID.TID 0000.0001)                 3.059073785313681E+01,      /* I = 59 */
(PID.TID 0000.0001)                 3.327896932688326E+01,      /* I = 60 */
(PID.TID 0000.0001)                 3.592861144827750E+01,      /* I = 61 */
(PID.TID 0000.0001)                 3.854563384453478E+01,      /* I = 62 */
(PID.TID 0000.0001)                 4.113779912064380E+01,      /* I = 63 */
(PID.TID 0000.0001)                 4.371437196732662E+01,      /* I = 64 */
(PID.TID 0000.0001)                -4.364490324992833E+01,      /* I = 65 */
(PID.TID 0000.0001)                -4.093268771156353E+01,      /* I = 66 */
(PID.TID 0000.0001)                -3.821449311785297E+01,      /* I = 67 */
(PID.TID 0000.0001)                -3.548661856694081E+01,      /* I = 68 */
(PID.TID 0000.0001)                -3.274577371214319E+01,      /* I = 69 */
(PID.TID 0000.0001)                -2.998921061819286E+01,      /* I = 70 */
(PID.TID 0000.0001)                -2.721482732194908E+01,      /* I = 71 */
(PID.TID 0000.0001)                -2.442123987207341E+01,      /* I = 72 */
(PID.TID 0000.0001)                -2.160782193728863E+01,      /* I = 73 */
(PID.TID 0000.0001)                -1.877471294668040E+01,      /* I = 74 */
(PID.TID 0000.0001)                -1.592279705047260E+01,      /* I = 75 */
(PID.TID 0000.0001)                -1.305365599512185E+01,      /* I = 76 */
(PID.TID 0000.0001)                -1.016949940404567E+01,      /* I = 77 */
(PID.TID 0000.0001)                -7.273076082698362E+00,      /* I = 78 */
(PID.TID 0000.0001)                -4.367569947789942E+00,      /* I = 79 */
(PID.TID 0000.0001)                -1.456484104946475E+00,      /* I = 80 */
(PID.TID 0000.0001)                 1.456484104946475E+00,      /* I = 81 */
(PID.TID 0000.0001)                 4.367569947789942E+00,      /* I = 82 */
(PID.TID 0000.0001)                 7.273076082698362E+00,      /* I = 83 */
(PID.TID 0000.0001)                 1.016949940404567E+01,      /* I = 84 */
(PID.TID 0000.0001)                 1.305365599512185E+01,      /* I = 85 */
(PID.TID 0000.0001)                 1.592279705047260E+01,      /* I = 86 */
(PID.TID 0000.0001)                 1.877471294668040E+01,      /* I = 87 */
(PID.TID 0000.0001)                 2.160782193728863E+01,      /* I = 88 */
(PID.TID 0000.0001)                 2.442123987207341E+01,      /* I = 89 */
(PID.TID 0000.0001)                 2.721482732194908E+01,      /* I = 90 */
(PID.TID 0000.0001)                 2.998921061819286E+01,      /* I = 91 */
(PID.TID 0000.0001)                 3.274577371214319E+01,      /* I = 92 */
(PID.TID 0000.0001)                 3.548661856694081E+01,      /* I = 93 */
(PID.TID 0000.0001)                 3.821449311785297E+01,      /* I = 94 */
(PID.TID 0000.0001)                 4.093268771156353E+01,      /* I = 95 */
(PID.TID 0000.0001)                 4.364490324992833E+01,      /* I = 96 */
(PID.TID 0000.0001)                -4.373974889280662E+01,      /* I = 97 */
(PID.TID 0000.0001)                -4.121254364943257E+01,      /* I = 98 */
(PID.TID 0000.0001)                -3.866575716714821E+01,      /* I = 99 */
(PID.TID 0000.0001)                -3.608797434582620E+01,      /* I =100 */
(PID.TID 0000.0001)                -3.346988050052689E+01,      /* I =101 */
(PID.TID 0000.0001)                -3.080455967545127E+01,      /* I =102 */
(PID.TID 0000.0001)                -2.808752413189615E+01,      /* I =103 */
(PID.TID 0000.0001)                -2.531658329184640E+01,      /* I =104 */
(PID.TID 0000.0001)                -2.249164253473730E+01,      /* I =105 */
(PID.TID 0000.0001)                -1.961448554173001E+01,      /* I =106 */
(PID.TID 0000.0001)                -1.668856239288920E+01,      /* I =107 */
(PID.TID 0000.0001)                -1.371878641312932E+01,      /* I =108 */
(PID.TID 0000.0001)                -1.071133410832144E+01,      /* I =109 */
(PID.TID 0000.0001)                -7.673440621444038E+00,      /* I =110 */
(PID.TID 0000.0001)                -4.613184806945879E+00,      /* I =111 */
(PID.TID 0000.0001)                -1.539261203127869E+00,      /* I =112 */
(PID.TID 0000.0001)                 1.539261203127869E+00,      /* I =113 */
(PID.TID 0000.0001)                 4.613184806945879E+00,      /* I =114 */
(PID.TID 0000.0001)                 7.673440621444038E+00,      /* I =115 */
(PID.TID 0000.0001)                 1.071133410832144E+01,      /* I =116 */
(PID.TID 0000.0001)                 1.371878641312932E+01,      /* I =117 */
(PID.TID 0000.0001)                 1.668856239288920E+01,      /* I =118 */
(PID.TID 0000.0001)                 1.961448554173001E+01,      /* I =119 */
(PID.TID 0000.0001)                 2.249164253473730E+01,      /* I =120 */
(PID.TID 0000.0001)                 2.531658329184640E+01,      /* I =121 */
(PID.TID 0000.0001)                 2.808752413189615E+01,      /* I =122 */
(PID.TID 0000.0001)                 3.080455967545127E+01,      /* I =123 */
(PID.TID 0000.0001)                 3.346988050052689E+01,      /* I =124 */
(PID.TID 0000.0001)                 3.608797434582620E+01,      /* I =125 */
(PID.TID 0000.0001)                 3.866575716714821E+01,      /* I =126 */
(PID.TID 0000.0001)                 4.121254364943257E+01,      /* I =127 */
(PID.TID 0000.0001)                 4.373974889280662E+01,      /* I =128 */
(PID.TID 0000.0001)                 4.560478005239464E+01,      /* I =129 */
(PID.TID 0000.0001)                 4.704358727724117E+01,      /* I =130 */
(PID.TID 0000.0001)                 4.877944446611043E+01,      /* I =131 */
(PID.TID 0000.0001)                 5.076553711512697E+01,      /* I =132 */
(PID.TID 0000.0001)                 5.297414841317801E+01,      /* I =133 */
(PID.TID 0000.0001)                 5.538820632905850E+01,      /* I =134 */
(PID.TID 0000.0001)                 5.799565430958209E+01,      /* I =135 */
(PID.TID 0000.0001)                 6.078644034367325E+01,      /* I =136 */
(PID.TID 0000.0001)                 6.375067776971711E+01,      /* I =137 */
(PID.TID 0000.0001)                 6.687738749573657E+01,      /* I =138 */
(PID.TID 0000.0001)                 7.015359282872943E+01,      /* I =139 */
(PID.TID 0000.0001)                 7.356369199444866E+01,      /* I =140 */
(PID.TID 0000.0001)                 7.708910193697932E+01,      /* I =141 */
(PID.TID 0000.0001)                 8.070819219728060E+01,      /* I =142 */
(PID.TID 0000.0001)                 8.439652466417766E+01,      /* I =143 */
(PID.TID 0000.0001)                 8.812739148696656E+01,      /* I =144 */
(PID.TID 0000.0001)                 9.187260851303344E+01,      /* I =145 */
(PID.TID 0000.0001)                 9.560347533582234E+01,      /* I =146 */
(PID.TID 0000.0001)                 9.929180780271940E+01,      /* I =147 */
(PID.TID 0000.0001)                 1.029108980630207E+02,      /* I =148 */
(PID.TID 0000.0001)                 1.064363080055513E+02,      /* I =149 */
(PID.TID 0000.0001)                 1.098464071712706E+02,      /* I =150 */
(PID.TID 0000.0001)                 1.131226125042634E+02,      /* I =151 */
(PID.TID 0000.0001)                 1.162493222302829E+02,      /* I =152 */
(PID.TID 0000.0001)                 1.192135596563268E+02,      /* I =153 */
(PID.TID 0000.0001)                 1.220043456904179E+02,      /* I =154 */
(PID.TID 0000.0001)                 1.246117936709415E+02,      /* I =155 */
(PID.TID 0000.0001)                 1.270258515868220E+02,      /* I =156 */
(PID.TID 0000.0001)                 1.292344628848730E+02,      /* I =157 */
(PID.TID 0000.0001)                 1.312205555338896E+02,      /* I =158 */
(PID.TID 0000.0001)                 1.329564127227588E+02,      /* I =159 */
(PID.TID 0000.0001)                 1.343952199476053E+02,      /* I =160 */
(PID.TID 0000.0001)                 4.628562803267338E+01,      /* I =161 */
(PID.TID 0000.0001)                 4.886220087935620E+01,      /* I =162 */
(PID.TID 0000.0001)                 5.145436615546523E+01,      /* I =163 */
(PID.TID 0000.0001)                 5.407138855172250E+01,      /* I =164 */
(PID.TID 0000.0001)                 5.672103067311674E+01,      /* I =165 */
(PID.TID 0000.0001)                 5.940926214686320E+01,      /* I =166 */
(PID.TID 0000.0001)                 6.214014949520394E+01,      /* I =167 */
(PID.TID 0000.0001)                 6.491587709888910E+01,      /* I =168 */
(PID.TID 0000.0001)                 6.773684750427596E+01,      /* I =169 */
(PID.TID 0000.0001)                 7.060182263096893E+01,      /* I =170 */
(PID.TID 0000.0001)                 7.350808370442577E+01,      /* I =171 */
(PID.TID 0000.0001)                 7.645160042566749E+01,      /* I =172 */
(PID.TID 0000.0001)                 7.942720742562086E+01,      /* I =173 */
(PID.TID 0000.0001)                 8.242878927656662E+01,      /* I =174 */
(PID.TID 0000.0001)                 8.544947570684961E+01,      /* I =175 */
(PID.TID 0000.0001)                 8.848184748997595E+01,      /* I =176 */
(PID.TID 0000.0001)                 9.151815251002405E+01,      /* I =177 */
(PID.TID 0000.0001)                 9.455052429315039E+01,      /* I =178 */
(PID.TID 0000.0001)                 9.757121072343338E+01,      /* I =179 */
(PID.TID 0000.0001)                 1.005727925743791E+02,      /* I =180 */
(PID.TID 0000.0001)                 1.035483995743325E+02,      /* I =181 */
(PID.TID 0000.0001)                 1.064919162955742E+02,      /* I =182 */
(PID.TID 0000.0001)                 1.093981773690311E+02,      /* I =183 */
(PID.TID 0000.0001)                 1.122631524957240E+02,      /* I =184 */
(PID.TID 0000.0001)                 1.150841229011109E+02,      /* I =185 */
(PID.TID 0000.0001)                 1.178598505047961E+02,      /* I =186 */
(PID.TID 0000.0001)                 1.205907378531368E+02,      /* I =187 */
(PID.TID 0000.0001)                 1.232789693268832E+02,      /* I =188 */
(PID.TID 0000.0001)                 1.259286114482775E+02,      /* I =189 */
(PID.TID 0000.0001)                 1.285456338445348E+02,      /* I =190 */
(PID.TID 0000.0001)                 1.311377991206438E+02,      /* I =191 */
(PID.TID 0000.0001)                 1.337143719673266E+02,      /* I =192 */
(PID.TID 0000.0001)                 4.635509675007168E+01,      /* I =193 */
(PID.TID 0000.0001)                 4.906731228843647E+01,      /* I =194 */
(PID.TID 0000.0001)                 5.178550688214704E+01,      /* I =195 */
(PID.TID 0000.0001)                 5.451338143305920E+01,      /* I =196 */
(PID.TID 0000.0001)                 5.725422628785682E+01,      /* I =197 */
(PID.TID 0000.0001)                 6.001078938180714E+01,      /* I =198 */
(PID.TID 0000.0001)                 6.278517267805092E+01,      /* I =199 */
(PID.TID 0000.0001)                 6.557876012792660E+01,      /* I =200 */
(PID.TID 0000.0001)                 6.839217806271137E+01,      /* I =201 */
(PID.TID 0000.0001)                 7.122528705331960E+01,      /* I =202 */
(PID.TID 0000.0001)                 7.407720294952740E+01,      /* I =203 */
(PID.TID 0000.0001)                 7.694634400487816E+01,      /* I =204 */
(PID.TID 0000.0001)                 7.983050059595433E+01,      /* I =205 */
(PID.TID 0000.0001)                 8.272692391730165E+01,      /* I =206 */
(PID.TID 0000.0001)                 8.563243005221005E+01,      /* I =207 */
(PID.TID 0000.0001)                 8.854351589505353E+01,      /* I =208 */
(PID.TID 0000.0001)                 9.145648410494647E+01,      /* I =209 */
(PID.TID 0000.0001)                 9.436756994778995E+01,      /* I =210 */
(PID.TID 0000.0001)                 9.727307608269835E+01,      /* I =211 */
(PID.TID 0000.0001)                 1.001694994040457E+02,      /* I =212 */
(PID.TID 0000.0001)                 1.030536559951218E+02,      /* I =213 */
(PID.TID 0000.0001)                 1.059227970504726E+02,      /* I =214 */
(PID.TID 0000.0001)                 1.087747129466804E+02,      /* I =215 */
(PID.TID 0000.0001)                 1.116078219372886E+02,      /* I =216 */
(PID.TID 0000.0001)                 1.144212398720734E+02,      /* I =217 */
(PID.TID 0000.0001)                 1.172148273219491E+02,      /* I =218 */
(PID.TID 0000.0001)                 1.199892106181929E+02,      /* I =219 */
(PID.TID 0000.0001)                 1.227457737121432E+02,      /* I =220 */
(PID.TID 0000.0001)                 1.254866185669408E+02,      /* I =221 */
(PID.TID 0000.0001)                 1.282144931178530E+02,      /* I =222 */
(PID.TID 0000.0001)                 1.309326877115635E+02,      /* I =223 */
(PID.TID 0000.0001)                 1.336449032499283E+02,      /* I =224 */
(PID.TID 0000.0001)                 4.626025110719338E+01,      /* I =225 */
(PID.TID 0000.0001)                 4.878745635056744E+01,      /* I =226 */
(PID.TID 0000.0001)                 5.133424283285179E+01,      /* I =227 */
(PID.TID 0000.0001)                 5.391202565417380E+01,      /* I =228 */
(PID.TID 0000.0001)                 5.653011949947311E+01,      /* I =229 */
(PID.TID 0000.0001)                 5.919544032454873E+01,      /* I =230 */
(PID.TID 0000.0001)                 6.191247586810386E+01,      /* I =231 */
(PID.TID 0000.0001)                 6.468341670815360E+01,      /* I =232 */
(PID.TID 0000.0001)                 6.750835746526272E+01,      /* I =233 */
(PID.TID 0000.0001)                 7.038551445826999E+01,      /* I =234 */
(PID.TID 0000.0001)                 7.331143760711079E+01,      /* I =235 */
(PID.TID 0000.0001)                 7.628121358687068E+01,      /* I =236 */
(PID.TID 0000.0001)                 7.928866589167856E+01,      /* I =237 */
(PID.TID 0000.0001)                 8.232655937855597E+01,      /* I =238 */
(PID.TID 0000.0001)                 8.538681519305413E+01,      /* I =239 */
(PID.TID 0000.0001)                 8.846073879687214E+01,      /* I =240 */
(PID.TID 0000.0001)                 9.153926120312786E+01,      /* I =241 */
(PID.TID 0000.0001)                 9.461318480694587E+01,      /* I =242 */
(PID.TID 0000.0001)                 9.767344062144403E+01,      /* I =243 */
(PID.TID 0000.0001)                 1.007113341083214E+02,      /* I =244 */
(PID.TID 0000.0001)                 1.037187864131293E+02,      /* I =245 */
(PID.TID 0000.0001)                 1.066885623928892E+02,      /* I =246 */
(PID.TID 0000.0001)                 1.096144855417300E+02,      /* I =247 */
(PID.TID 0000.0001)                 1.124916425347373E+02,      /* I =248 */
(PID.TID 0000.0001)                 1.153165832918464E+02,      /* I =249 */
(PID.TID 0000.0001)                 1.180875241318961E+02,      /* I =250 */
(PID.TID 0000.0001)                 1.208045596754513E+02,      /* I =251 */
(PID.TID 0000.0001)                 1.234698805005269E+02,      /* I =252 */
(PID.TID 0000.0001)                 1.260879743458262E+02,      /* I =253 */
(PID.TID 0000.0001)                 1.286657571671482E+02,      /* I =254 */
(PID.TID 0000.0001)                 1.312125436494325E+02,      /* I =255 */
(PID.TID 0000.0001)                 1.337397488928066E+02,      /* I =256 */
(PID.TID 0000.0001)                 4.500000000000000E+01,      /* I =257 */
(PID.TID 0000.0001)                 4.620805468796297E+01,      /* I =258 */
(PID.TID 0000.0001)                 4.781369642513039E+01,      /* I =259 */
(PID.TID 0000.0001)                 4.971767671143929E+01,      /* I =260 */
(PID.TID 0000.0001)                 5.187738319787235E+01,      /* I =261 */
(PID.TID 0000.0001)                 5.427004371478710E+01,      /* I =262 */
(PID.TID 0000.0001)                 5.688128325334060E+01,      /* I =263 */
(PID.TID 0000.0001)                 5.970018167786760E+01,      /* I =264 */
(PID.TID 0000.0001)                 6.271654991792347E+01,      /* I =265 */
(PID.TID 0000.0001)                 6.591914604853015E+01,      /* I =266 */
(PID.TID 0000.0001)                 6.929439270484148E+01,      /* I =267 */
(PID.TID 0000.0001)                 7.282545807616151E+01,      /* I =268 */
(PID.TID 0000.0001)                 7.649168830618933E+01,      /* I =269 */
(PID.TID 0000.0001)                 8.026842803787176E+01,      /* I =270 */
(PID.TID 0000.0001)                 8.412726743124185E+01,      /* I =271 */
(PID.TID 0000.0001)                 8.803672008547504E+01,      /* I =272 */
(PID.TID 0000.0001)                 9.196327991452496E+01,      /* I =273 */
(PID.TID 0000.0001)                 9.587273256875815E+01,      /* I =274 */
(PID.TID 0000.0001)                 9.973157196212824E+01,      /* I =275 */
(PID.TID 0000.0001)                 1.035083116938107E+02,      /* I =276 */
(PID.TID 0000.0001)                 1.071745419238385E+02,      /* I =277 */
(PID.TID 0000.0001)                 1.107056072951585E+02,      /* I =278 */
(PID.TID 0000.0001)                 1.140808539514698E+02,      /* I =279 */
(PID.TID 0000.0001)                 1.172834500820765E+02,      /* I =280 */
(PID.TID 0000.0001)                 1.202998183221324E+02,      /* I =281 */
(PID.TID 0000.0001)                 1.231187167466594E+02,      /* I =282 */
(PID.TID 0000.0001)                 1.257299562852129E+02,      /* I =283 */
(PID.TID 0000.0001)                 1.281226168021277E+02,      /* I =284 */
(PID.TID 0000.0001)                 1.302823232885607E+02,      /* I =285 */
(PID.TID 0000.0001)                 1.321863035748696E+02,      /* I =286 */
(PID.TID 0000.0001)                 1.337919453120370E+02,      /* I =287 */
(PID.TID 0000.0001)                 1.350000000000000E+02,      /* I =288 */
(PID.TID 0000.0001)                 2.728345008207653E+01,      /* I =289 */
(PID.TID 0000.0001)                 2.850420460957644E+01,      /* I =290 */
(PID.TID 0000.0001)                 2.993784737393011E+01,      /* I =291 */
(PID.TID 0000.0001)                 3.161376160493450E+01,      /* I =292 */
(PID.TID 0000.0001)                 3.356541247566764E+01,      /* I =293 */
(PID.TID 0000.0001)                 3.583147134718611E+01,      /* I =294 */
(PID.TID 0000.0001)                 3.845688524781105E+01,      /* I =295 */
(PID.TID 0000.0001)                 4.149354572248240E+01,      /* I =296 */
(PID.TID 0000.0001)                 4.500000000000000E+01,      /* I =297 */
(PID.TID 0000.0001)                 4.903930969999148E+01,      /* I =298 */
(PID.TID 0000.0001)                 5.367372451974152E+01,      /* I =299 */
(PID.TID 0000.0001)                 5.895451406251276E+01,      /* I =300 */
(PID.TID 0000.0001)                 6.490567844389302E+01,      /* I =301 */
(PID.TID 0000.0001)                 7.150237053910378E+01,      /* I =302 */
(PID.TID 0000.0001)                 7.864952388500538E+01,      /* I =303 */
(PID.TID 0000.0001)                 8.617192233608105E+01,      /* I =304 */
(PID.TID 0000.0001)                 9.382807766391895E+01,      /* I =305 */
(PID.TID 0000.0001)                 1.013504761149946E+02,      /* I =306 */
(PID.TID 0000.0001)                 1.084976294608962E+02,      /* I =307 */
(PID.TID 0000.0001)                 1.150943215561070E+02,      /* I =308 */
(PID.TID 0000.0001)                 1.210454859374873E+02,      /* I =309 */
(PID.TID 0000.0001)                 1.263262754802585E+02,      /* I =310 */
(PID.TID 0000.0001)                 1.309606903000085E+02,      /* I =311 */
(PID.TID 0000.0001)                 1.350000000000000E+02,      /* I =312 */
(PID.TID 0000.0001)                 1.385064542775176E+02,      /* I =313 */
(PID.TID 0000.0001)                 1.415431147521889E+02,      /* I =314 */
(PID.TID 0000.0001)                 1.441685286528139E+02,      /* I =315 */
(PID.TID 0000.0001)                 1.464345875243324E+02,      /* I =316 */
(PID.TID 0000.0001)                 1.483862383950655E+02,      /* I =317 */
(PID.TID 0000.0001)                 1.500621526260699E+02,      /* I =318 */
(PID.TID 0000.0001)                 1.514957953904236E+02,      /* I =319 */
(PID.TID 0000.0001)                 1.527165499179235E+02,      /* I =320 */
(PID.TID 0000.0001)                -1.963279914524959E+00,      /* I =321 */
(PID.TID 0000.0001)                -2.071177432469201E+00,      /* I =322 */
(PID.TID 0000.0001)                -2.199828347428434E+00,      /* I =323 */
(PID.TID 0000.0001)                -2.353804611411069E+00,      /* I =324 */
(PID.TID 0000.0001)                -2.539195296987037E+00,      /* I =325 */
(PID.TID 0000.0001)                -2.764351427094884E+00,      /* I =326 */
(PID.TID 0000.0001)                -3.041099877515010E+00,      /* I =327 */
(PID.TID 0000.0001)                -3.386807206248865E+00,      /* I =328 */
(PID.TID 0000.0001)                -3.828077663918957E+00,      /* I =329 */
(PID.TID 0000.0001)                -4.407824753676410E+00,      /* I =330 */
(PID.TID 0000.0001)                -5.199947690700009E+00,      /* I =331 */
(PID.TID 0000.0001)                -6.343204738499006E+00,      /* I =332 */
(PID.TID 0000.0001)                -8.131509858941257E+00,      /* I =333 */
(PID.TID 0000.0001)                -1.131043662441223E+01,      /* I =334 */
(PID.TID 0000.0001)                -1.843505176017388E+01,      /* I =335 */
(PID.TID 0000.0001)                -4.500000000000001E+01,      /* I =336 */
(PID.TID 0000.0001)                -1.350000000000000E+02,      /* I =337 */
(PID.TID 0000.0001)                -1.615649482398261E+02,      /* I =338 */
(PID.TID 0000.0001)                -1.686895633755878E+02,      /* I =339 */
(PID.TID 0000.0001)                -1.718684901410587E+02,      /* I =340 */
(PID.TID 0000.0001)                -1.736567952615010E+02,      /* I =341 */
(PID.TID 0000.0001)                -1.748000523093000E+02,      /* I =342 */
(PID.TID 0000.0001)                -1.755921752463236E+02,      /* I =343 */
(PID.TID 0000.0001)                -1.761719223360811E+02,      /* I =344 */
(PID.TID 0000.0001)                -1.766131927937512E+02,      /* I =345 */
(PID.TID 0000.0001)                -1.769589001224850E+02,      /* I =346 */
(PID.TID 0000.0001)                -1.772356485729051E+02,      /* I =347 */
(PID.TID 0000.0001)                -1.774608047030130E+02,      /* I =348 */
(PID.TID 0000.0001)                -1.776461953885889E+02,      /* I =349 */
(PID.TID 0000.0001)                -1.778001716525716E+02,      /* I =350 */
(PID.TID 0000.0001)                -1.779288225675308E+02,      /* I =351 */
(PID.TID 0000.0001)                -1.780367200854751E+02,      /* I =352 */
(PID.TID 0000.0001)                -3.029981832213240E+01,      /* I =353 */
(PID.TID 0000.0001)                -3.158373495141686E+01,      /* I =354 */
(PID.TID 0000.0001)                -3.309052450339908E+01,      /* I =355 */
(PID.TID 0000.0001)                -3.484699040577296E+01,      /* I =356 */
(PID.TID 0000.0001)                -3.688222279243317E+01,      /* I =357 */
(PID.TID 0000.0001)                -3.922837508963766E+01,      /* I =358 */
(PID.TID 0000.0001)                -4.192120377275522E+01,      /* I =359 */
(PID.TID 0000.0001)                -4.500000000000000E+01,      /* I =360 */
(PID.TID 0000.0001)                -4.850645427751761E+01,      /* I =361 */
(PID.TID 0000.0001)                -5.248186361054271E+01,      /* I =362 */
(PID.TID 0000.0001)                -5.696198636759523E+01,      /* I =363 */
(PID.TID 0000.0001)                -6.196896167278800E+01,      /* I =364 */
(PID.TID 0000.0001)                -6.750035418535309E+01,      /* I =365 */
(PID.TID 0000.0001)                -7.351688063250312E+01,      /* I =366 */
(PID.TID 0000.0001)                -7.993260810512692E+01,      /* I =367 */
(PID.TID 0000.0001)                -8.661319279375114E+01,      /* I =368 */
(PID.TID 0000.0001)                -9.338680720624886E+01,      /* I =369 */
(PID.TID 0000.0001)                -1.000673918948731E+02,      /* I =370 */
(PID.TID 0000.0001)                -1.064831193674969E+02,      /* I =371 */
(PID.TID 0000.0001)                -1.124996458146469E+02,      /* I =372 */
(PID.TID 0000.0001)                -1.180310383272120E+02,      /* I =373 */
(PID.TID 0000.0001)                -1.230380136324048E+02,      /* I =374 */
(PID.TID 0000.0001)                -1.275181363894573E+02,      /* I =375 */
(PID.TID 0000.0001)                -1.314935457224824E+02,      /* I =376 */
(PID.TID 0000.0001)                -1.350000000000000E+02,      /* I =377 */
(PID.TID 0000.0001)                -1.380787962272448E+02,      /* I =378 */
(PID.TID 0000.0001)                -1.407716249103623E+02,      /* I =379 */
(PID.TID 0000.0001)                -1.431177772075668E+02,      /* I =380 */
(PID.TID 0000.0001)                -1.451530095942271E+02,      /* I =381 */
(PID.TID 0000.0001)                -1.469094754966009E+02,      /* I =382 */
(PID.TID 0000.0001)                -1.484162650485831E+02,      /* I =383 */
(PID.TID 0000.0001)                -1.497001816778676E+02,      /* I =384 */
(PID.TID 0000.0001)                 1.356047800523947E+02,      /* I =385 */
(PID.TID 0000.0001)                 1.358367907661329E+02,      /* I =386 */
(PID.TID 0000.0001)                 1.359720382181193E+02,      /* I =387 */
(PID.TID 0000.0001)                 1.360654656901789E+02,      /* I =388 */
(PID.TID 0000.0001)                 1.361344533147042E+02,      /* I =389 */
(PID.TID 0000.0001)                 1.361871219420981E+02,      /* I =390 */
(PID.TID 0000.0001)                 1.362280794509603E+02,      /* I =391 */
(PID.TID 0000.0001)                 1.362602511071934E+02,      /* I =392 */
(PID.TID 0000.0001)                 1.362856280326734E+02,      /* I =393 */
(PID.TID 0000.0001)                 1.363056266270901E+02,      /* I =394 */
(PID.TID 0000.0001)                 1.363212817739446E+02,      /* I =395 */
(PID.TID 0000.0001)                 1.363333595910255E+02,      /* I =396 */
(PID.TID 0000.0001)                 1.363424272425760E+02,      /* I =397 */
(PID.TID 0000.0001)                 1.363488978790713E+02,      /* I =398 */
(PID.TID 0000.0001)                 1.363530600590580E+02,      /* I =399 */
(PID.TID 0000.0001)     2 @  1.363550967500717E+02,             /* I =400:401 */
(PID.TID 0000.0001)                 1.363530600590580E+02,      /* I =402 */
(PID.TID 0000.0001)                 1.363488978790713E+02,      /* I =403 */
(PID.TID 0000.0001)                 1.363424272425760E+02,      /* I =404 */
(PID.TID 0000.0001)                 1.363333595910255E+02,      /* I =405 */
(PID.TID 0000.0001)                 1.363212817739446E+02,      /* I =406 */
(PID.TID 0000.0001)                 1.363056266270901E+02,      /* I =407 */
(PID.TID 0000.0001)                 1.362856280326734E+02,      /* I =408 */
(PID.TID 0000.0001)                 1.362602511071934E+02,      /* I =409 */
(PID.TID 0000.0001)                 1.362280794509603E+02,      /* I =410 */
(PID.TID 0000.0001)                 1.361871219420981E+02,      /* I =411 */
(PID.TID 0000.0001)                 1.361344533147042E+02,      /* I =412 */
(PID.TID 0000.0001)                 1.360654656901789E+02,      /* I =413 */
(PID.TID 0000.0001)                 1.359720382181193E+02,      /* I =414 */
(PID.TID 0000.0001)                 1.358367907661329E+02,      /* I =415 */
(PID.TID 0000.0001)                 1.356047800523947E+02,      /* I =416 */
(PID.TID 0000.0001)                 1.537506777697171E+02,      /* I =417 */
(PID.TID 0000.0001)                 1.546219929827586E+02,      /* I =418 */
(PID.TID 0000.0001)                 1.553522245128763E+02,      /* I =419 */
(PID.TID 0000.0001)                 1.559611301405529E+02,      /* I =420 */
(PID.TID 0000.0001)                 1.564664758218241E+02,      /* I =421 */
(PID.TID 0000.0001)                 1.568839915189588E+02,      /* I =422 */
(PID.TID 0000.0001)                 1.572273737391663E+02,      /* I =423 */
(PID.TID 0000.0001)                 1.575083574652627E+02,      /* I =424 */
(PID.TID 0000.0001)                 1.577368475042759E+02,      /* I =425 */
(PID.TID 0000.0001)                 1.579210858193004E+02,      /* I =426 */
(PID.TID 0000.0001)                 1.580678312044483E+02,      /* I =427 */
(PID.TID 0000.0001)                 1.581825332673364E+02,      /* I =428 */
(PID.TID 0000.0001)                 1.582694891840075E+02,      /* I =429 */
(PID.TID 0000.0001)                 1.583319769274877E+02,      /* I =430 */
(PID.TID 0000.0001)                 1.583723621695313E+02,      /* I =431 */
(PID.TID 0000.0001)     2 @  1.583921780627114E+02,             /* I =432:433 */
(PID.TID 0000.0001)                 1.583723621695313E+02,      /* I =434 */
(PID.TID 0000.0001)                 1.583319769274877E+02,      /* I =435 */
(PID.TID 0000.0001)                 1.582694891840075E+02,      /* I =436 */
(PID.TID 0000.0001)                 1.581825332673364E+02,      /* I =437 */
(PID.TID 0000.0001)                 1.580678312044483E+02,      /* I =438 */
(PID.TID 0000.0001)                 1.579210858193004E+02,      /* I =439 */
(PID.TID 0000.0001)                 1.577368475042759E+02,      /* I =440 */
(PID.TID 0000.0001)                 1.575083574652627E+02,      /* I =441 */
(PID.TID 0000.0001)                 1.572273737391663E+02,      /* I =442 */
(PID.TID 0000.0001)                 1.568839915189588E+02,      /* I =443 */
(PID.TID 0000.0001)                 1.564664758218241E+02,      /* I =444 */
(PID.TID 0000.0001)                 1.559611301405529E+02,      /* I =445 */
(PID.TID 0000.0001)                 1.553522245128763E+02,      /* I =446 */
(PID.TID 0000.0001)                 1.546219929827586E+02,      /* I =447 */
(PID.TID 0000.0001)                 1.537506777697171E+02,      /* I =448 */
(PID.TID 0000.0001)                -1.781273914869666E+02,      /* I =449 */
(PID.TID 0000.0001)                -1.782036265972133E+02,      /* I =450 */
(PID.TID 0000.0001)                -1.782676810694432E+02,      /* I =451 */
(PID.TID 0000.0001)                -1.783214124948809E+02,      /* I =452 */
(PID.TID 0000.0001)                -1.783663723812381E+02,      /* I =453 */
(PID.TID 0000.0001)                -1.784038689895125E+02,      /* I =454 */
(PID.TID 0000.0001)                -1.784350110143507E+02,      /* I =455 */
(PID.TID 0000.0001)                -1.784607387968721E+02,      /* I =456 */
(PID.TID 0000.0001)                -1.784818474899759E+02,      /* I =457 */
(PID.TID 0000.0001)                -1.784990050063338E+02,      /* I =458 */
(PID.TID 0000.0001)                -1.785127664769845E+02,      /* I =459 */
(PID.TID 0000.0001)                -1.785235862099515E+02,      /* I =460 */
(PID.TID 0000.0001)                -1.785318276688965E+02,      /* I =461 */
(PID.TID 0000.0001)                -1.785377717132608E+02,      /* I =462 */
(PID.TID 0000.0001)                -1.785416231900660E+02,      /* I =463 */
(PID.TID 0000.0001)     2 @ -1.785435158950535E+02,             /* I =464:465 */
(PID.TID 0000.0001)                -1.785416231900660E+02,      /* I =466 */
(PID.TID 0000.0001)                -1.785377717132608E+02,      /* I =467 */
(PID.TID 0000.0001)                -1.785318276688965E+02,      /* I =468 */
(PID.TID 0000.0001)                -1.785235862099515E+02,      /* I =469 */
(PID.TID 0000.0001)                -1.785127664769845E+02,      /* I =470 */
(PID.TID 0000.0001)                -1.784990050063338E+02,      /* I =471 */
(PID.TID 0000.0001)                -1.784818474899759E+02,      /* I =472 */
(PID.TID 0000.0001)                -1.784607387968721E+02,      /* I =473 */
(PID.TID 0000.0001)                -1.784350110143507E+02,      /* I =474 */
(PID.TID 0000.0001)                -1.784038689895125E+02,      /* I =475 */
(PID.TID 0000.0001)                -1.783663723812381E+02,      /* I =476 */
(PID.TID 0000.0001)                -1.783214124948809E+02,      /* I =477 */
(PID.TID 0000.0001)                -1.782676810694432E+02,      /* I =478 */
(PID.TID 0000.0001)                -1.782036265972133E+02,      /* I =479 */
(PID.TID 0000.0001)                -1.781273914869666E+02,      /* I =480 */
(PID.TID 0000.0001)                -1.507864403436732E+02,      /* I =481 */
(PID.TID 0000.0001)                -1.516990564219770E+02,      /* I =482 */
(PID.TID 0000.0001)                -1.524608463079654E+02,      /* I =483 */
(PID.TID 0000.0001)                -1.530931373639416E+02,      /* I =484 */
(PID.TID 0000.0001)                -1.536153866431508E+02,      /* I =485 */
(PID.TID 0000.0001)                -1.540448869165119E+02,      /* I =486 */
(PID.TID 0000.0001)                -1.543966436022907E+02,      /* I =487 */
(PID.TID 0000.0001)                -1.546834167081536E+02,      /* I =488 */
(PID.TID 0000.0001)                -1.549158770988891E+02,      /* I =489 */
(PID.TID 0000.0001)                -1.551028207938503E+02,      /* I =490 */
(PID.TID 0000.0001)                -1.552513980184783E+02,      /* I =491 */
(PID.TID 0000.0001)                -1.553673299911806E+02,      /* I =492 */
(PID.TID 0000.0001)                -1.554550992798113E+02,      /* I =493 */
(PID.TID 0000.0001)                -1.555181078157852E+02,      /* I =494 */
(PID.TID 0000.0001)                -1.555588012105754E+02,      /* I =495 */
(PID.TID 0000.0001)     2 @ -1.555787601279266E+02,             /* I =496:497 */
(PID.TID 0000.0001)                -1.555588012105754E+02,      /* I =498 */
(PID.TID 0000.0001)                -1.555181078157852E+02,      /* I =499 */
(PID.TID 0000.0001)                -1.554550992798113E+02,      /* I =500 */
(PID.TID 0000.0001)                -1.553673299911806E+02,      /* I =501 */
(PID.TID 0000.0001)                -1.552513980184783E+02,      /* I =502 */
(PID.TID 0000.0001)                -1.551028207938503E+02,      /* I =503 */
(PID.TID 0000.0001)                -1.549158770988891E+02,      /* I =504 */
(PID.TID 0000.0001)                -1.546834167081536E+02,      /* I =505 */
(PID.TID 0000.0001)                -1.543966436022907E+02,      /* I =506 */
(PID.TID 0000.0001)                -1.540448869165119E+02,      /* I =507 */
(PID.TID 0000.0001)                -1.536153866431508E+02,      /* I =508 */
(PID.TID 0000.0001)                -1.530931373639416E+02,      /* I =509 */
(PID.TID 0000.0001)                -1.524608463079654E+02,      /* I =510 */
(PID.TID 0000.0001)                -1.516990564219770E+02,      /* I =511 */
(PID.TID 0000.0001)                -1.507864403436732E+02,      /* I =512 */
(PID.TID 0000.0001)                -1.343952199476053E+02,      /* I =513 */
(PID.TID 0000.0001)                -1.341632092338671E+02,      /* I =514 */
(PID.TID 0000.0001)                -1.340279617818807E+02,      /* I =515 */
(PID.TID 0000.0001)                -1.339345343098211E+02,      /* I =516 */
(PID.TID 0000.0001)                -1.338655466852958E+02,      /* I =517 */
(PID.TID 0000.0001)                -1.338128780579019E+02,      /* I =518 */
(PID.TID 0000.0001)                -1.337719205490397E+02,      /* I =519 */
(PID.TID 0000.0001)                -1.337397488928066E+02,      /* I =520 */
(PID.TID 0000.0001)                -1.337143719673266E+02,      /* I =521 */
(PID.TID 0000.0001)                -1.336943733729099E+02,      /* I =522 */
(PID.TID 0000.0001)                -1.336787182260554E+02,      /* I =523 */
(PID.TID 0000.0001)                -1.336666404089745E+02,      /* I =524 */
(PID.TID 0000.0001)                -1.336575727574240E+02,      /* I =525 */
(PID.TID 0000.0001)                -1.336511021209287E+02,      /* I =526 */
(PID.TID 0000.0001)                -1.336469399409420E+02,      /* I =527 */
(PID.TID 0000.0001)     2 @ -1.336449032499283E+02,             /* I =528:529 */
(PID.TID 0000.0001)                -1.336469399409420E+02,      /* I =530 */
(PID.TID 0000.0001)                -1.336511021209287E+02,      /* I =531 */
(PID.TID 0000.0001)                -1.336575727574240E+02,      /* I =532 */
(PID.TID 0000.0001)                -1.336666404089745E+02,      /* I =533 */
(PID.TID 0000.0001)                -1.336787182260554E+02,      /* I =534 */
(PID.TID 0000.0001)                -1.336943733729099E+02,      /* I =535 */
(PID.TID 0000.0001)                -1.337143719673266E+02,      /* I =536 */
(PID.TID 0000.0001)                -1.337397488928066E+02,      /* I =537 */
(PID.TID 0000.0001)                -1.337719205490397E+02,      /* I =538 */
(PID.TID 0000.0001)                -1.338128780579019E+02,      /* I =539 */
(PID.TID 0000.0001)                -1.338655466852958E+02,      /* I =540 */
(PID.TID 0000.0001)                -1.339345343098211E+02,      /* I =541 */
(PID.TID 0000.0001)                -1.340279617818807E+02,      /* I =542 */
(PID.TID 0000.0001)                -1.341632092338671E+02,      /* I =543 */
(PID.TID 0000.0001)                -1.343952199476053E+02,      /* I =544 */
(PID.TID 0000.0001)                -1.162493222302829E+02,      /* I =545 */
(PID.TID 0000.0001)                -1.153780070172414E+02,      /* I =546 */
(PID.TID 0000.0001)                -1.146477754871237E+02,      /* I =547 */
(PID.TID 0000.0001)                -1.140388698594471E+02,      /* I =548 */
(PID.TID 0000.0001)                -1.135335241781759E+02,      /* I =549 */
(PID.TID 0000.0001)                -1.131160084810412E+02,      /* I =550 */
(PID.TID 0000.0001)                -1.127726262608337E+02,      /* I =551 */
(PID.TID 0000.0001)                -1.124916425347373E+02,      /* I =552 */
(PID.TID 0000.0001)                -1.122631524957240E+02,      /* I =553 */
(PID.TID 0000.0001)                -1.120789141806996E+02,      /* I =554 */
(PID.TID 0000.0001)                -1.119321687955517E+02,      /* I =555 */
(PID.TID 0000.0001)                -1.118174667326637E+02,      /* I =556 */
(PID.TID 0000.0001)                -1.117305108159925E+02,      /* I =557 */
(PID.TID 0000.0001)                -1.116680230725123E+02,      /* I =558 */
(PID.TID 0000.0001)                -1.116276378304687E+02,      /* I =559 */
(PID.TID 0000.0001)     2 @ -1.116078219372886E+02,             /* I =560:561 */
(PID.TID 0000.0001)                -1.116276378304687E+02,      /* I =562 */
(PID.TID 0000.0001)                -1.116680230725123E+02,      /* I =563 */
(PID.TID 0000.0001)                -1.117305108159925E+02,      /* I =564 */
(PID.TID 0000.0001)                -1.118174667326637E+02,      /* I =565 */
(PID.TID 0000.0001)                -1.119321687955517E+02,      /* I =566 */
(PID.TID 0000.0001)                -1.120789141806996E+02,      /* I =567 */
(PID.TID 0000.0001)                -1.122631524957240E+02,      /* I =568 */
(PID.TID 0000.0001)                -1.124916425347373E+02,      /* I =569 */
(PID.TID 0000.0001)                -1.127726262608337E+02,      /* I =570 */
(PID.TID 0000.0001)                -1.131160084810412E+02,      /* I =571 */
(PID.TID 0000.0001)                -1.135335241781759E+02,      /* I =572 */
(PID.TID 0000.0001)                -1.140388698594471E+02,      /* I =573 */
(PID.TID 0000.0001)                -1.146477754871237E+02,      /* I =574 */
(PID.TID 0000.0001)                -1.153780070172414E+02,      /* I =575 */
(PID.TID 0000.0001)                -1.162493222302829E+02,      /* I =576 */
(PID.TID 0000.0001)                -8.812739148696656E+01,      /* I =577 */
(PID.TID 0000.0001)                -8.820362659721324E+01,      /* I =578 */
(PID.TID 0000.0001)                -8.826768106944316E+01,      /* I =579 */
(PID.TID 0000.0001)                -8.832141249488093E+01,      /* I =580 */
(PID.TID 0000.0001)                -8.836637238123808E+01,      /* I =581 */
(PID.TID 0000.0001)                -8.840386898951252E+01,      /* I =582 */
(PID.TID 0000.0001)                -8.843501101435068E+01,      /* I =583 */
(PID.TID 0000.0001)                -8.846073879687214E+01,      /* I =584 */
(PID.TID 0000.0001)                -8.848184748997595E+01,      /* I =585 */
(PID.TID 0000.0001)                -8.849900500633379E+01,      /* I =586 */
(PID.TID 0000.0001)                -8.851276647698448E+01,      /* I =587 */
(PID.TID 0000.0001)                -8.852358620995153E+01,      /* I =588 */
(PID.TID 0000.0001)                -8.853182766889645E+01,      /* I =589 */
(PID.TID 0000.0001)                -8.853777171326072E+01,      /* I =590 */
(PID.TID 0000.0001)                -8.854162319006606E+01,      /* I =591 */
(PID.TID 0000.0001)     2 @ -8.854351589505353E+01,             /* I =592:593 */
(PID.TID 0000.0001)                -8.854162319006606E+01,      /* I =594 */
(PID.TID 0000.0001)                -8.853777171326072E+01,      /* I =595 */
(PID.TID 0000.0001)                -8.853182766889645E+01,      /* I =596 */
(PID.TID 0000.0001)                -8.852358620995153E+01,      /* I =597 */
(PID.TID 0000.0001)                -8.851276647698448E+01,      /* I =598 */
(PID.TID 0000.0001)                -8.849900500633379E+01,      /* I =599 */
(PID.TID 0000.0001)                -8.848184748997595E+01,      /* I =600 */
(PID.TID 0000.0001)                -8.846073879687214E+01,      /* I =601 */
(PID.TID 0000.0001)                -8.843501101435068E+01,      /* I =602 */
(PID.TID 0000.0001)                -8.840386898951252E+01,      /* I =603 */
(PID.TID 0000.0001)                -8.836637238123808E+01,      /* I =604 */
(PID.TID 0000.0001)                -8.832141249488093E+01,      /* I =605 */
(PID.TID 0000.0001)                -8.826768106944316E+01,      /* I =606 */
(PID.TID 0000.0001)                -8.820362659721324E+01,      /* I =607 */
(PID.TID 0000.0001)                -8.812739148696656E+01,      /* I =608 */
(PID.TID 0000.0001)                -6.078644034367325E+01,      /* I =609 */
(PID.TID 0000.0001)                -6.169905642197705E+01,      /* I =610 */
(PID.TID 0000.0001)                -6.246084630796538E+01,      /* I =611 */
(PID.TID 0000.0001)                -6.309313736394157E+01,      /* I =612 */
(PID.TID 0000.0001)                -6.361538664315079E+01,      /* I =613 */
(PID.TID 0000.0001)                -6.404488691651190E+01,      /* I =614 */
(PID.TID 0000.0001)                -6.439664360229069E+01,      /* I =615 */
(PID.TID 0000.0001)                -6.468341670815360E+01,      /* I =616 */
(PID.TID 0000.0001)                -6.491587709888910E+01,      /* I =617 */
(PID.TID 0000.0001)                -6.510282079385028E+01,      /* I =618 */
(PID.TID 0000.0001)                -6.525139801847828E+01,      /* I =619 */
(PID.TID 0000.0001)                -6.536732999118060E+01,      /* I =620 */
(PID.TID 0000.0001)                -6.545509927981132E+01,      /* I =621 */
(PID.TID 0000.0001)                -6.551810781578520E+01,      /* I =622 */
(PID.TID 0000.0001)                -6.555880121057542E+01,      /* I =623 */
(PID.TID 0000.0001)     2 @ -6.557876012792660E+01,             /* I =624:625 */
(PID.TID 0000.0001)                -6.555880121057542E+01,      /* I =626 */
(PID.TID 0000.0001)                -6.551810781578520E+01,      /* I =627 */
(PID.TID 0000.0001)                -6.545509927981132E+01,      /* I =628 */
(PID.TID 0000.0001)                -6.536732999118060E+01,      /* I =629 */
(PID.TID 0000.0001)                -6.525139801847828E+01,      /* I =630 */
(PID.TID 0000.0001)                -6.510282079385028E+01,      /* I =631 */
(PID.TID 0000.0001)                -6.491587709888910E+01,      /* I =632 */
(PID.TID 0000.0001)                -6.468341670815360E+01,      /* I =633 */
(PID.TID 0000.0001)                -6.439664360229069E+01,      /* I =634 */
(PID.TID 0000.0001)                -6.404488691651190E+01,      /* I =635 */
(PID.TID 0000.0001)                -6.361538664315079E+01,      /* I =636 */
(PID.TID 0000.0001)                -6.309313736394157E+01,      /* I =637 */
(PID.TID 0000.0001)                -6.246084630796538E+01,      /* I =638 */
(PID.TID 0000.0001)                -6.169905642197705E+01,      /* I =639 */
(PID.TID 0000.0001)                -6.078644034367325E+01,      /* I =640 */
(PID.TID 0000.0001)                -1.350000000000000E+02,      /* I =641 */
(PID.TID 0000.0001)                -1.362080546879630E+02,      /* I =642 */
(PID.TID 0000.0001)                -1.378136964251304E+02,      /* I =643 */
(PID.TID 0000.0001)                -1.397176767114393E+02,      /* I =644 */
(PID.TID 0000.0001)                -1.418773831978723E+02,      /* I =645 */
(PID.TID 0000.0001)                -1.442700437147871E+02,      /* I =646 */
(PID.TID 0000.0001)                -1.468812832533406E+02,      /* I =647 */
(PID.TID 0000.0001)                -1.497001816778676E+02,      /* I =648 */
(PID.TID 0000.0001)                -1.527165499179235E+02,      /* I =649 */
(PID.TID 0000.0001)                -1.559191460485302E+02,      /* I =650 */
(PID.TID 0000.0001)                -1.592943927048415E+02,      /* I =651 */
(PID.TID 0000.0001)                -1.628254580761615E+02,      /* I =652 */
(PID.TID 0000.0001)                -1.664916883061893E+02,      /* I =653 */
(PID.TID 0000.0001)                -1.702684280378718E+02,      /* I =654 */
(PID.TID 0000.0001)                -1.741272674312418E+02,      /* I =655 */
(PID.TID 0000.0001)                -1.780367200854751E+02,      /* I =656 */
(PID.TID 0000.0001)                 1.780367200854751E+02,      /* I =657 */
(PID.TID 0000.0001)                 1.741272674312418E+02,      /* I =658 */
(PID.TID 0000.0001)                 1.702684280378718E+02,      /* I =659 */
(PID.TID 0000.0001)                 1.664916883061893E+02,      /* I =660 */
(PID.TID 0000.0001)                 1.628254580761615E+02,      /* I =661 */
(PID.TID 0000.0001)                 1.592943927048415E+02,      /* I =662 */
(PID.TID 0000.0001)                 1.559191460485302E+02,      /* I =663 */
(PID.TID 0000.0001)                 1.527165499179235E+02,      /* I =664 */
(PID.TID 0000.0001)                 1.497001816778676E+02,      /* I =665 */
(PID.TID 0000.0001)                 1.468812832533406E+02,      /* I =666 */
(PID.TID 0000.0001)                 1.442700437147871E+02,      /* I =667 */
(PID.TID 0000.0001)                 1.418773831978723E+02,      /* I =668 */
(PID.TID 0000.0001)                 1.397176767114393E+02,      /* I =669 */
(PID.TID 0000.0001)                 1.378136964251304E+02,      /* I =670 */
(PID.TID 0000.0001)                 1.362080546879630E+02,      /* I =671 */
(PID.TID 0000.0001)                 1.350000000000000E+02,      /* I =672 */
(PID.TID 0000.0001)                -1.172834500820765E+02,      /* I =673 */
(PID.TID 0000.0001)                -1.185042046095764E+02,      /* I =674 */
(PID.TID 0000.0001)                -1.199378473739301E+02,      /* I =675 */
(PID.TID 0000.0001)                -1.216137616049345E+02,      /* I =676 */
(PID.TID 0000.0001)                -1.235654124756676E+02,      /* I =677 */
(PID.TID 0000.0001)                -1.258314713471861E+02,      /* I =678 */
(PID.TID 0000.0001)                -1.284568852478110E+02,      /* I =679 */
(PID.TID 0000.0001)                -1.314935457224824E+02,      /* I =680 */
(PID.TID 0000.0001)                -1.350000000000000E+02,      /* I =681 */
(PID.TID 0000.0001)                -1.390393096999915E+02,      /* I =682 */
(PID.TID 0000.0001)                -1.436737245197415E+02,      /* I =683 */
(PID.TID 0000.0001)                -1.489545140625127E+02,      /* I =684 */
(PID.TID 0000.0001)                -1.549056784438930E+02,      /* I =685 */
(PID.TID 0000.0001)                -1.615023705391038E+02,      /* I =686 */
(PID.TID 0000.0001)                -1.686495238850054E+02,      /* I =687 */
(PID.TID 0000.0001)                -1.761719223360811E+02,      /* I =688 */
(PID.TID 0000.0001)                 1.761719223360811E+02,      /* I =689 */
(PID.TID 0000.0001)                 1.686495238850054E+02,      /* I =690 */
(PID.TID 0000.0001)                 1.615023705391038E+02,      /* I =691 */
(PID.TID 0000.0001)                 1.549056784438930E+02,      /* I =692 */
(PID.TID 0000.0001)                 1.489545140625127E+02,      /* I =693 */
(PID.TID 0000.0001)                 1.436737245197415E+02,      /* I =694 */
(PID.TID 0000.0001)                 1.390393096999915E+02,      /* I =695 */
(PID.TID 0000.0001)                 1.350000000000000E+02,      /* I =696 */
(PID.TID 0000.0001)                 1.314935457224824E+02,      /* I =697 */
(PID.TID 0000.0001)                 1.284568852478110E+02,      /* I =698 */
(PID.TID 0000.0001)                 1.258314713471861E+02,      /* I =699 */
(PID.TID 0000.0001)                 1.235654124756676E+02,      /* I =700 */
(PID.TID 0000.0001)                 1.216137616049345E+02,      /* I =701 */
(PID.TID 0000.0001)                 1.199378473739301E+02,      /* I =702 */
(PID.TID 0000.0001)                 1.185042046095764E+02,      /* I =703 */
(PID.TID 0000.0001)                 1.172834500820765E+02,      /* I =704 */
(PID.TID 0000.0001)                -8.803672008547504E+01,      /* I =705 */
(PID.TID 0000.0001)                -8.792882256753080E+01,      /* I =706 */
(PID.TID 0000.0001)                -8.780017165257156E+01,      /* I =707 */
(PID.TID 0000.0001)                -8.764619538858894E+01,      /* I =708 */
(PID.TID 0000.0001)                -8.746080470301297E+01,      /* I =709 */
(PID.TID 0000.0001)                -8.723564857290512E+01,      /* I =710 */
(PID.TID 0000.0001)                -8.695890012248499E+01,      /* I =711 */
(PID.TID 0000.0001)                -8.661319279375114E+01,      /* I =712 */
(PID.TID 0000.0001)                -8.617192233608105E+01,      /* I =713 */
(PID.TID 0000.0001)                -8.559217524632359E+01,      /* I =714 */
(PID.TID 0000.0001)                -8.480005230930000E+01,      /* I =715 */
(PID.TID 0000.0001)                -8.365679526150099E+01,      /* I =716 */
(PID.TID 0000.0001)                -8.186849014105876E+01,      /* I =717 */
(PID.TID 0000.0001)                -7.868956337558778E+01,      /* I =718 */
(PID.TID 0000.0001)                -7.156494823982612E+01,      /* I =719 */
(PID.TID 0000.0001)                -4.500000000000000E+01,      /* I =720 */
(PID.TID 0000.0001)                 4.500000000000000E+01,      /* I =721 */
(PID.TID 0000.0001)                 7.156494823982612E+01,      /* I =722 */
(PID.TID 0000.0001)                 7.868956337558778E+01,      /* I =723 */
(PID.TID 0000.0001)                 8.186849014105876E+01,      /* I =724 */
(PID.TID 0000.0001)                 8.365679526150099E+01,      /* I =725 */
(PID.TID 0000.0001)                 8.480005230930000E+01,      /* I =726 */
(PID.TID 0000.0001)                 8.559217524632359E+01,      /* I =727 */
(PID.TID 0000.0001)                 8.617192233608105E+01,      /* I =728 */
(PID.TID 0000.0001)                 8.661319279375114E+01,      /* I =729 */
(PID.TID 0000.0001)                 8.695890012248499E+01,      /* I =730 */
(PID.TID 0000.0001)                 8.723564857290512E+01,      /* I =731 */
(PID.TID 0000.0001)                 8.746080470301297E+01,      /* I =732 */
(PID.TID 0000.0001)                 8.764619538858894E+01,      /* I =733 */
(PID.TID 0000.0001)                 8.780017165257156E+01,      /* I =734 */
(PID.TID 0000.0001)                 8.792882256753080E+01,      /* I =735 */
(PID.TID 0000.0001)                 8.803672008547504E+01,      /* I =736 */
(PID.TID 0000.0001)                -5.970018167786760E+01,      /* I =737 */
(PID.TID 0000.0001)                -5.841626504858314E+01,      /* I =738 */
(PID.TID 0000.0001)                -5.690947549660092E+01,      /* I =739 */
(PID.TID 0000.0001)                -5.515300959422704E+01,      /* I =740 */
(PID.TID 0000.0001)                -5.311777720756684E+01,      /* I =741 */
(PID.TID 0000.0001)                -5.077162491036235E+01,      /* I =742 */
(PID.TID 0000.0001)                -4.807879622724479E+01,      /* I =743 */
(PID.TID 0000.0001)                -4.500000000000000E+01,      /* I =744 */
(PID.TID 0000.0001)                -4.149354572248240E+01,      /* I =745 */
(PID.TID 0000.0001)                -3.751813638945730E+01,      /* I =746 */
(PID.TID 0000.0001)                -3.303801363240477E+01,      /* I =747 */
(PID.TID 0000.0001)                -2.803103832721200E+01,      /* I =748 */
(PID.TID 0000.0001)                -2.249964581464693E+01,      /* I =749 */
(PID.TID 0000.0001)                -1.648311936749689E+01,      /* I =750 */
(PID.TID 0000.0001)                -1.006739189487309E+01,      /* I =751 */
(PID.TID 0000.0001)                -3.386807206248865E+00,      /* I =752 */
(PID.TID 0000.0001)                 3.386807206248865E+00,      /* I =753 */
(PID.TID 0000.0001)                 1.006739189487309E+01,      /* I =754 */
(PID.TID 0000.0001)                 1.648311936749689E+01,      /* I =755 */
(PID.TID 0000.0001)                 2.249964581464693E+01,      /* I =756 */
(PID.TID 0000.0001)                 2.803103832721200E+01,      /* I =757 */
(PID.TID 0000.0001)                 3.303801363240477E+01,      /* I =758 */
(PID.TID 0000.0001)                 3.751813638945730E+01,      /* I =759 */
(PID.TID 0000.0001)                 4.149354572248240E+01,      /* I =760 */
(PID.TID 0000.0001)                 4.500000000000000E+01,      /* I =761 */
(PID.TID 0000.0001)                 4.807879622724479E+01,      /* I =762 */
(PID.TID 0000.0001)                 5.077162491036235E+01,      /* I =763 */
(PID.TID 0000.0001)                 5.311777720756684E+01,      /* I =764 */
(PID.TID 0000.0001)                 5.515300959422704E+01,      /* I =765 */
(PID.TID 0000.0001)                 5.690947549660092E+01,      /* I =766 */
(PID.TID 0000.0001)                 5.841626504858314E+01,      /* I =767 */
(PID.TID 0000.0001)                 5.970018167786760E+01       /* I =768 */
(PID.TID 0000.0001)     ;
(PID.TID 0000.0001) ycoord =   /* P-point Y coord ( m - cartesian, degrees - spherical ) */
(PID.TID 0000.0001)                -3.497677942598243E+01,      /* J =  1 */
(PID.TID 0000.0001)                -3.374005967394886E+01,      /* J =  2 */
(PID.TID 0000.0001)                -3.220655175667454E+01,      /* J =  3 */
(PID.TID 0000.0001)                -3.045756348838641E+01,      /* J =  4 */
(PID.TID 0000.0001)                -2.853728129852918E+01,      /* J =  5 */
(PID.TID 0000.0001)                -2.647426640173173E+01,      /* J =  6 */
(PID.TID 0000.0001)                -2.428936657094636E+01,      /* J =  7 */
(PID.TID 0000.0001)                -2.199915808312262E+01       /* J =  8 */
(PID.TID 0000.0001)     ;
(PID.TID 0000.0001) rcoord =   /* P-point R coordinate (  units of r ) */
(PID.TID 0000.0001)                -6.830000000000000E+02       /* K =  1 */
(PID.TID 0000.0001)     ;
(PID.TID 0000.0001) rF =   /* W-Interf. R coordinate (  units of r ) */
(PID.TID 0000.0001)                 0.000000000000000E+00,      /* K =  1 */
(PID.TID 0000.0001)                -1.366000000000000E+03       /* K =  2 */
(PID.TID 0000.0001)     ;
(PID.TID 0000.0001) deepFacC = /* deep-model grid factor @ cell-Center (-) */
(PID.TID 0000.0001)                 1.000000000000000E+00       /* K =  1 */
(PID.TID 0000.0001)     ;
(PID.TID 0000.0001) deepFacF = /* deep-model grid factor @ W-Interface (-) */
(PID.TID 0000.0001)     2 @  1.000000000000000E+00              /* K =  1:  2 */
(PID.TID 0000.0001)     ;
(PID.TID 0000.0001) rVel2wUnit = /* convert units: rVel -> wSpeed (=1 if z-coord)*/
(PID.TID 0000.0001)     2 @  1.000000000000000E+00              /* K =  1:  2 */
(PID.TID 0000.0001)     ;
(PID.TID 0000.0001) wUnit2rVel = /* convert units: wSpeed -> rVel (=1 if z-coord)*/
(PID.TID 0000.0001)     2 @  1.000000000000000E+00              /* K =  1:  2 */
(PID.TID 0000.0001)     ;
(PID.TID 0000.0001) dBdrRef = /* Vertical gradient of reference boyancy [(m/s/r)^2)] */
(PID.TID 0000.0001)                 0.000000000000000E+00       /* K =  1 */
(PID.TID 0000.0001)     ;
(PID.TID 0000.0001) rotateGrid = /* use rotated grid ( True/False ) */
(PID.TID 0000.0001)                   F
(PID.TID 0000.0001)     ;
(PID.TID 0000.0001) phiEuler = /* Euler angle, rotation about original z-coordinate [rad] */
(PID.TID 0000.0001)                 0.000000000000000E+00
(PID.TID 0000.0001)     ;
(PID.TID 0000.0001) thetaEuler = /* Euler angle, rotation about new x-coordinate [rad] */
(PID.TID 0000.0001)                 0.000000000000000E+00
(PID.TID 0000.0001)     ;
(PID.TID 0000.0001) psiEuler = /* Euler angle, rotation about new z-coordinate [rad] */
(PID.TID 0000.0001)                 0.000000000000000E+00
(PID.TID 0000.0001)     ;
(PID.TID 0000.0001) dxF =  /* dxF(:,1,:,1) ( units: m ) */
(PID.TID 0000.0001)                 1.202082051331828E+05,      /* I =  1 */
(PID.TID 0000.0001)                 1.563594089971120E+05,      /* I =  2 */
(PID.TID 0000.0001)                 1.835530058121492E+05,      /* I =  3 */
(PID.TID 0000.0001)                 2.045883481718707E+05,      /* I =  4 */
(PID.TID 0000.0001)                 2.218350349844185E+05,      /* I =  5 */
(PID.TID 0000.0001)                 2.364352994647058E+05,      /* I =  6 */
(PID.TID 0000.0001)                 2.490022710862746E+05,      /* I =  7 */
(PID.TID 0000.0001)                 2.598919724358304E+05,      /* I =  8 */
(PID.TID 0000.0001)                 2.693210245495156E+05,      /* I =  9 */
(PID.TID 0000.0001)                 2.774243179696503E+05,      /* I = 10 */
(PID.TID 0000.0001)                 2.842862532064524E+05,      /* I = 11 */
(PID.TID 0000.0001)                 2.899590699694043E+05,      /* I = 12 */
(PID.TID 0000.0001)                 2.944742915095688E+05,      /* I = 13 */
(PID.TID 0000.0001)                 2.978501920522794E+05,      /* I = 14 */
(PID.TID 0000.0001)                 3.000967749619962E+05,      /* I = 15 */
(PID.TID 0000.0001)     2 @  3.012190981969055E+05,             /* I = 16: 17 */
(PID.TID 0000.0001)                 3.000967749619962E+05,      /* I = 18 */
(PID.TID 0000.0001)                 2.978501920522794E+05,      /* I = 19 */
(PID.TID 0000.0001)                 2.944742915095688E+05,      /* I = 20 */
(PID.TID 0000.0001)                 2.899590699694043E+05,      /* I = 21 */
(PID.TID 0000.0001)                 2.842862532064524E+05,      /* I = 22 */
(PID.TID 0000.0001)                 2.774243179696503E+05,      /* I = 23 */
(PID.TID 0000.0001)                 2.693210245495156E+05,      /* I = 24 */
(PID.TID 0000.0001)                 2.598919724358304E+05,      /* I = 25 */
(PID.TID 0000.0001)                 2.490022710862746E+05,      /* I = 26 */
(PID.TID 0000.0001)                 2.364352994647058E+05,      /* I = 27 */
(PID.TID 0000.0001)                 2.218350349844185E+05,      /* I = 28 */
(PID.TID 0000.0001)                 2.045883481718707E+05,      /* I = 29 */
(PID.TID 0000.0001)                 1.835530058121492E+05,      /* I = 30 */
(PID.TID 0000.0001)                 1.563594089971120E+05,      /* I = 31 */
(PID.TID 0000.0001)                 1.202082051331828E+05,      /* I = 32 */
(PID.TID 0000.0001)                 2.694110134598581E+05,      /* I = 33 */
(PID.TID 0000.0001)                 2.705231413075805E+05,      /* I = 34 */
(PID.TID 0000.0001)                 2.726579649676481E+05,      /* I = 35 */
(PID.TID 0000.0001)                 2.756548836326629E+05,      /* I = 36 */
(PID.TID 0000.0001)                 2.793107344025355E+05,      /* I = 37 */
(PID.TID 0000.0001)                 2.834083988863162E+05,      /* I = 38 */
(PID.TID 0000.0001)                 2.877383482793128E+05,      /* I = 39 */
(PID.TID 0000.0001)                 2.921111682925773E+05,      /* I = 40 */
(PID.TID 0000.0001)                 2.963626409677758E+05,      /* I = 41 */
(PID.TID 0000.0001)                 3.003541383476192E+05,      /* I = 42 */
(PID.TID 0000.0001)                 3.039707489303444E+05,      /* I = 43 */
(PID.TID 0000.0001)                 3.071187272280302E+05,      /* I = 44 */
(PID.TID 0000.0001)                 3.097231021673243E+05,      /* I = 45 */
(PID.TID 0000.0001)                 3.117257745272702E+05,      /* I = 46 */
(PID.TID 0000.0001)                 3.130841559279307E+05,      /* I = 47 */
(PID.TID 0000.0001)     2 @  3.137703202065625E+05,             /* I = 48: 49 */
(PID.TID 0000.0001)                 3.130841559279307E+05,      /* I = 50 */
(PID.TID 0000.0001)                 3.117257745272702E+05,      /* I = 51 */
(PID.TID 0000.0001)                 3.097231021673243E+05,      /* I = 52 */
(PID.TID 0000.0001)                 3.071187272280302E+05,      /* I = 53 */
(PID.TID 0000.0001)                 3.039707489303444E+05,      /* I = 54 */
(PID.TID 0000.0001)                 3.003541383476192E+05,      /* I = 55 */
(PID.TID 0000.0001)                 2.963626409677758E+05,      /* I = 56 */
(PID.TID 0000.0001)                 2.921111682925773E+05,      /* I = 57 */
(PID.TID 0000.0001)                 2.877383482793128E+05,      /* I = 58 */
(PID.TID 0000.0001)                 2.834083988863162E+05,      /* I = 59 */
(PID.TID 0000.0001)                 2.793107344025355E+05,      /* I = 60 */
(PID.TID 0000.0001)                 2.756548836326629E+05,      /* I = 61 */
(PID.TID 0000.0001)                 2.726579649676481E+05,      /* I = 62 */
(PID.TID 0000.0001)                 2.705231413075805E+05,      /* I = 63 */
(PID.TID 0000.0001)                 2.694110134598581E+05,      /* I = 64 */
(PID.TID 0000.0001)                 3.012844832048790E+05,      /* I = 65 */
(PID.TID 0000.0001)                 3.017314519159184E+05,      /* I = 66 */
(PID.TID 0000.0001)                 3.026061571839506E+05,      /* I = 67 */
(PID.TID 0000.0001)                 3.038712499122208E+05,      /* I = 68 */
(PID.TID 0000.0001)                 3.054733694195115E+05,      /* I = 69 */
(PID.TID 0000.0001)                 3.073460170047538E+05,      /* I = 70 */
(PID.TID 0000.0001)                 3.094129252024922E+05,      /* I = 71 */
(PID.TID 0000.0001)                 3.115916488673079E+05,      /* I = 72 */
(PID.TID 0000.0001)                 3.137971415338805E+05,      /* I = 73 */
(PID.TID 0000.0001)                 3.159451387866950E+05,      /* I = 74 */
(PID.TID 0000.0001)                 3.179552321069062E+05,      /* I = 75 */
(PID.TID 0000.0001)                 3.197535693737994E+05,      /* I = 76 */
(PID.TID 0000.0001)                 3.212751560265627E+05,      /* I = 77 */
(PID.TID 0000.0001)                 3.224657535572011E+05,      /* I = 78 */
(PID.TID 0000.0001)                 3.232833825614068E+05,      /* I = 79 */
(PID.TID 0000.0001)     2 @  3.236994750082736E+05,             /* I = 80: 81 */
(PID.TID 0000.0001)                 3.232833825614068E+05,      /* I = 82 */
(PID.TID 0000.0001)                 3.224657535572011E+05,      /* I = 83 */
(PID.TID 0000.0001)                 3.212751560265627E+05,      /* I = 84 */
(PID.TID 0000.0001)                 3.197535693737994E+05,      /* I = 85 */
(PID.TID 0000.0001)                 3.179552321069062E+05,      /* I = 86 */
(PID.TID 0000.0001)                 3.159451387866950E+05,      /* I = 87 */
(PID.TID 0000.0001)                 3.137971415338805E+05,      /* I = 88 */
(PID.TID 0000.0001)                 3.115916488673079E+05,      /* I = 89 */
(PID.TID 0000.0001)                 3.094129252024922E+05,      /* I = 90 */
(PID.TID 0000.0001)                 3.073460170047538E+05,      /* I = 91 */
(PID.TID 0000.0001)                 3.054733694195115E+05,      /* I = 92 */
(PID.TID 0000.0001)                 3.038712499122208E+05,      /* I = 93 */
(PID.TID 0000.0001)                 3.026061571839506E+05,      /* I = 94 */
(PID.TID 0000.0001)                 3.017314519159184E+05,      /* I = 95 */
(PID.TID 0000.0001)                 3.012844832048790E+05,      /* I = 96 */
(PID.TID 0000.0001)                 2.599949918261881E+05,      /* I = 97 */
(PID.TID 0000.0001)                 2.613928019944271E+05,      /* I = 98 */
(PID.TID 0000.0001)                 2.640534701478141E+05,      /* I = 99 */
(PID.TID 0000.0001)                 2.677421336598871E+05,      /* I =100 */
(PID.TID 0000.0001)                 2.721754665816094E+05,      /* I =101 */
(PID.TID 0000.0001)                 2.770677082849345E+05,      /* I =102 */
(PID.TID 0000.0001)                 2.821597581064359E+05,      /* I =103 */
(PID.TID 0000.0001)                 2.872314003732699E+05,      /* I =104 */
(PID.TID 0000.0001)                 2.921023023566398E+05,      /* I =105 */
(PID.TID 0000.0001)                 2.966276260863712E+05,      /* I =106 */
(PID.TID 0000.0001)                 3.006921489793282E+05,      /* I =107 */
(PID.TID 0000.0001)                 3.042048495507529E+05,      /* I =108 */
(PID.TID 0000.0001)                 3.070946554358933E+05,      /* I =109 */
(PID.TID 0000.0001)                 3.093074100109176E+05,      /* I =110 */
(PID.TID 0000.0001)                 3.108038593575396E+05,      /* I =111 */
(PID.TID 0000.0001)     2 @  3.115584474900804E+05,             /* I =112:113 */
(PID.TID 0000.0001)                 3.108038593575396E+05,      /* I =114 */
(PID.TID 0000.0001)                 3.093074100109176E+05,      /* I =115 */
(PID.TID 0000.0001)                 3.070946554358933E+05,      /* I =116 */
(PID.TID 0000.0001)                 3.042048495507529E+05,      /* I =117 */
(PID.TID 0000.0001)                 3.006921489793282E+05,      /* I =118 */
(PID.TID 0000.0001)                 2.966276260863712E+05,      /* I =119 */
(PID.TID 0000.0001)                 2.921023023566398E+05,      /* I =120 */
(PID.TID 0000.0001)                 2.872314003732699E+05,      /* I =121 */
(PID.TID 0000.0001)                 2.821597581064359E+05,      /* I =122 */
(PID.TID 0000.0001)                 2.770677082849345E+05,      /* I =123 */
(PID.TID 0000.0001)                 2.721754665816094E+05,      /* I =124 */
(PID.TID 0000.0001)                 2.677421336598871E+05,      /* I =125 */
(PID.TID 0000.0001)                 2.640534701478141E+05,      /* I =126 */
(PID.TID 0000.0001)                 2.613928019944271E+05,      /* I =127 */
(PID.TID 0000.0001)                 2.599949918261881E+05,      /* I =128 */
(PID.TID 0000.0001)                 1.202082051331828E+05,      /* I =129 */
(PID.TID 0000.0001)                 1.563594089971120E+05,      /* I =130 */
(PID.TID 0000.0001)                 1.835530058121492E+05,      /* I =131 */
(PID.TID 0000.0001)                 2.045883481718707E+05,      /* I =132 */
(PID.TID 0000.0001)                 2.218350349844185E+05,      /* I =133 */
(PID.TID 0000.0001)                 2.364352994647058E+05,      /* I =134 */
(PID.TID 0000.0001)                 2.490022710862746E+05,      /* I =135 */
(PID.TID 0000.0001)                 2.598919724358304E+05,      /* I =136 */
(PID.TID 0000.0001)                 2.693210245495156E+05,      /* I =137 */
(PID.TID 0000.0001)                 2.774243179696503E+05,      /* I =138 */
(PID.TID 0000.0001)                 2.842862532064524E+05,      /* I =139 */
(PID.TID 0000.0001)                 2.899590699694043E+05,      /* I =140 */
(PID.TID 0000.0001)                 2.944742915095688E+05,      /* I =141 */
(PID.TID 0000.0001)                 2.978501920522794E+05,      /* I =142 */
(PID.TID 0000.0001)                 3.000967749619962E+05,      /* I =143 */
(PID.TID 0000.0001)     2 @  3.012190981969055E+05,             /* I =144:145 */
(PID.TID 0000.0001)                 3.000967749619962E+05,      /* I =146 */
(PID.TID 0000.0001)                 2.978501920522794E+05,      /* I =147 */
(PID.TID 0000.0001)                 2.944742915095688E+05,      /* I =148 */
(PID.TID 0000.0001)                 2.899590699694043E+05,      /* I =149 */
(PID.TID 0000.0001)                 2.842862532064524E+05,      /* I =150 */
(PID.TID 0000.0001)                 2.774243179696503E+05,      /* I =151 */
(PID.TID 0000.0001)                 2.693210245495156E+05,      /* I =152 */
(PID.TID 0000.0001)                 2.598919724358304E+05,      /* I =153 */
(PID.TID 0000.0001)                 2.490022710862746E+05,      /* I =154 */
(PID.TID 0000.0001)                 2.364352994647058E+05,      /* I =155 */
(PID.TID 0000.0001)                 2.218350349844185E+05,      /* I =156 */
(PID.TID 0000.0001)                 2.045883481718707E+05,      /* I =157 */
(PID.TID 0000.0001)                 1.835530058121492E+05,      /* I =158 */
(PID.TID 0000.0001)                 1.563594089971120E+05,      /* I =159 */
(PID.TID 0000.0001)                 1.202082051331828E+05,      /* I =160 */
(PID.TID 0000.0001)                 2.694110134598581E+05,      /* I =161 */
(PID.TID 0000.0001)                 2.705231413075805E+05,      /* I =162 */
(PID.TID 0000.0001)                 2.726579649676481E+05,      /* I =163 */
(PID.TID 0000.0001)                 2.756548836326629E+05,      /* I =164 */
(PID.TID 0000.0001)                 2.793107344025355E+05,      /* I =165 */
(PID.TID 0000.0001)                 2.834083988863162E+05,      /* I =166 */
(PID.TID 0000.0001)                 2.877383482793128E+05,      /* I =167 */
(PID.TID 0000.0001)                 2.921111682925773E+05,      /* I =168 */
(PID.TID 0000.0001)                 2.963626409677758E+05,      /* I =169 */
(PID.TID 0000.0001)                 3.003541383476192E+05,      /* I =170 */
(PID.TID 0000.0001)                 3.039707489303444E+05,      /* I =171 */
(PID.TID 0000.0001)                 3.071187272280302E+05,      /* I =172 */
(PID.TID 0000.0001)                 3.097231021673243E+05,      /* I =173 */
(PID.TID 0000.0001)                 3.117257745272702E+05,      /* I =174 */
(PID.TID 0000.0001)                 3.130841559279307E+05,      /* I =175 */
(PID.TID 0000.0001)     2 @  3.137703202065625E+05,             /* I =176:177 */
(PID.TID 0000.0001)                 3.130841559279307E+05,      /* I =178 */
(PID.TID 0000.0001)                 3.117257745272702E+05,      /* I =179 */
(PID.TID 0000.0001)                 3.097231021673243E+05,      /* I =180 */
(PID.TID 0000.0001)                 3.071187272280302E+05,      /* I =181 */
(PID.TID 0000.0001)                 3.039707489303444E+05,      /* I =182 */
(PID.TID 0000.0001)                 3.003541383476192E+05,      /* I =183 */
(PID.TID 0000.0001)                 2.963626409677758E+05,      /* I =184 */
(PID.TID 0000.0001)                 2.921111682925773E+05,      /* I =185 */
(PID.TID 0000.0001)                 2.877383482793128E+05,      /* I =186 */
(PID.TID 0000.0001)                 2.834083988863162E+05,      /* I =187 */
(PID.TID 0000.0001)                 2.793107344025355E+05,      /* I =188 */
(PID.TID 0000.0001)                 2.756548836326629E+05,      /* I =189 */
(PID.TID 0000.0001)                 2.726579649676481E+05,      /* I =190 */
(PID.TID 0000.0001)                 2.705231413075805E+05,      /* I =191 */
(PID.TID 0000.0001)                 2.694110134598581E+05,      /* I =192 */
(PID.TID 0000.0001)                 3.012844832048790E+05,      /* I =193 */
(PID.TID 0000.0001)                 3.017314519159184E+05,      /* I =194 */
(PID.TID 0000.0001)                 3.026061571839506E+05,      /* I =195 */
(PID.TID 0000.0001)                 3.038712499122208E+05,      /* I =196 */
(PID.TID 0000.0001)                 3.054733694195115E+05,      /* I =197 */
(PID.TID 0000.0001)                 3.073460170047538E+05,      /* I =198 */
(PID.TID 0000.0001)                 3.094129252024922E+05,      /* I =199 */
(PID.TID 0000.0001)                 3.115916488673079E+05,      /* I =200 */
(PID.TID 0000.0001)                 3.137971415338805E+05,      /* I =201 */
(PID.TID 0000.0001)                 3.159451387866950E+05,      /* I =202 */
(PID.TID 0000.0001)                 3.179552321069062E+05,      /* I =203 */
(PID.TID 0000.0001)                 3.197535693737994E+05,      /* I =204 */
(PID.TID 0000.0001)                 3.212751560265627E+05,      /* I =205 */
(PID.TID 0000.0001)                 3.224657535572011E+05,      /* I =206 */
(PID.TID 0000.0001)                 3.232833825614068E+05,      /* I =207 */
(PID.TID 0000.0001)     2 @  3.236994750082736E+05,             /* I =208:209 */
(PID.TID 0000.0001)                 3.232833825614068E+05,      /* I =210 */
(PID.TID 0000.0001)                 3.224657535572011E+05,      /* I =211 */
(PID.TID 0000.0001)                 3.212751560265627E+05,      /* I =212 */
(PID.TID 0000.0001)                 3.197535693737994E+05,      /* I =213 */
(PID.TID 0000.0001)                 3.179552321069062E+05,      /* I =214 */
(PID.TID 0000.0001)                 3.159451387866950E+05,      /* I =215 */
(PID.TID 0000.0001)                 3.137971415338805E+05,      /* I =216 */
(PID.TID 0000.0001)                 3.115916488673079E+05,      /* I =217 */
(PID.TID 0000.0001)                 3.094129252024922E+05,      /* I =218 */
(PID.TID 0000.0001)                 3.073460170047538E+05,      /* I =219 */
(PID.TID 0000.0001)                 3.054733694195115E+05,      /* I =220 */
(PID.TID 0000.0001)                 3.038712499122208E+05,      /* I =221 */
(PID.TID 0000.0001)                 3.026061571839506E+05,      /* I =222 */
(PID.TID 0000.0001)                 3.017314519159184E+05,      /* I =223 */
(PID.TID 0000.0001)                 3.012844832048790E+05,      /* I =224 */
(PID.TID 0000.0001)                 2.599949918261881E+05,      /* I =225 */
(PID.TID 0000.0001)                 2.613928019944271E+05,      /* I =226 */
(PID.TID 0000.0001)                 2.640534701478141E+05,      /* I =227 */
(PID.TID 0000.0001)                 2.677421336598871E+05,      /* I =228 */
(PID.TID 0000.0001)                 2.721754665816094E+05,      /* I =229 */
(PID.TID 0000.0001)                 2.770677082849345E+05,      /* I =230 */
(PID.TID 0000.0001)                 2.821597581064359E+05,      /* I =231 */
(PID.TID 0000.0001)                 2.872314003732699E+05,      /* I =232 */
(PID.TID 0000.0001)                 2.921023023566398E+05,      /* I =233 */
(PID.TID 0000.0001)                 2.966276260863712E+05,      /* I =234 */
(PID.TID 0000.0001)                 3.006921489793282E+05,      /* I =235 */
(PID.TID 0000.0001)                 3.042048495507529E+05,      /* I =236 */
(PID.TID 0000.0001)                 3.070946554358933E+05,      /* I =237 */
(PID.TID 0000.0001)                 3.093074100109176E+05,      /* I =238 */
(PID.TID 0000.0001)                 3.108038593575396E+05,      /* I =239 */
(PID.TID 0000.0001)     2 @  3.115584474900804E+05,             /* I =240:241 */
(PID.TID 0000.0001)                 3.108038593575396E+05,      /* I =242 */
(PID.TID 0000.0001)                 3.093074100109176E+05,      /* I =243 */
(PID.TID 0000.0001)                 3.070946554358933E+05,      /* I =244 */
(PID.TID 0000.0001)                 3.042048495507529E+05,      /* I =245 */
(PID.TID 0000.0001)                 3.006921489793282E+05,      /* I =246 */
(PID.TID 0000.0001)                 2.966276260863712E+05,      /* I =247 */
(PID.TID 0000.0001)                 2.921023023566398E+05,      /* I =248 */
(PID.TID 0000.0001)                 2.872314003732699E+05,      /* I =249 */
(PID.TID 0000.0001)                 2.821597581064359E+05,      /* I =250 */
(PID.TID 0000.0001)                 2.770677082849345E+05,      /* I =251 */
(PID.TID 0000.0001)                 2.721754665816094E+05,      /* I =252 */
(PID.TID 0000.0001)                 2.677421336598871E+05,      /* I =253 */
(PID.TID 0000.0001)                 2.640534701478141E+05,      /* I =254 */
(PID.TID 0000.0001)                 2.613928019944271E+05,      /* I =255 */
(PID.TID 0000.0001)                 2.599949918261881E+05,      /* I =256 */
(PID.TID 0000.0001)                 1.202082051331828E+05,      /* I =257 */
(PID.TID 0000.0001)                 1.563594089971120E+05,      /* I =258 */
(PID.TID 0000.0001)                 1.835530058121492E+05,      /* I =259 */
(PID.TID 0000.0001)                 2.045883481718707E+05,      /* I =260 */
(PID.TID 0000.0001)                 2.218350349844185E+05,      /* I =261 */
(PID.TID 0000.0001)                 2.364352994647058E+05,      /* I =262 */
(PID.TID 0000.0001)                 2.490022710862746E+05,      /* I =263 */
(PID.TID 0000.0001)                 2.598919724358304E+05,      /* I =264 */
(PID.TID 0000.0001)                 2.693210245495156E+05,      /* I =265 */
(PID.TID 0000.0001)                 2.774243179696503E+05,      /* I =266 */
(PID.TID 0000.0001)                 2.842862532064524E+05,      /* I =267 */
(PID.TID 0000.0001)                 2.899590699694043E+05,      /* I =268 */
(PID.TID 0000.0001)                 2.944742915095688E+05,      /* I =269 */
(PID.TID 0000.0001)                 2.978501920522794E+05,      /* I =270 */
(PID.TID 0000.0001)                 3.000967749619962E+05,      /* I =271 */
(PID.TID 0000.0001)     2 @  3.012190981969055E+05,             /* I =272:273 */
(PID.TID 0000.0001)                 3.000967749619962E+05,      /* I =274 */
(PID.TID 0000.0001)                 2.978501920522794E+05,      /* I =275 */
(PID.TID 0000.0001)                 2.944742915095688E+05,      /* I =276 */
(PID.TID 0000.0001)                 2.899590699694043E+05,      /* I =277 */
(PID.TID 0000.0001)                 2.842862532064524E+05,      /* I =278 */
(PID.TID 0000.0001)                 2.774243179696503E+05,      /* I =279 */
(PID.TID 0000.0001)                 2.693210245495156E+05,      /* I =280 */
(PID.TID 0000.0001)                 2.598919724358304E+05,      /* I =281 */
(PID.TID 0000.0001)                 2.490022710862746E+05,      /* I =282 */
(PID.TID 0000.0001)                 2.364352994647058E+05,      /* I =283 */
(PID.TID 0000.0001)                 2.218350349844185E+05,      /* I =284 */
(PID.TID 0000.0001)                 2.045883481718707E+05,      /* I =285 */
(PID.TID 0000.0001)                 1.835530058121492E+05,      /* I =286 */
(PID.TID 0000.0001)                 1.563594089971120E+05,      /* I =287 */
(PID.TID 0000.0001)                 1.202082051331828E+05,      /* I =288 */
(PID.TID 0000.0001)                 2.694110134598581E+05,      /* I =289 */
(PID.TID 0000.0001)                 2.705231413075805E+05,      /* I =290 */
(PID.TID 0000.0001)                 2.726579649676481E+05,      /* I =291 */
(PID.TID 0000.0001)                 2.756548836326629E+05,      /* I =292 */
(PID.TID 0000.0001)                 2.793107344025355E+05,      /* I =293 */
(PID.TID 0000.0001)                 2.834083988863162E+05,      /* I =294 */
(PID.TID 0000.0001)                 2.877383482793128E+05,      /* I =295 */
(PID.TID 0000.0001)                 2.921111682925773E+05,      /* I =296 */
(PID.TID 0000.0001)                 2.963626409677758E+05,      /* I =297 */
(PID.TID 0000.0001)                 3.003541383476192E+05,      /* I =298 */
(PID.TID 0000.0001)                 3.039707489303444E+05,      /* I =299 */
(PID.TID 0000.0001)                 3.071187272280302E+05,      /* I =300 */
(PID.TID 0000.0001)                 3.097231021673243E+05,      /* I =301 */
(PID.TID 0000.0001)                 3.117257745272702E+05,      /* I =302 */
(PID.TID 0000.0001)                 3.130841559279307E+05,      /* I =303 */
(PID.TID 0000.0001)     2 @  3.137703202065625E+05,             /* I =304:305 */
(PID.TID 0000.0001)                 3.130841559279307E+05,      /* I =306 */
(PID.TID 0000.0001)                 3.117257745272702E+05,      /* I =307 */
(PID.TID 0000.0001)                 3.097231021673243E+05,      /* I =308 */
(PID.TID 0000.0001)                 3.071187272280302E+05,      /* I =309 */
(PID.TID 0000.0001)                 3.039707489303444E+05,      /* I =310 */
(PID.TID 0000.0001)                 3.003541383476192E+05,      /* I =311 */
(PID.TID 0000.0001)                 2.963626409677758E+05,      /* I =312 */
(PID.TID 0000.0001)                 2.921111682925773E+05,      /* I =313 */
(PID.TID 0000.0001)                 2.877383482793128E+05,      /* I =314 */
(PID.TID 0000.0001)                 2.834083988863162E+05,      /* I =315 */
(PID.TID 0000.0001)                 2.793107344025355E+05,      /* I =316 */
(PID.TID 0000.0001)                 2.756548836326629E+05,      /* I =317 */
(PID.TID 0000.0001)                 2.726579649676481E+05,      /* I =318 */
(PID.TID 0000.0001)                 2.705231413075805E+05,      /* I =319 */
(PID.TID 0000.0001)                 2.694110134598581E+05,      /* I =320 */
(PID.TID 0000.0001)                 3.012844832048790E+05,      /* I =321 */
(PID.TID 0000.0001)                 3.017314519159184E+05,      /* I =322 */
(PID.TID 0000.0001)                 3.026061571839506E+05,      /* I =323 */
(PID.TID 0000.0001)                 3.038712499122208E+05,      /* I =324 */
(PID.TID 0000.0001)                 3.054733694195115E+05,      /* I =325 */
(PID.TID 0000.0001)                 3.073460170047538E+05,      /* I =326 */
(PID.TID 0000.0001)                 3.094129252024922E+05,      /* I =327 */
(PID.TID 0000.0001)                 3.115916488673079E+05,      /* I =328 */
(PID.TID 0000.0001)                 3.137971415338805E+05,      /* I =329 */
(PID.TID 0000.0001)                 3.159451387866950E+05,      /* I =330 */
(PID.TID 0000.0001)                 3.179552321069062E+05,      /* I =331 */
(PID.TID 0000.0001)                 3.197535693737994E+05,      /* I =332 */
(PID.TID 0000.0001)                 3.212751560265627E+05,      /* I =333 */
(PID.TID 0000.0001)                 3.224657535572011E+05,      /* I =334 */
(PID.TID 0000.0001)                 3.232833825614068E+05,      /* I =335 */
(PID.TID 0000.0001)     2 @  3.236994750082736E+05,             /* I =336:337 */
(PID.TID 0000.0001)                 3.232833825614068E+05,      /* I =338 */
(PID.TID 0000.0001)                 3.224657535572011E+05,      /* I =339 */
(PID.TID 0000.0001)                 3.212751560265627E+05,      /* I =340 */
(PID.TID 0000.0001)                 3.197535693737994E+05,      /* I =341 */
(PID.TID 0000.0001)                 3.179552321069062E+05,      /* I =342 */
(PID.TID 0000.0001)                 3.159451387866950E+05,      /* I =343 */
(PID.TID 0000.0001)                 3.137971415338805E+05,      /* I =344 */
(PID.TID 0000.0001)                 3.115916488673079E+05,      /* I =345 */
(PID.TID 0000.0001)                 3.094129252024922E+05,      /* I =346 */
(PID.TID 0000.0001)                 3.073460170047538E+05,      /* I =347 */
(PID.TID 0000.0001)                 3.054733694195115E+05,      /* I =348 */
(PID.TID 0000.0001)                 3.038712499122208E+05,      /* I =349 */
(PID.TID 0000.0001)                 3.026061571839506E+05,      /* I =350 */
(PID.TID 0000.0001)                 3.017314519159184E+05,      /* I =351 */
(PID.TID 0000.0001)                 3.012844832048790E+05,      /* I =352 */
(PID.TID 0000.0001)                 2.599949918261881E+05,      /* I =353 */
(PID.TID 0000.0001)                 2.613928019944271E+05,      /* I =354 */
(PID.TID 0000.0001)                 2.640534701478141E+05,      /* I =355 */
(PID.TID 0000.0001)                 2.677421336598871E+05,      /* I =356 */
(PID.TID 0000.0001)                 2.721754665816094E+05,      /* I =357 */
(PID.TID 0000.0001)                 2.770677082849345E+05,      /* I =358 */
(PID.TID 0000.0001)                 2.821597581064359E+05,      /* I =359 */
(PID.TID 0000.0001)                 2.872314003732699E+05,      /* I =360 */
(PID.TID 0000.0001)                 2.921023023566398E+05,      /* I =361 */
(PID.TID 0000.0001)                 2.966276260863712E+05,      /* I =362 */
(PID.TID 0000.0001)                 3.006921489793282E+05,      /* I =363 */
(PID.TID 0000.0001)                 3.042048495507529E+05,      /* I =364 */
(PID.TID 0000.0001)                 3.070946554358933E+05,      /* I =365 */
(PID.TID 0000.0001)                 3.093074100109176E+05,      /* I =366 */
(PID.TID 0000.0001)                 3.108038593575396E+05,      /* I =367 */
(PID.TID 0000.0001)     2 @  3.115584474900804E+05,             /* I =368:369 */
(PID.TID 0000.0001)                 3.108038593575396E+05,      /* I =370 */
(PID.TID 0000.0001)                 3.093074100109176E+05,      /* I =371 */
(PID.TID 0000.0001)                 3.070946554358933E+05,      /* I =372 */
(PID.TID 0000.0001)                 3.042048495507529E+05,      /* I =373 */
(PID.TID 0000.0001)                 3.006921489793282E+05,      /* I =374 */
(PID.TID 0000.0001)                 2.966276260863712E+05,      /* I =375 */
(PID.TID 0000.0001)                 2.921023023566398E+05,      /* I =376 */
(PID.TID 0000.0001)                 2.872314003732699E+05,      /* I =377 */
(PID.TID 0000.0001)                 2.821597581064359E+05,      /* I =378 */
(PID.TID 0000.0001)                 2.770677082849345E+05,      /* I =379 */
(PID.TID 0000.0001)                 2.721754665816094E+05,      /* I =380 */
(PID.TID 0000.0001)                 2.677421336598871E+05,      /* I =381 */
(PID.TID 0000.0001)                 2.640534701478141E+05,      /* I =382 */
(PID.TID 0000.0001)                 2.613928019944271E+05,      /* I =383 */
(PID.TID 0000.0001)                 2.599949918261881E+05,      /* I =384 */
(PID.TID 0000.0001)                 1.202082051331828E+05,      /* I =385 */
(PID.TID 0000.0001)                 1.563594089971120E+05,      /* I =386 */
(PID.TID 0000.0001)                 1.835530058121492E+05,      /* I =387 */
(PID.TID 0000.0001)                 2.045883481718707E+05,      /* I =388 */
(PID.TID 0000.0001)                 2.218350349844185E+05,      /* I =389 */
(PID.TID 0000.0001)                 2.364352994647058E+05,      /* I =390 */
(PID.TID 0000.0001)                 2.490022710862746E+05,      /* I =391 */
(PID.TID 0000.0001)                 2.598919724358304E+05,      /* I =392 */
(PID.TID 0000.0001)                 2.693210245495156E+05,      /* I =393 */
(PID.TID 0000.0001)                 2.774243179696503E+05,      /* I =394 */
(PID.TID 0000.0001)                 2.842862532064524E+05,      /* I =395 */
(PID.TID 0000.0001)                 2.899590699694043E+05,      /* I =396 */
(PID.TID 0000.0001)                 2.944742915095688E+05,      /* I =397 */
(PID.TID 0000.0001)                 2.978501920522794E+05,      /* I =398 */
(PID.TID 0000.0001)                 3.000967749619962E+05,      /* I =399 */
(PID.TID 0000.0001)     2 @  3.012190981969055E+05,             /* I =400:401 */
(PID.TID 0000.0001)                 3.000967749619962E+05,      /* I =402 */
(PID.TID 0000.0001)                 2.978501920522794E+05,      /* I =403 */
(PID.TID 0000.0001)                 2.944742915095688E+05,      /* I =404 */
(PID.TID 0000.0001)                 2.899590699694043E+05,      /* I =405 */
(PID.TID 0000.0001)                 2.842862532064524E+05,      /* I =406 */
(PID.TID 0000.0001)                 2.774243179696503E+05,      /* I =407 */
(PID.TID 0000.0001)                 2.693210245495156E+05,      /* I =408 */
(PID.TID 0000.0001)                 2.598919724358304E+05,      /* I =409 */
(PID.TID 0000.0001)                 2.490022710862746E+05,      /* I =410 */
(PID.TID 0000.0001)                 2.364352994647058E+05,      /* I =411 */
(PID.TID 0000.0001)                 2.218350349844185E+05,      /* I =412 */
(PID.TID 0000.0001)                 2.045883481718707E+05,      /* I =413 */
(PID.TID 0000.0001)                 1.835530058121492E+05,      /* I =414 */
(PID.TID 0000.0001)                 1.563594089971120E+05,      /* I =415 */
(PID.TID 0000.0001)                 1.202082051331828E+05,      /* I =416 */
(PID.TID 0000.0001)                 2.694110134598581E+05,      /* I =417 */
(PID.TID 0000.0001)                 2.705231413075805E+05,      /* I =418 */
(PID.TID 0000.0001)                 2.726579649676481E+05,      /* I =419 */
(PID.TID 0000.0001)                 2.756548836326629E+05,      /* I =420 */
(PID.TID 0000.0001)                 2.793107344025355E+05,      /* I =421 */
(PID.TID 0000.0001)                 2.834083988863162E+05,      /* I =422 */
(PID.TID 0000.0001)                 2.877383482793128E+05,      /* I =423 */
(PID.TID 0000.0001)                 2.921111682925773E+05,      /* I =424 */
(PID.TID 0000.0001)                 2.963626409677758E+05,      /* I =425 */
(PID.TID 0000.0001)                 3.003541383476192E+05,      /* I =426 */
(PID.TID 0000.0001)                 3.039707489303444E+05,      /* I =427 */
(PID.TID 0000.0001)                 3.071187272280302E+05,      /* I =428 */
(PID.TID 0000.0001)                 3.097231021673243E+05,      /* I =429 */
(PID.TID 0000.0001)                 3.117257745272702E+05,      /* I =430 */
(PID.TID 0000.0001)                 3.130841559279307E+05,      /* I =431 */
(PID.TID 0000.0001)     2 @  3.137703202065625E+05,             /* I =432:433 */
(PID.TID 0000.0001)                 3.130841559279307E+05,      /* I =434 */
(PID.TID 0000.0001)                 3.117257745272702E+05,      /* I =435 */
(PID.TID 0000.0001)                 3.097231021673243E+05,      /* I =436 */
(PID.TID 0000.0001)                 3.071187272280302E+05,      /* I =437 */
(PID.TID 0000.0001)                 3.039707489303444E+05,      /* I =438 */
(PID.TID 0000.0001)                 3.003541383476192E+05,      /* I =439 */
(PID.TID 0000.0001)                 2.963626409677758E+05,      /* I =440 */
(PID.TID 0000.0001)                 2.921111682925773E+05,      /* I =441 */
(PID.TID 0000.0001)                 2.877383482793128E+05,      /* I =442 */
(PID.TID 0000.0001)                 2.834083988863162E+05,      /* I =443 */
(PID.TID 0000.0001)                 2.793107344025355E+05,      /* I =444 */
(PID.TID 0000.0001)                 2.756548836326629E+05,      /* I =445 */
(PID.TID 0000.0001)                 2.726579649676481E+05,      /* I =446 */
(PID.TID 0000.0001)                 2.705231413075805E+05,      /* I =447 */
(PID.TID 0000.0001)                 2.694110134598581E+05,      /* I =448 */
(PID.TID 0000.0001)                 3.012844832048790E+05,      /* I =449 */
(PID.TID 0000.0001)                 3.017314519159184E+05,      /* I =450 */
(PID.TID 0000.0001)                 3.026061571839506E+05,      /* I =451 */
(PID.TID 0000.0001)                 3.038712499122208E+05,      /* I =452 */
(PID.TID 0000.0001)                 3.054733694195115E+05,      /* I =453 */
(PID.TID 0000.0001)                 3.073460170047538E+05,      /* I =454 */
(PID.TID 0000.0001)                 3.094129252024922E+05,      /* I =455 */
(PID.TID 0000.0001)                 3.115916488673079E+05,      /* I =456 */
(PID.TID 0000.0001)                 3.137971415338805E+05,      /* I =457 */
(PID.TID 0000.0001)                 3.159451387866950E+05,      /* I =458 */
(PID.TID 0000.0001)                 3.179552321069062E+05,      /* I =459 */
(PID.TID 0000.0001)                 3.197535693737994E+05,      /* I =460 */
(PID.TID 0000.0001)                 3.212751560265627E+05,      /* I =461 */
(PID.TID 0000.0001)                 3.224657535572011E+05,      /* I =462 */
(PID.TID 0000.0001)                 3.232833825614068E+05,      /* I =463 */
(PID.TID 0000.0001)     2 @  3.236994750082736E+05,             /* I =464:465 */
(PID.TID 0000.0001)                 3.232833825614068E+05,      /* I =466 */
(PID.TID 0000.0001)                 3.224657535572011E+05,      /* I =467 */
(PID.TID 0000.0001)                 3.212751560265627E+05,      /* I =468 */
(PID.TID 0000.0001)                 3.197535693737994E+05,      /* I =469 */
(PID.TID 0000.0001)                 3.179552321069062E+05,      /* I =470 */
(PID.TID 0000.0001)                 3.159451387866950E+05,      /* I =471 */
(PID.TID 0000.0001)                 3.137971415338805E+05,      /* I =472 */
(PID.TID 0000.0001)                 3.115916488673079E+05,      /* I =473 */
(PID.TID 0000.0001)                 3.094129252024922E+05,      /* I =474 */
(PID.TID 0000.0001)                 3.073460170047538E+05,      /* I =475 */
(PID.TID 0000.0001)                 3.054733694195115E+05,      /* I =476 */
(PID.TID 0000.0001)                 3.038712499122208E+05,      /* I =477 */
(PID.TID 0000.0001)                 3.026061571839506E+05,      /* I =478 */
(PID.TID 0000.0001)                 3.017314519159184E+05,      /* I =479 */
(PID.TID 0000.0001)                 3.012844832048790E+05,      /* I =480 */
(PID.TID 0000.0001)                 2.599949918261881E+05,      /* I =481 */
(PID.TID 0000.0001)                 2.613928019944271E+05,      /* I =482 */
(PID.TID 0000.0001)                 2.640534701478141E+05,      /* I =483 */
(PID.TID 0000.0001)                 2.677421336598871E+05,      /* I =484 */
(PID.TID 0000.0001)                 2.721754665816094E+05,      /* I =485 */
(PID.TID 0000.0001)                 2.770677082849345E+05,      /* I =486 */
(PID.TID 0000.0001)                 2.821597581064359E+05,      /* I =487 */
(PID.TID 0000.0001)                 2.872314003732699E+05,      /* I =488 */
(PID.TID 0000.0001)                 2.921023023566398E+05,      /* I =489 */
(PID.TID 0000.0001)                 2.966276260863712E+05,      /* I =490 */
(PID.TID 0000.0001)                 3.006921489793282E+05,      /* I =491 */
(PID.TID 0000.0001)                 3.042048495507529E+05,      /* I =492 */
(PID.TID 0000.0001)                 3.070946554358933E+05,      /* I =493 */
(PID.TID 0000.0001)                 3.093074100109176E+05,      /* I =494 */
(PID.TID 0000.0001)                 3.108038593575396E+05,      /* I =495 */
(PID.TID 0000.0001)     2 @  3.115584474900804E+05,             /* I =496:497 */
(PID.TID 0000.0001)                 3.108038593575396E+05,      /* I =498 */
(PID.TID 0000.0001)                 3.093074100109176E+05,      /* I =499 */
(PID.TID 0000.0001)                 3.070946554358933E+05,      /* I =500 */
(PID.TID 0000.0001)                 3.042048495507529E+05,      /* I =501 */
(PID.TID 0000.0001)                 3.006921489793282E+05,      /* I =502 */
(PID.TID 0000.0001)                 2.966276260863712E+05,      /* I =503 */
(PID.TID 0000.0001)                 2.921023023566398E+05,      /* I =504 */
(PID.TID 0000.0001)                 2.872314003732699E+05,      /* I =505 */
(PID.TID 0000.0001)                 2.821597581064359E+05,      /* I =506 */
(PID.TID 0000.0001)                 2.770677082849345E+05,      /* I =507 */
(PID.TID 0000.0001)                 2.721754665816094E+05,      /* I =508 */
(PID.TID 0000.0001)                 2.677421336598871E+05,      /* I =509 */
(PID.TID 0000.0001)                 2.640534701478141E+05,      /* I =510 */
(PID.TID 0000.0001)                 2.613928019944271E+05,      /* I =511 */
(PID.TID 0000.0001)                 2.599949918261881E+05,      /* I =512 */
(PID.TID 0000.0001)                 1.202082051331828E+05,      /* I =513 */
(PID.TID 0000.0001)                 1.563594089971120E+05,      /* I =514 */
(PID.TID 0000.0001)                 1.835530058121492E+05,      /* I =515 */
(PID.TID 0000.0001)                 2.045883481718707E+05,      /* I =516 */
(PID.TID 0000.0001)                 2.218350349844185E+05,      /* I =517 */
(PID.TID 0000.0001)                 2.364352994647058E+05,      /* I =518 */
(PID.TID 0000.0001)                 2.490022710862746E+05,      /* I =519 */
(PID.TID 0000.0001)                 2.598919724358304E+05,      /* I =520 */
(PID.TID 0000.0001)                 2.693210245495156E+05,      /* I =521 */
(PID.TID 0000.0001)                 2.774243179696503E+05,      /* I =522 */
(PID.TID 0000.0001)                 2.842862532064524E+05,      /* I =523 */
(PID.TID 0000.0001)                 2.899590699694043E+05,      /* I =524 */
(PID.TID 0000.0001)                 2.944742915095688E+05,      /* I =525 */
(PID.TID 0000.0001)                 2.978501920522794E+05,      /* I =526 */
(PID.TID 0000.0001)                 3.000967749619962E+05,      /* I =527 */
(PID.TID 0000.0001)     2 @  3.012190981969055E+05,             /* I =528:529 */
(PID.TID 0000.0001)                 3.000967749619962E+05,      /* I =530 */
(PID.TID 0000.0001)                 2.978501920522794E+05,      /* I =531 */
(PID.TID 0000.0001)                 2.944742915095688E+05,      /* I =532 */
(PID.TID 0000.0001)                 2.899590699694043E+05,      /* I =533 */
(PID.TID 0000.0001)                 2.842862532064524E+05,      /* I =534 */
(PID.TID 0000.0001)                 2.774243179696503E+05,      /* I =535 */
(PID.TID 0000.0001)                 2.693210245495156E+05,      /* I =536 */
(PID.TID 0000.0001)                 2.598919724358304E+05,      /* I =537 */
(PID.TID 0000.0001)                 2.490022710862746E+05,      /* I =538 */
(PID.TID 0000.0001)                 2.364352994647058E+05,      /* I =539 */
(PID.TID 0000.0001)                 2.218350349844185E+05,      /* I =540 */
(PID.TID 0000.0001)                 2.045883481718707E+05,      /* I =541 */
(PID.TID 0000.0001)                 1.835530058121492E+05,      /* I =542 */
(PID.TID 0000.0001)                 1.563594089971120E+05,      /* I =543 */
(PID.TID 0000.0001)                 1.202082051331828E+05,      /* I =544 */
(PID.TID 0000.0001)                 2.694110134598581E+05,      /* I =545 */
(PID.TID 0000.0001)                 2.705231413075805E+05,      /* I =546 */
(PID.TID 0000.0001)                 2.726579649676481E+05,      /* I =547 */
(PID.TID 0000.0001)                 2.756548836326629E+05,      /* I =548 */
(PID.TID 0000.0001)                 2.793107344025355E+05,      /* I =549 */
(PID.TID 0000.0001)                 2.834083988863162E+05,      /* I =550 */
(PID.TID 0000.0001)                 2.877383482793128E+05,      /* I =551 */
(PID.TID 0000.0001)                 2.921111682925773E+05,      /* I =552 */
(PID.TID 0000.0001)                 2.963626409677758E+05,      /* I =553 */
(PID.TID 0000.0001)                 3.003541383476192E+05,      /* I =554 */
(PID.TID 0000.0001)                 3.039707489303444E+05,      /* I =555 */
(PID.TID 0000.0001)                 3.071187272280302E+05,      /* I =556 */
(PID.TID 0000.0001)                 3.097231021673243E+05,      /* I =557 */
(PID.TID 0000.0001)                 3.117257745272702E+05,      /* I =558 */
(PID.TID 0000.0001)                 3.130841559279307E+05,      /* I =559 */
(PID.TID 0000.0001)     2 @  3.137703202065625E+05,             /* I =560:561 */
(PID.TID 0000.0001)                 3.130841559279307E+05,      /* I =562 */
(PID.TID 0000.0001)                 3.117257745272702E+05,      /* I =563 */
(PID.TID 0000.0001)                 3.097231021673243E+05,      /* I =564 */
(PID.TID 0000.0001)                 3.071187272280302E+05,      /* I =565 */
(PID.TID 0000.0001)                 3.039707489303444E+05,      /* I =566 */
(PID.TID 0000.0001)                 3.003541383476192E+05,      /* I =567 */
(PID.TID 0000.0001)                 2.963626409677758E+05,      /* I =568 */
(PID.TID 0000.0001)                 2.921111682925773E+05,      /* I =569 */
(PID.TID 0000.0001)                 2.877383482793128E+05,      /* I =570 */
(PID.TID 0000.0001)                 2.834083988863162E+05,      /* I =571 */
(PID.TID 0000.0001)                 2.793107344025355E+05,      /* I =572 */
(PID.TID 0000.0001)                 2.756548836326629E+05,      /* I =573 */
(PID.TID 0000.0001)                 2.726579649676481E+05,      /* I =574 */
(PID.TID 0000.0001)                 2.705231413075805E+05,      /* I =575 */
(PID.TID 0000.0001)                 2.694110134598581E+05,      /* I =576 */
(PID.TID 0000.0001)                 3.012844832048790E+05,      /* I =577 */
(PID.TID 0000.0001)                 3.017314519159184E+05,      /* I =578 */
(PID.TID 0000.0001)                 3.026061571839506E+05,      /* I =579 */
(PID.TID 0000.0001)                 3.038712499122208E+05,      /* I =580 */
(PID.TID 0000.0001)                 3.054733694195115E+05,      /* I =581 */
(PID.TID 0000.0001)                 3.073460170047538E+05,      /* I =582 */
(PID.TID 0000.0001)                 3.094129252024922E+05,      /* I =583 */
(PID.TID 0000.0001)                 3.115916488673079E+05,      /* I =584 */
(PID.TID 0000.0001)                 3.137971415338805E+05,      /* I =585 */
(PID.TID 0000.0001)                 3.159451387866950E+05,      /* I =586 */
(PID.TID 0000.0001)                 3.179552321069062E+05,      /* I =587 */
(PID.TID 0000.0001)                 3.197535693737994E+05,      /* I =588 */
(PID.TID 0000.0001)                 3.212751560265627E+05,      /* I =589 */
(PID.TID 0000.0001)                 3.224657535572011E+05,      /* I =590 */
(PID.TID 0000.0001)                 3.232833825614068E+05,      /* I =591 */
(PID.TID 0000.0001)     2 @  3.236994750082736E+05,             /* I =592:593 */
(PID.TID 0000.0001)                 3.232833825614068E+05,      /* I =594 */
(PID.TID 0000.0001)                 3.224657535572011E+05,      /* I =595 */
(PID.TID 0000.0001)                 3.212751560265627E+05,      /* I =596 */
(PID.TID 0000.0001)                 3.197535693737994E+05,      /* I =597 */
(PID.TID 0000.0001)                 3.179552321069062E+05,      /* I =598 */
(PID.TID 0000.0001)                 3.159451387866950E+05,      /* I =599 */
(PID.TID 0000.0001)                 3.137971415338805E+05,      /* I =600 */
(PID.TID 0000.0001)                 3.115916488673079E+05,      /* I =601 */
(PID.TID 0000.0001)                 3.094129252024922E+05,      /* I =602 */
(PID.TID 0000.0001)                 3.073460170047538E+05,      /* I =603 */
(PID.TID 0000.0001)                 3.054733694195115E+05,      /* I =604 */
(PID.TID 0000.0001)                 3.038712499122208E+05,      /* I =605 */
(PID.TID 0000.0001)                 3.026061571839506E+05,      /* I =606 */
(PID.TID 0000.0001)                 3.017314519159184E+05,      /* I =607 */
(PID.TID 0000.0001)                 3.012844832048790E+05,      /* I =608 */
(PID.TID 0000.0001)                 2.599949918261881E+05,      /* I =609 */
(PID.TID 0000.0001)                 2.613928019944271E+05,      /* I =610 */
(PID.TID 0000.0001)                 2.640534701478141E+05,      /* I =611 */
(PID.TID 0000.0001)                 2.677421336598871E+05,      /* I =612 */
(PID.TID 0000.0001)                 2.721754665816094E+05,      /* I =613 */
(PID.TID 0000.0001)                 2.770677082849345E+05,      /* I =614 */
(PID.TID 0000.0001)                 2.821597581064359E+05,      /* I =615 */
(PID.TID 0000.0001)                 2.872314003732699E+05,      /* I =616 */
(PID.TID 0000.0001)                 2.921023023566398E+05,      /* I =617 */
(PID.TID 0000.0001)                 2.966276260863712E+05,      /* I =618 */
(PID.TID 0000.0001)                 3.006921489793282E+05,      /* I =619 */
(PID.TID 0000.0001)                 3.042048495507529E+05,      /* I =620 */
(PID.TID 0000.0001)                 3.070946554358933E+05,      /* I =621 */
(PID.TID 0000.0001)                 3.093074100109176E+05,      /* I =622 */
(PID.TID 0000.0001)                 3.108038593575396E+05,      /* I =623 */
(PID.TID 0000.0001)     2 @  3.115584474900804E+05,             /* I =624:625 */
(PID.TID 0000.0001)                 3.108038593575396E+05,      /* I =626 */
(PID.TID 0000.0001)                 3.093074100109176E+05,      /* I =627 */
(PID.TID 0000.0001)                 3.070946554358933E+05,      /* I =628 */
(PID.TID 0000.0001)                 3.042048495507529E+05,      /* I =629 */
(PID.TID 0000.0001)                 3.006921489793282E+05,      /* I =630 */
(PID.TID 0000.0001)                 2.966276260863712E+05,      /* I =631 */
(PID.TID 0000.0001)                 2.921023023566398E+05,      /* I =632 */
(PID.TID 0000.0001)                 2.872314003732699E+05,      /* I =633 */
(PID.TID 0000.0001)                 2.821597581064359E+05,      /* I =634 */
(PID.TID 0000.0001)                 2.770677082849345E+05,      /* I =635 */
(PID.TID 0000.0001)                 2.721754665816094E+05,      /* I =636 */
(PID.TID 0000.0001)                 2.677421336598871E+05,      /* I =637 */
(PID.TID 0000.0001)                 2.640534701478141E+05,      /* I =638 */
(PID.TID 0000.0001)                 2.613928019944271E+05,      /* I =639 */
(PID.TID 0000.0001)                 2.599949918261881E+05,      /* I =640 */
(PID.TID 0000.0001)                 1.202082051331828E+05,      /* I =641 */
(PID.TID 0000.0001)                 1.563594089971120E+05,      /* I =642 */
(PID.TID 0000.0001)                 1.835530058121492E+05,      /* I =643 */
(PID.TID 0000.0001)                 2.045883481718707E+05,      /* I =644 */
(PID.TID 0000.0001)                 2.218350349844185E+05,      /* I =645 */
(PID.TID 0000.0001)                 2.364352994647058E+05,      /* I =646 */
(PID.TID 0000.0001)                 2.490022710862746E+05,      /* I =647 */
(PID.TID 0000.0001)                 2.598919724358304E+05,      /* I =648 */
(PID.TID 0000.0001)                 2.693210245495156E+05,      /* I =649 */
(PID.TID 0000.0001)                 2.774243179696503E+05,      /* I =650 */
(PID.TID 0000.0001)                 2.842862532064524E+05,      /* I =651 */
(PID.TID 0000.0001)                 2.899590699694043E+05,      /* I =652 */
(PID.TID 0000.0001)                 2.944742915095688E+05,      /* I =653 */
(PID.TID 0000.0001)                 2.978501920522794E+05,      /* I =654 */
(PID.TID 0000.0001)                 3.000967749619962E+05,      /* I =655 */
(PID.TID 0000.0001)     2 @  3.012190981969055E+05,             /* I =656:657 */
(PID.TID 0000.0001)                 3.000967749619962E+05,      /* I =658 */
(PID.TID 0000.0001)                 2.978501920522794E+05,      /* I =659 */
(PID.TID 0000.0001)                 2.944742915095688E+05,      /* I =660 */
(PID.TID 0000.0001)                 2.899590699694043E+05,      /* I =661 */
(PID.TID 0000.0001)                 2.842862532064524E+05,      /* I =662 */
(PID.TID 0000.0001)                 2.774243179696503E+05,      /* I =663 */
(PID.TID 0000.0001)                 2.693210245495156E+05,      /* I =664 */
(PID.TID 0000.0001)                 2.598919724358304E+05,      /* I =665 */
(PID.TID 0000.0001)                 2.490022710862746E+05,      /* I =666 */
(PID.TID 0000.0001)                 2.364352994647058E+05,      /* I =667 */
(PID.TID 0000.0001)                 2.218350349844185E+05,      /* I =668 */
(PID.TID 0000.0001)                 2.045883481718707E+05,      /* I =669 */
(PID.TID 0000.0001)                 1.835530058121492E+05,      /* I =670 */
(PID.TID 0000.0001)                 1.563594089971120E+05,      /* I =671 */
(PID.TID 0000.0001)                 1.202082051331828E+05,      /* I =672 */
(PID.TID 0000.0001)                 2.694110134598581E+05,      /* I =673 */
(PID.TID 0000.0001)                 2.705231413075805E+05,      /* I =674 */
(PID.TID 0000.0001)                 2.726579649676481E+05,      /* I =675 */
(PID.TID 0000.0001)                 2.756548836326629E+05,      /* I =676 */
(PID.TID 0000.0001)                 2.793107344025355E+05,      /* I =677 */
(PID.TID 0000.0001)                 2.834083988863162E+05,      /* I =678 */
(PID.TID 0000.0001)                 2.877383482793128E+05,      /* I =679 */
(PID.TID 0000.0001)                 2.921111682925773E+05,      /* I =680 */
(PID.TID 0000.0001)                 2.963626409677758E+05,      /* I =681 */
(PID.TID 0000.0001)                 3.003541383476192E+05,      /* I =682 */
(PID.TID 0000.0001)                 3.039707489303444E+05,      /* I =683 */
(PID.TID 0000.0001)                 3.071187272280302E+05,      /* I =684 */
(PID.TID 0000.0001)                 3.097231021673243E+05,      /* I =685 */
(PID.TID 0000.0001)                 3.117257745272702E+05,      /* I =686 */
(PID.TID 0000.0001)                 3.130841559279307E+05,      /* I =687 */
(PID.TID 0000.0001)     2 @  3.137703202065625E+05,             /* I =688:689 */
(PID.TID 0000.0001)                 3.130841559279307E+05,      /* I =690 */
(PID.TID 0000.0001)                 3.117257745272702E+05,      /* I =691 */
(PID.TID 0000.0001)                 3.097231021673243E+05,      /* I =692 */
(PID.TID 0000.0001)                 3.071187272280302E+05,      /* I =693 */
(PID.TID 0000.0001)                 3.039707489303444E+05,      /* I =694 */
(PID.TID 0000.0001)                 3.003541383476192E+05,      /* I =695 */
(PID.TID 0000.0001)                 2.963626409677758E+05,      /* I =696 */
(PID.TID 0000.0001)                 2.921111682925773E+05,      /* I =697 */
(PID.TID 0000.0001)                 2.877383482793128E+05,      /* I =698 */
(PID.TID 0000.0001)                 2.834083988863162E+05,      /* I =699 */
(PID.TID 0000.0001)                 2.793107344025355E+05,      /* I =700 */
(PID.TID 0000.0001)                 2.756548836326629E+05,      /* I =701 */
(PID.TID 0000.0001)                 2.726579649676481E+05,      /* I =702 */
(PID.TID 0000.0001)                 2.705231413075805E+05,      /* I =703 */
(PID.TID 0000.0001)                 2.694110134598581E+05,      /* I =704 */
(PID.TID 0000.0001)                 3.012844832048790E+05,      /* I =705 */
(PID.TID 0000.0001)                 3.017314519159184E+05,      /* I =706 */
(PID.TID 0000.0001)                 3.026061571839506E+05,      /* I =707 */
(PID.TID 0000.0001)                 3.038712499122208E+05,      /* I =708 */
(PID.TID 0000.0001)                 3.054733694195115E+05,      /* I =709 */
(PID.TID 0000.0001)                 3.073460170047538E+05,      /* I =710 */
(PID.TID 0000.0001)                 3.094129252024922E+05,      /* I =711 */
(PID.TID 0000.0001)                 3.115916488673079E+05,      /* I =712 */
(PID.TID 0000.0001)                 3.137971415338805E+05,      /* I =713 */
(PID.TID 0000.0001)                 3.159451387866950E+05,      /* I =714 */
(PID.TID 0000.0001)                 3.179552321069062E+05,      /* I =715 */
(PID.TID 0000.0001)                 3.197535693737994E+05,      /* I =716 */
(PID.TID 0000.0001)                 3.212751560265627E+05,      /* I =717 */
(PID.TID 0000.0001)                 3.224657535572011E+05,      /* I =718 */
(PID.TID 0000.0001)                 3.232833825614068E+05,      /* I =719 */
(PID.TID 0000.0001)     2 @  3.236994750082736E+05,             /* I =720:721 */
(PID.TID 0000.0001)                 3.232833825614068E+05,      /* I =722 */
(PID.TID 0000.0001)                 3.224657535572011E+05,      /* I =723 */
(PID.TID 0000.0001)                 3.212751560265627E+05,      /* I =724 */
(PID.TID 0000.0001)                 3.197535693737994E+05,      /* I =725 */
(PID.TID 0000.0001)                 3.179552321069062E+05,      /* I =726 */
(PID.TID 0000.0001)                 3.159451387866950E+05,      /* I =727 */
(PID.TID 0000.0001)                 3.137971415338805E+05,      /* I =728 */
(PID.TID 0000.0001)                 3.115916488673079E+05,      /* I =729 */
(PID.TID 0000.0001)                 3.094129252024922E+05,      /* I =730 */
(PID.TID 0000.0001)                 3.073460170047538E+05,      /* I =731 */
(PID.TID 0000.0001)                 3.054733694195115E+05,      /* I =732 */
(PID.TID 0000.0001)                 3.038712499122208E+05,      /* I =733 */
(PID.TID 0000.0001)                 3.026061571839506E+05,      /* I =734 */
(PID.TID 0000.0001)                 3.017314519159184E+05,      /* I =735 */
(PID.TID 0000.0001)                 3.012844832048790E+05,      /* I =736 */
(PID.TID 0000.0001)                 2.599949918261881E+05,      /* I =737 */
(PID.TID 0000.0001)                 2.613928019944271E+05,      /* I =738 */
(PID.TID 0000.0001)                 2.640534701478141E+05,      /* I =739 */
(PID.TID 0000.0001)                 2.677421336598871E+05,      /* I =740 */
(PID.TID 0000.0001)                 2.721754665816094E+05,      /* I =741 */
(PID.TID 0000.0001)                 2.770677082849345E+05,      /* I =742 */
(PID.TID 0000.0001)                 2.821597581064359E+05,      /* I =743 */
(PID.TID 0000.0001)                 2.872314003732699E+05,      /* I =744 */
(PID.TID 0000.0001)                 2.921023023566398E+05,      /* I =745 */
(PID.TID 0000.0001)                 2.966276260863712E+05,      /* I =746 */
(PID.TID 0000.0001)                 3.006921489793282E+05,      /* I =747 */
(PID.TID 0000.0001)                 3.042048495507529E+05,      /* I =748 */
(PID.TID 0000.0001)                 3.070946554358933E+05,      /* I =749 */
(PID.TID 0000.0001)                 3.093074100109176E+05,      /* I =750 */
(PID.TID 0000.0001)                 3.108038593575396E+05,      /* I =751 */
(PID.TID 0000.0001)     2 @  3.115584474900804E+05,             /* I =752:753 */
(PID.TID 0000.0001)                 3.108038593575396E+05,      /* I =754 */
(PID.TID 0000.0001)                 3.093074100109176E+05,      /* I =755 */
(PID.TID 0000.0001)                 3.070946554358933E+05,      /* I =756 */
(PID.TID 0000.0001)                 3.042048495507529E+05,      /* I =757 */
(PID.TID 0000.0001)                 3.006921489793282E+05,      /* I =758 */
(PID.TID 0000.0001)                 2.966276260863712E+05,      /* I =759 */
(PID.TID 0000.0001)                 2.921023023566398E+05,      /* I =760 */
(PID.TID 0000.0001)                 2.872314003732699E+05,      /* I =761 */
(PID.TID 0000.0001)                 2.821597581064359E+05,      /* I =762 */
(PID.TID 0000.0001)                 2.770677082849345E+05,      /* I =763 */
(PID.TID 0000.0001)                 2.721754665816094E+05,      /* I =764 */
(PID.TID 0000.0001)                 2.677421336598871E+05,      /* I =765 */
(PID.TID 0000.0001)                 2.640534701478141E+05,      /* I =766 */
(PID.TID 0000.0001)                 2.613928019944271E+05,      /* I =767 */
(PID.TID 0000.0001)                 2.599949918261881E+05       /* I =768 */
(PID.TID 0000.0001)     ;
(PID.TID 0000.0001) dxF =  /* dxF(1,:,1,:) ( units: m ) */
(PID.TID 0000.0001)                 1.202082051331828E+05,      /* J =  1 */
(PID.TID 0000.0001)                 1.572908084538706E+05,      /* J =  2 */
(PID.TID 0000.0001)                 1.840412227747703E+05,      /* J =  3 */
(PID.TID 0000.0001)                 2.048868197919576E+05,      /* J =  4 */
(PID.TID 0000.0001)                 2.220405216043041E+05,      /* J =  5 */
(PID.TID 0000.0001)                 2.365892017348392E+05,      /* J =  6 */
(PID.TID 0000.0001)                 2.491250781852558E+05,      /* J =  7 */
(PID.TID 0000.0001)                 2.599949918261881E+05       /* J =  8 */
(PID.TID 0000.0001)     ;
(PID.TID 0000.0001) dyF =  /* dyF(:,1,:,1) ( units: m ) */
(PID.TID 0000.0001)                 1.202082051331828E+05,      /* I =  1 */
(PID.TID 0000.0001)                 1.572908084538706E+05,      /* I =  2 */
(PID.TID 0000.0001)                 1.840412227747703E+05,      /* I =  3 */
(PID.TID 0000.0001)                 2.048868197919576E+05,      /* I =  4 */
(PID.TID 0000.0001)                 2.220405216043041E+05,      /* I =  5 */
(PID.TID 0000.0001)                 2.365892017348392E+05,      /* I =  6 */
(PID.TID 0000.0001)                 2.491250781852558E+05,      /* I =  7 */
(PID.TID 0000.0001)                 2.599949918261881E+05,      /* I =  8 */
(PID.TID 0000.0001)                 2.694110134598581E+05,      /* I =  9 */
(PID.TID 0000.0001)                 2.775055554645015E+05,      /* I = 10 */
(PID.TID 0000.0001)                 2.843615645344775E+05,      /* I = 11 */
(PID.TID 0000.0001)                 2.900303768613599E+05,      /* I = 12 */
(PID.TID 0000.0001)                 2.945429307892709E+05,      /* I = 13 */
(PID.TID 0000.0001)                 2.979171143158405E+05,      /* I = 14 */
(PID.TID 0000.0001)                 3.001626787528886E+05,      /* I = 15 */
(PID.TID 0000.0001)     2 @  3.012844832048790E+05,             /* I = 16: 17 */
(PID.TID 0000.0001)                 3.001626787528886E+05,      /* I = 18 */
(PID.TID 0000.0001)                 2.979171143158405E+05,      /* I = 19 */
(PID.TID 0000.0001)                 2.945429307892709E+05,      /* I = 20 */
(PID.TID 0000.0001)                 2.900303768613599E+05,      /* I = 21 */
(PID.TID 0000.0001)                 2.843615645344775E+05,      /* I = 22 */
(PID.TID 0000.0001)                 2.775055554645015E+05,      /* I = 23 */
(PID.TID 0000.0001)                 2.694110134598581E+05,      /* I = 24 */
(PID.TID 0000.0001)                 2.599949918261881E+05,      /* I = 25 */
(PID.TID 0000.0001)                 2.491250781852558E+05,      /* I = 26 */
(PID.TID 0000.0001)                 2.365892017348392E+05,      /* I = 27 */
(PID.TID 0000.0001)                 2.220405216043041E+05,      /* I = 28 */
(PID.TID 0000.0001)                 2.048868197919576E+05,      /* I = 29 */
(PID.TID 0000.0001)                 1.840412227747703E+05,      /* I = 30 */
(PID.TID 0000.0001)                 1.572908084538706E+05,      /* I = 31 */
(PID.TID 0000.0001)                 1.202082051331828E+05,      /* I = 32 */
(PID.TID 0000.0001)                 2.693210245495156E+05,      /* I = 33 */
(PID.TID 0000.0001)                 2.704391598996622E+05,      /* I = 34 */
(PID.TID 0000.0001)                 2.725847234797694E+05,      /* I = 35 */
(PID.TID 0000.0001)                 2.755951392607118E+05,      /* I = 36 */
(PID.TID 0000.0001)                 2.792653032262129E+05,      /* I = 37 */
(PID.TID 0000.0001)                 2.833766693795861E+05,      /* I = 38 */
(PID.TID 0000.0001)                 2.877189074801222E+05,      /* I = 39 */
(PID.TID 0000.0001)                 2.921023023566398E+05,      /* I = 40 */
(PID.TID 0000.0001)                 2.963626409677758E+05,      /* I = 41 */
(PID.TID 0000.0001)                 3.003614422517500E+05,      /* I = 42 */
(PID.TID 0000.0001)                 3.039839792389949E+05,      /* I = 43 */
(PID.TID 0000.0001)                 3.071366753786757E+05,      /* I = 44 */
(PID.TID 0000.0001)                 3.097446928597904E+05,      /* I = 45 */
(PID.TID 0000.0001)                 3.117500277099095E+05,      /* I = 46 */
(PID.TID 0000.0001)                 3.131101540263444E+05,      /* I = 47 */
(PID.TID 0000.0001)     2 @  3.137971415338805E+05,             /* I = 48: 49 */
(PID.TID 0000.0001)                 3.131101540263444E+05,      /* I = 50 */
(PID.TID 0000.0001)                 3.117500277099095E+05,      /* I = 51 */
(PID.TID 0000.0001)                 3.097446928597904E+05,      /* I = 52 */
(PID.TID 0000.0001)                 3.071366753786757E+05,      /* I = 53 */
(PID.TID 0000.0001)                 3.039839792389949E+05,      /* I = 54 */
(PID.TID 0000.0001)                 3.003614422517500E+05,      /* I = 55 */
(PID.TID 0000.0001)                 2.963626409677758E+05,      /* I = 56 */
(PID.TID 0000.0001)                 2.921023023566398E+05,      /* I = 57 */
(PID.TID 0000.0001)                 2.877189074801222E+05,      /* I = 58 */
(PID.TID 0000.0001)                 2.833766693795861E+05,      /* I = 59 */
(PID.TID 0000.0001)                 2.792653032262129E+05,      /* I = 60 */
(PID.TID 0000.0001)                 2.755951392607118E+05,      /* I = 61 */
(PID.TID 0000.0001)                 2.725847234797694E+05,      /* I = 62 */
(PID.TID 0000.0001)                 2.704391598996622E+05,      /* I = 63 */
(PID.TID 0000.0001)                 2.693210245495156E+05,      /* I = 64 */
(PID.TID 0000.0001)                 3.012190981969055E+05,      /* I = 65 */
(PID.TID 0000.0001)                 3.016675528553907E+05,      /* I = 66 */
(PID.TID 0000.0001)                 3.025451404065074E+05,      /* I = 67 */
(PID.TID 0000.0001)                 3.038143430929827E+05,      /* I = 68 */
(PID.TID 0000.0001)                 3.054215712079756E+05,      /* I = 69 */
(PID.TID 0000.0001)                 3.073000594641912E+05,      /* I = 70 */
(PID.TID 0000.0001)                 3.093732589453273E+05,      /* I = 71 */
(PID.TID 0000.0001)                 3.115584474900804E+05,      /* I = 72 */
(PID.TID 0000.0001)                 3.137703202065625E+05,      /* I = 73 */
(PID.TID 0000.0001)                 3.159243816151009E+05,      /* I = 74 */
(PID.TID 0000.0001)                 3.179400237154126E+05,      /* I = 75 */
(PID.TID 0000.0001)                 3.197432274745630E+05,      /* I = 76 */
(PID.TID 0000.0001)                 3.212688630823077E+05,      /* I = 77 */
(PID.TID 0000.0001)                 3.224625867238719E+05,      /* I = 78 */
(PID.TID 0000.0001)                 3.232823418193404E+05,      /* I = 79 */
(PID.TID 0000.0001)     2 @  3.236994750082736E+05,             /* I = 80: 81 */
(PID.TID 0000.0001)                 3.232823418193404E+05,      /* I = 82 */
(PID.TID 0000.0001)                 3.224625867238719E+05,      /* I = 83 */
(PID.TID 0000.0001)                 3.212688630823077E+05,      /* I = 84 */
(PID.TID 0000.0001)                 3.197432274745630E+05,      /* I = 85 */
(PID.TID 0000.0001)                 3.179400237154126E+05,      /* I = 86 */
(PID.TID 0000.0001)                 3.159243816151009E+05,      /* I = 87 */
(PID.TID 0000.0001)                 3.137703202065625E+05,      /* I = 88 */
(PID.TID 0000.0001)                 3.115584474900804E+05,      /* I = 89 */
(PID.TID 0000.0001)                 3.093732589453273E+05,      /* I = 90 */
(PID.TID 0000.0001)                 3.073000594641912E+05,      /* I = 91 */
(PID.TID 0000.0001)                 3.054215712079756E+05,      /* I = 92 */
(PID.TID 0000.0001)                 3.038143430929827E+05,      /* I = 93 */
(PID.TID 0000.0001)                 3.025451404065074E+05,      /* I = 94 */
(PID.TID 0000.0001)                 3.016675528553907E+05,      /* I = 95 */
(PID.TID 0000.0001)                 3.012190981969055E+05,      /* I = 96 */
(PID.TID 0000.0001)                 2.598919724358304E+05,      /* I = 97 */
(PID.TID 0000.0001)                 2.612987785497329E+05,      /* I = 98 */
(PID.TID 0000.0001)                 2.639749816177823E+05,      /* I = 99 */
(PID.TID 0000.0001)                 2.676821762100863E+05,      /* I =100 */
(PID.TID 0000.0001)                 2.721339566565751E+05,      /* I =101 */
(PID.TID 0000.0001)                 2.770426972267964E+05,      /* I =102 */
(PID.TID 0000.0001)                 2.821485797298442E+05,      /* I =103 */
(PID.TID 0000.0001)                 2.872314003732699E+05,      /* I =104 */
(PID.TID 0000.0001)                 2.921111682925773E+05,      /* I =105 */
(PID.TID 0000.0001)                 2.966434639461947E+05,      /* I =106 */
(PID.TID 0000.0001)                 3.007134384377001E+05,      /* I =107 */
(PID.TID 0000.0001)                 3.042303595100670E+05,      /* I =108 */
(PID.TID 0000.0001)                 3.071233596908996E+05,      /* I =109 */
(PID.TID 0000.0001)                 3.093384179901085E+05,      /* I =110 */
(PID.TID 0000.0001)                 3.108363645263049E+05,      /* I =111 */
(PID.TID 0000.0001)     2 @  3.115916488673079E+05,             /* I =112:113 */
(PID.TID 0000.0001)                 3.108363645263049E+05,      /* I =114 */
(PID.TID 0000.0001)                 3.093384179901085E+05,      /* I =115 */
(PID.TID 0000.0001)                 3.071233596908996E+05,      /* I =116 */
(PID.TID 0000.0001)                 3.042303595100670E+05,      /* I =117 */
(PID.TID 0000.0001)                 3.007134384377001E+05,      /* I =118 */
(PID.TID 0000.0001)                 2.966434639461947E+05,      /* I =119 */
(PID.TID 0000.0001)                 2.921111682925773E+05,      /* I =120 */
(PID.TID 0000.0001)                 2.872314003732699E+05,      /* I =121 */
(PID.TID 0000.0001)                 2.821485797298442E+05,      /* I =122 */
(PID.TID 0000.0001)                 2.770426972267964E+05,      /* I =123 */
(PID.TID 0000.0001)                 2.721339566565751E+05,      /* I =124 */
(PID.TID 0000.0001)                 2.676821762100863E+05,      /* I =125 */
(PID.TID 0000.0001)                 2.639749816177823E+05,      /* I =126 */
(PID.TID 0000.0001)                 2.612987785497329E+05,      /* I =127 */
(PID.TID 0000.0001)                 2.598919724358304E+05,      /* I =128 */
(PID.TID 0000.0001)                 1.202082051331828E+05,      /* I =129 */
(PID.TID 0000.0001)                 1.572908084538706E+05,      /* I =130 */
(PID.TID 0000.0001)                 1.840412227747703E+05,      /* I =131 */
(PID.TID 0000.0001)                 2.048868197919576E+05,      /* I =132 */
(PID.TID 0000.0001)                 2.220405216043041E+05,      /* I =133 */
(PID.TID 0000.0001)                 2.365892017348392E+05,      /* I =134 */
(PID.TID 0000.0001)                 2.491250781852558E+05,      /* I =135 */
(PID.TID 0000.0001)                 2.599949918261881E+05,      /* I =136 */
(PID.TID 0000.0001)                 2.694110134598581E+05,      /* I =137 */
(PID.TID 0000.0001)                 2.775055554645015E+05,      /* I =138 */
(PID.TID 0000.0001)                 2.843615645344775E+05,      /* I =139 */
(PID.TID 0000.0001)                 2.900303768613599E+05,      /* I =140 */
(PID.TID 0000.0001)                 2.945429307892709E+05,      /* I =141 */
(PID.TID 0000.0001)                 2.979171143158405E+05,      /* I =142 */
(PID.TID 0000.0001)                 3.001626787528886E+05,      /* I =143 */
(PID.TID 0000.0001)     2 @  3.012844832048790E+05,             /* I =144:145 */
(PID.TID 0000.0001)                 3.001626787528886E+05,      /* I =146 */
(PID.TID 0000.0001)                 2.979171143158405E+05,      /* I =147 */
(PID.TID 0000.0001)                 2.945429307892709E+05,      /* I =148 */
(PID.TID 0000.0001)                 2.900303768613599E+05,      /* I =149 */
(PID.TID 0000.0001)                 2.843615645344775E+05,      /* I =150 */
(PID.TID 0000.0001)                 2.775055554645015E+05,      /* I =151 */
(PID.TID 0000.0001)                 2.694110134598581E+05,      /* I =152 */
(PID.TID 0000.0001)                 2.599949918261881E+05,      /* I =153 */
(PID.TID 0000.0001)                 2.491250781852558E+05,      /* I =154 */
(PID.TID 0000.0001)                 2.365892017348392E+05,      /* I =155 */
(PID.TID 0000.0001)                 2.220405216043041E+05,      /* I =156 */
(PID.TID 0000.0001)                 2.048868197919576E+05,      /* I =157 */
(PID.TID 0000.0001)                 1.840412227747703E+05,      /* I =158 */
(PID.TID 0000.0001)                 1.572908084538706E+05,      /* I =159 */
(PID.TID 0000.0001)                 1.202082051331828E+05,      /* I =160 */
(PID.TID 0000.0001)                 2.693210245495156E+05,      /* I =161 */
(PID.TID 0000.0001)                 2.704391598996622E+05,      /* I =162 */
(PID.TID 0000.0001)                 2.725847234797694E+05,      /* I =163 */
(PID.TID 0000.0001)                 2.755951392607118E+05,      /* I =164 */
(PID.TID 0000.0001)                 2.792653032262129E+05,      /* I =165 */
(PID.TID 0000.0001)                 2.833766693795861E+05,      /* I =166 */
(PID.TID 0000.0001)                 2.877189074801222E+05,      /* I =167 */
(PID.TID 0000.0001)                 2.921023023566398E+05,      /* I =168 */
(PID.TID 0000.0001)                 2.963626409677758E+05,      /* I =169 */
(PID.TID 0000.0001)                 3.003614422517500E+05,      /* I =170 */
(PID.TID 0000.0001)                 3.039839792389949E+05,      /* I =171 */
(PID.TID 0000.0001)                 3.071366753786757E+05,      /* I =172 */
(PID.TID 0000.0001)                 3.097446928597904E+05,      /* I =173 */
(PID.TID 0000.0001)                 3.117500277099095E+05,      /* I =174 */
(PID.TID 0000.0001)                 3.131101540263444E+05,      /* I =175 */
(PID.TID 0000.0001)     2 @  3.137971415338805E+05,             /* I =176:177 */
(PID.TID 0000.0001)                 3.131101540263444E+05,      /* I =178 */
(PID.TID 0000.0001)                 3.117500277099095E+05,      /* I =179 */
(PID.TID 0000.0001)                 3.097446928597904E+05,      /* I =180 */
(PID.TID 0000.0001)                 3.071366753786757E+05,      /* I =181 */
(PID.TID 0000.0001)                 3.039839792389949E+05,      /* I =182 */
(PID.TID 0000.0001)                 3.003614422517500E+05,      /* I =183 */
(PID.TID 0000.0001)                 2.963626409677758E+05,      /* I =184 */
(PID.TID 0000.0001)                 2.921023023566398E+05,      /* I =185 */
(PID.TID 0000.0001)                 2.877189074801222E+05,      /* I =186 */
(PID.TID 0000.0001)                 2.833766693795861E+05,      /* I =187 */
(PID.TID 0000.0001)                 2.792653032262129E+05,      /* I =188 */
(PID.TID 0000.0001)                 2.755951392607118E+05,      /* I =189 */
(PID.TID 0000.0001)                 2.725847234797694E+05,      /* I =190 */
(PID.TID 0000.0001)                 2.704391598996622E+05,      /* I =191 */
(PID.TID 0000.0001)                 2.693210245495156E+05,      /* I =192 */
(PID.TID 0000.0001)                 3.012190981969055E+05,      /* I =193 */
(PID.TID 0000.0001)                 3.016675528553907E+05,      /* I =194 */
(PID.TID 0000.0001)                 3.025451404065074E+05,      /* I =195 */
(PID.TID 0000.0001)                 3.038143430929827E+05,      /* I =196 */
(PID.TID 0000.0001)                 3.054215712079756E+05,      /* I =197 */
(PID.TID 0000.0001)                 3.073000594641912E+05,      /* I =198 */
(PID.TID 0000.0001)                 3.093732589453273E+05,      /* I =199 */
(PID.TID 0000.0001)                 3.115584474900804E+05,      /* I =200 */
(PID.TID 0000.0001)                 3.137703202065625E+05,      /* I =201 */
(PID.TID 0000.0001)                 3.159243816151009E+05,      /* I =202 */
(PID.TID 0000.0001)                 3.179400237154126E+05,      /* I =203 */
(PID.TID 0000.0001)                 3.197432274745630E+05,      /* I =204 */
(PID.TID 0000.0001)                 3.212688630823077E+05,      /* I =205 */
(PID.TID 0000.0001)                 3.224625867238719E+05,      /* I =206 */
(PID.TID 0000.0001)                 3.232823418193404E+05,      /* I =207 */
(PID.TID 0000.0001)     2 @  3.236994750082736E+05,             /* I =208:209 */
(PID.TID 0000.0001)                 3.232823418193404E+05,      /* I =210 */
(PID.TID 0000.0001)                 3.224625867238719E+05,      /* I =211 */
(PID.TID 0000.0001)                 3.212688630823077E+05,      /* I =212 */
(PID.TID 0000.0001)                 3.197432274745630E+05,      /* I =213 */
(PID.TID 0000.0001)                 3.179400237154126E+05,      /* I =214 */
(PID.TID 0000.0001)                 3.159243816151009E+05,      /* I =215 */
(PID.TID 0000.0001)                 3.137703202065625E+05,      /* I =216 */
(PID.TID 0000.0001)                 3.115584474900804E+05,      /* I =217 */
(PID.TID 0000.0001)                 3.093732589453273E+05,      /* I =218 */
(PID.TID 0000.0001)                 3.073000594641912E+05,      /* I =219 */
(PID.TID 0000.0001)                 3.054215712079756E+05,      /* I =220 */
(PID.TID 0000.0001)                 3.038143430929827E+05,      /* I =221 */
(PID.TID 0000.0001)                 3.025451404065074E+05,      /* I =222 */
(PID.TID 0000.0001)                 3.016675528553907E+05,      /* I =223 */
(PID.TID 0000.0001)                 3.012190981969055E+05,      /* I =224 */
(PID.TID 0000.0001)                 2.598919724358304E+05,      /* I =225 */
(PID.TID 0000.0001)                 2.612987785497329E+05,      /* I =226 */
(PID.TID 0000.0001)                 2.639749816177823E+05,      /* I =227 */
(PID.TID 0000.0001)                 2.676821762100863E+05,      /* I =228 */
(PID.TID 0000.0001)                 2.721339566565751E+05,      /* I =229 */
(PID.TID 0000.0001)                 2.770426972267964E+05,      /* I =230 */
(PID.TID 0000.0001)                 2.821485797298442E+05,      /* I =231 */
(PID.TID 0000.0001)                 2.872314003732699E+05,      /* I =232 */
(PID.TID 0000.0001)                 2.921111682925773E+05,      /* I =233 */
(PID.TID 0000.0001)                 2.966434639461947E+05,      /* I =234 */
(PID.TID 0000.0001)                 3.007134384377001E+05,      /* I =235 */
(PID.TID 0000.0001)                 3.042303595100670E+05,      /* I =236 */
(PID.TID 0000.0001)                 3.071233596908996E+05,      /* I =237 */
(PID.TID 0000.0001)                 3.093384179901085E+05,      /* I =238 */
(PID.TID 0000.0001)                 3.108363645263049E+05,      /* I =239 */
(PID.TID 0000.0001)     2 @  3.115916488673079E+05,             /* I =240:241 */
(PID.TID 0000.0001)                 3.108363645263049E+05,      /* I =242 */
(PID.TID 0000.0001)                 3.093384179901085E+05,      /* I =243 */
(PID.TID 0000.0001)                 3.071233596908996E+05,      /* I =244 */
(PID.TID 0000.0001)                 3.042303595100670E+05,      /* I =245 */
(PID.TID 0000.0001)                 3.007134384377001E+05,      /* I =246 */
(PID.TID 0000.0001)                 2.966434639461947E+05,      /* I =247 */
(PID.TID 0000.0001)                 2.921111682925773E+05,      /* I =248 */
(PID.TID 0000.0001)                 2.872314003732699E+05,      /* I =249 */
(PID.TID 0000.0001)                 2.821485797298442E+05,      /* I =250 */
(PID.TID 0000.0001)                 2.770426972267964E+05,      /* I =251 */
(PID.TID 0000.0001)                 2.721339566565751E+05,      /* I =252 */
(PID.TID 0000.0001)                 2.676821762100863E+05,      /* I =253 */
(PID.TID 0000.0001)                 2.639749816177823E+05,      /* I =254 */
(PID.TID 0000.0001)                 2.612987785497329E+05,      /* I =255 */
(PID.TID 0000.0001)                 2.598919724358304E+05,      /* I =256 */
(PID.TID 0000.0001)                 1.202082051331828E+05,      /* I =257 */
(PID.TID 0000.0001)                 1.572908084538706E+05,      /* I =258 */
(PID.TID 0000.0001)                 1.840412227747703E+05,      /* I =259 */
(PID.TID 0000.0001)                 2.048868197919576E+05,      /* I =260 */
(PID.TID 0000.0001)                 2.220405216043041E+05,      /* I =261 */
(PID.TID 0000.0001)                 2.365892017348392E+05,      /* I =262 */
(PID.TID 0000.0001)                 2.491250781852558E+05,      /* I =263 */
(PID.TID 0000.0001)                 2.599949918261881E+05,      /* I =264 */
(PID.TID 0000.0001)                 2.694110134598581E+05,      /* I =265 */
(PID.TID 0000.0001)                 2.775055554645015E+05,      /* I =266 */
(PID.TID 0000.0001)                 2.843615645344775E+05,      /* I =267 */
(PID.TID 0000.0001)                 2.900303768613599E+05,      /* I =268 */
(PID.TID 0000.0001)                 2.945429307892709E+05,      /* I =269 */
(PID.TID 0000.0001)                 2.979171143158405E+05,      /* I =270 */
(PID.TID 0000.0001)                 3.001626787528886E+05,      /* I =271 */
(PID.TID 0000.0001)     2 @  3.012844832048790E+05,             /* I =272:273 */
(PID.TID 0000.0001)                 3.001626787528886E+05,      /* I =274 */
(PID.TID 0000.0001)                 2.979171143158405E+05,      /* I =275 */
(PID.TID 0000.0001)                 2.945429307892709E+05,      /* I =276 */
(PID.TID 0000.0001)                 2.900303768613599E+05,      /* I =277 */
(PID.TID 0000.0001)                 2.843615645344775E+05,      /* I =278 */
(PID.TID 0000.0001)                 2.775055554645015E+05,      /* I =279 */
(PID.TID 0000.0001)                 2.694110134598581E+05,      /* I =280 */
(PID.TID 0000.0001)                 2.599949918261881E+05,      /* I =281 */
(PID.TID 0000.0001)                 2.491250781852558E+05,      /* I =282 */
(PID.TID 0000.0001)                 2.365892017348392E+05,      /* I =283 */
(PID.TID 0000.0001)                 2.220405216043041E+05,      /* I =284 */
(PID.TID 0000.0001)                 2.048868197919576E+05,      /* I =285 */
(PID.TID 0000.0001)                 1.840412227747703E+05,      /* I =286 */
(PID.TID 0000.0001)                 1.572908084538706E+05,      /* I =287 */
(PID.TID 0000.0001)                 1.202082051331828E+05,      /* I =288 */
(PID.TID 0000.0001)                 2.693210245495156E+05,      /* I =289 */
(PID.TID 0000.0001)                 2.704391598996622E+05,      /* I =290 */
(PID.TID 0000.0001)                 2.725847234797694E+05,      /* I =291 */
(PID.TID 0000.0001)                 2.755951392607118E+05,      /* I =292 */
(PID.TID 0000.0001)                 2.792653032262129E+05,      /* I =293 */
(PID.TID 0000.0001)                 2.833766693795861E+05,      /* I =294 */
(PID.TID 0000.0001)                 2.877189074801222E+05,      /* I =295 */
(PID.TID 0000.0001)                 2.921023023566398E+05,      /* I =296 */
(PID.TID 0000.0001)                 2.963626409677758E+05,      /* I =297 */
(PID.TID 0000.0001)                 3.003614422517500E+05,      /* I =298 */
(PID.TID 0000.0001)                 3.039839792389949E+05,      /* I =299 */
(PID.TID 0000.0001)                 3.071366753786757E+05,      /* I =300 */
(PID.TID 0000.0001)                 3.097446928597904E+05,      /* I =301 */
(PID.TID 0000.0001)                 3.117500277099095E+05,      /* I =302 */
(PID.TID 0000.0001)                 3.131101540263444E+05,      /* I =303 */
(PID.TID 0000.0001)     2 @  3.137971415338805E+05,             /* I =304:305 */
(PID.TID 0000.0001)                 3.131101540263444E+05,      /* I =306 */
(PID.TID 0000.0001)                 3.117500277099095E+05,      /* I =307 */
(PID.TID 0000.0001)                 3.097446928597904E+05,      /* I =308 */
(PID.TID 0000.0001)                 3.071366753786757E+05,      /* I =309 */
(PID.TID 0000.0001)                 3.039839792389949E+05,      /* I =310 */
(PID.TID 0000.0001)                 3.003614422517500E+05,      /* I =311 */
(PID.TID 0000.0001)                 2.963626409677758E+05,      /* I =312 */
(PID.TID 0000.0001)                 2.921023023566398E+05,      /* I =313 */
(PID.TID 0000.0001)                 2.877189074801222E+05,      /* I =314 */
(PID.TID 0000.0001)                 2.833766693795861E+05,      /* I =315 */
(PID.TID 0000.0001)                 2.792653032262129E+05,      /* I =316 */
(PID.TID 0000.0001)                 2.755951392607118E+05,      /* I =317 */
(PID.TID 0000.0001)                 2.725847234797694E+05,      /* I =318 */
(PID.TID 0000.0001)                 2.704391598996622E+05,      /* I =319 */
(PID.TID 0000.0001)                 2.693210245495156E+05,      /* I =320 */
(PID.TID 0000.0001)                 3.012190981969055E+05,      /* I =321 */
(PID.TID 0000.0001)                 3.016675528553907E+05,      /* I =322 */
(PID.TID 0000.0001)                 3.025451404065074E+05,      /* I =323 */
(PID.TID 0000.0001)                 3.038143430929827E+05,      /* I =324 */
(PID.TID 0000.0001)                 3.054215712079756E+05,      /* I =325 */
(PID.TID 0000.0001)                 3.073000594641912E+05,      /* I =326 */
(PID.TID 0000.0001)                 3.093732589453273E+05,      /* I =327 */
(PID.TID 0000.0001)                 3.115584474900804E+05,      /* I =328 */
(PID.TID 0000.0001)                 3.137703202065625E+05,      /* I =329 */
(PID.TID 0000.0001)                 3.159243816151009E+05,      /* I =330 */
(PID.TID 0000.0001)                 3.179400237154126E+05,      /* I =331 */
(PID.TID 0000.0001)                 3.197432274745630E+05,      /* I =332 */
(PID.TID 0000.0001)                 3.212688630823077E+05,      /* I =333 */
(PID.TID 0000.0001)                 3.224625867238719E+05,      /* I =334 */
(PID.TID 0000.0001)                 3.232823418193404E+05,      /* I =335 */
(PID.TID 0000.0001)     2 @  3.236994750082736E+05,             /* I =336:337 */
(PID.TID 0000.0001)                 3.232823418193404E+05,      /* I =338 */
(PID.TID 0000.0001)                 3.224625867238719E+05,      /* I =339 */
(PID.TID 0000.0001)                 3.212688630823077E+05,      /* I =340 */
(PID.TID 0000.0001)                 3.197432274745630E+05,      /* I =341 */
(PID.TID 0000.0001)                 3.179400237154126E+05,      /* I =342 */
(PID.TID 0000.0001)                 3.159243816151009E+05,      /* I =343 */
(PID.TID 0000.0001)                 3.137703202065625E+05,      /* I =344 */
(PID.TID 0000.0001)                 3.115584474900804E+05,      /* I =345 */
(PID.TID 0000.0001)                 3.093732589453273E+05,      /* I =346 */
(PID.TID 0000.0001)                 3.073000594641912E+05,      /* I =347 */
(PID.TID 0000.0001)                 3.054215712079756E+05,      /* I =348 */
(PID.TID 0000.0001)                 3.038143430929827E+05,      /* I =349 */
(PID.TID 0000.0001)                 3.025451404065074E+05,      /* I =350 */
(PID.TID 0000.0001)                 3.016675528553907E+05,      /* I =351 */
(PID.TID 0000.0001)                 3.012190981969055E+05,      /* I =352 */
(PID.TID 0000.0001)                 2.598919724358304E+05,      /* I =353 */
(PID.TID 0000.0001)                 2.612987785497329E+05,      /* I =354 */
(PID.TID 0000.0001)                 2.639749816177823E+05,      /* I =355 */
(PID.TID 0000.0001)                 2.676821762100863E+05,      /* I =356 */
(PID.TID 0000.0001)                 2.721339566565751E+05,      /* I =357 */
(PID.TID 0000.0001)                 2.770426972267964E+05,      /* I =358 */
(PID.TID 0000.0001)                 2.821485797298442E+05,      /* I =359 */
(PID.TID 0000.0001)                 2.872314003732699E+05,      /* I =360 */
(PID.TID 0000.0001)                 2.921111682925773E+05,      /* I =361 */
(PID.TID 0000.0001)                 2.966434639461947E+05,      /* I =362 */
(PID.TID 0000.0001)                 3.007134384377001E+05,      /* I =363 */
(PID.TID 0000.0001)                 3.042303595100670E+05,      /* I =364 */
(PID.TID 0000.0001)                 3.071233596908996E+05,      /* I =365 */
(PID.TID 0000.0001)                 3.093384179901085E+05,      /* I =366 */
(PID.TID 0000.0001)                 3.108363645263049E+05,      /* I =367 */
(PID.TID 0000.0001)     2 @  3.115916488673079E+05,             /* I =368:369 */
(PID.TID 0000.0001)                 3.108363645263049E+05,      /* I =370 */
(PID.TID 0000.0001)                 3.093384179901085E+05,      /* I =371 */
(PID.TID 0000.0001)                 3.071233596908996E+05,      /* I =372 */
(PID.TID 0000.0001)                 3.042303595100670E+05,      /* I =373 */
(PID.TID 0000.0001)                 3.007134384377001E+05,      /* I =374 */
(PID.TID 0000.0001)                 2.966434639461947E+05,      /* I =375 */
(PID.TID 0000.0001)                 2.921111682925773E+05,      /* I =376 */
(PID.TID 0000.0001)                 2.872314003732699E+05,      /* I =377 */
(PID.TID 0000.0001)                 2.821485797298442E+05,      /* I =378 */
(PID.TID 0000.0001)                 2.770426972267964E+05,      /* I =379 */
(PID.TID 0000.0001)                 2.721339566565751E+05,      /* I =380 */
(PID.TID 0000.0001)                 2.676821762100863E+05,      /* I =381 */
(PID.TID 0000.0001)                 2.639749816177823E+05,      /* I =382 */
(PID.TID 0000.0001)                 2.612987785497329E+05,      /* I =383 */
(PID.TID 0000.0001)                 2.598919724358304E+05,      /* I =384 */
(PID.TID 0000.0001)                 1.202082051331828E+05,      /* I =385 */
(PID.TID 0000.0001)                 1.572908084538706E+05,      /* I =386 */
(PID.TID 0000.0001)                 1.840412227747703E+05,      /* I =387 */
(PID.TID 0000.0001)                 2.048868197919576E+05,      /* I =388 */
(PID.TID 0000.0001)                 2.220405216043041E+05,      /* I =389 */
(PID.TID 0000.0001)                 2.365892017348392E+05,      /* I =390 */
(PID.TID 0000.0001)                 2.491250781852558E+05,      /* I =391 */
(PID.TID 0000.0001)                 2.599949918261881E+05,      /* I =392 */
(PID.TID 0000.0001)                 2.694110134598581E+05,      /* I =393 */
(PID.TID 0000.0001)                 2.775055554645015E+05,      /* I =394 */
(PID.TID 0000.0001)                 2.843615645344775E+05,      /* I =395 */
(PID.TID 0000.0001)                 2.900303768613599E+05,      /* I =396 */
(PID.TID 0000.0001)                 2.945429307892709E+05,      /* I =397 */
(PID.TID 0000.0001)                 2.979171143158405E+05,      /* I =398 */
(PID.TID 0000.0001)                 3.001626787528886E+05,      /* I =399 */
(PID.TID 0000.0001)     2 @  3.012844832048790E+05,             /* I =400:401 */
(PID.TID 0000.0001)                 3.001626787528886E+05,      /* I =402 */
(PID.TID 0000.0001)                 2.979171143158405E+05,      /* I =403 */
(PID.TID 0000.0001)                 2.945429307892709E+05,      /* I =404 */
(PID.TID 0000.0001)                 2.900303768613599E+05,      /* I =405 */
(PID.TID 0000.0001)                 2.843615645344775E+05,      /* I =406 */
(PID.TID 0000.0001)                 2.775055554645015E+05,      /* I =407 */
(PID.TID 0000.0001)                 2.694110134598581E+05,      /* I =408 */
(PID.TID 0000.0001)                 2.599949918261881E+05,      /* I =409 */
(PID.TID 0000.0001)                 2.491250781852558E+05,      /* I =410 */
(PID.TID 0000.0001)                 2.365892017348392E+05,      /* I =411 */
(PID.TID 0000.0001)                 2.220405216043041E+05,      /* I =412 */
(PID.TID 0000.0001)                 2.048868197919576E+05,      /* I =413 */
(PID.TID 0000.0001)                 1.840412227747703E+05,      /* I =414 */
(PID.TID 0000.0001)                 1.572908084538706E+05,      /* I =415 */
(PID.TID 0000.0001)                 1.202082051331828E+05,      /* I =416 */
(PID.TID 0000.0001)                 2.693210245495156E+05,      /* I =417 */
(PID.TID 0000.0001)                 2.704391598996622E+05,      /* I =418 */
(PID.TID 0000.0001)                 2.725847234797694E+05,      /* I =419 */
(PID.TID 0000.0001)                 2.755951392607118E+05,      /* I =420 */
(PID.TID 0000.0001)                 2.792653032262129E+05,      /* I =421 */
(PID.TID 0000.0001)                 2.833766693795861E+05,      /* I =422 */
(PID.TID 0000.0001)                 2.877189074801222E+05,      /* I =423 */
(PID.TID 0000.0001)                 2.921023023566398E+05,      /* I =424 */
(PID.TID 0000.0001)                 2.963626409677758E+05,      /* I =425 */
(PID.TID 0000.0001)                 3.003614422517500E+05,      /* I =426 */
(PID.TID 0000.0001)                 3.039839792389949E+05,      /* I =427 */
(PID.TID 0000.0001)                 3.071366753786757E+05,      /* I =428 */
(PID.TID 0000.0001)                 3.097446928597904E+05,      /* I =429 */
(PID.TID 0000.0001)                 3.117500277099095E+05,      /* I =430 */
(PID.TID 0000.0001)                 3.131101540263444E+05,      /* I =431 */
(PID.TID 0000.0001)     2 @  3.137971415338805E+05,             /* I =432:433 */
(PID.TID 0000.0001)                 3.131101540263444E+05,      /* I =434 */
(PID.TID 0000.0001)                 3.117500277099095E+05,      /* I =435 */
(PID.TID 0000.0001)                 3.097446928597904E+05,      /* I =436 */
(PID.TID 0000.0001)                 3.071366753786757E+05,      /* I =437 */
(PID.TID 0000.0001)                 3.039839792389949E+05,      /* I =438 */
(PID.TID 0000.0001)                 3.003614422517500E+05,      /* I =439 */
(PID.TID 0000.0001)                 2.963626409677758E+05,      /* I =440 */
(PID.TID 0000.0001)                 2.921023023566398E+05,      /* I =441 */
(PID.TID 0000.0001)                 2.877189074801222E+05,      /* I =442 */
(PID.TID 0000.0001)                 2.833766693795861E+05,      /* I =443 */
(PID.TID 0000.0001)                 2.792653032262129E+05,      /* I =444 */
(PID.TID 0000.0001)                 2.755951392607118E+05,      /* I =445 */
(PID.TID 0000.0001)                 2.725847234797694E+05,      /* I =446 */
(PID.TID 0000.0001)                 2.704391598996622E+05,      /* I =447 */
(PID.TID 0000.0001)                 2.693210245495156E+05,      /* I =448 */
(PID.TID 0000.0001)                 3.012190981969055E+05,      /* I =449 */
(PID.TID 0000.0001)                 3.016675528553907E+05,      /* I =450 */
(PID.TID 0000.0001)                 3.025451404065074E+05,      /* I =451 */
(PID.TID 0000.0001)                 3.038143430929827E+05,      /* I =452 */
(PID.TID 0000.0001)                 3.054215712079756E+05,      /* I =453 */
(PID.TID 0000.0001)                 3.073000594641912E+05,      /* I =454 */
(PID.TID 0000.0001)                 3.093732589453273E+05,      /* I =455 */
(PID.TID 0000.0001)                 3.115584474900804E+05,      /* I =456 */
(PID.TID 0000.0001)                 3.137703202065625E+05,      /* I =457 */
(PID.TID 0000.0001)                 3.159243816151009E+05,      /* I =458 */
(PID.TID 0000.0001)                 3.179400237154126E+05,      /* I =459 */
(PID.TID 0000.0001)                 3.197432274745630E+05,      /* I =460 */
(PID.TID 0000.0001)                 3.212688630823077E+05,      /* I =461 */
(PID.TID 0000.0001)                 3.224625867238719E+05,      /* I =462 */
(PID.TID 0000.0001)                 3.232823418193404E+05,      /* I =463 */
(PID.TID 0000.0001)     2 @  3.236994750082736E+05,             /* I =464:465 */
(PID.TID 0000.0001)                 3.232823418193404E+05,      /* I =466 */
(PID.TID 0000.0001)                 3.224625867238719E+05,      /* I =467 */
(PID.TID 0000.0001)                 3.212688630823077E+05,      /* I =468 */
(PID.TID 0000.0001)                 3.197432274745630E+05,      /* I =469 */
(PID.TID 0000.0001)                 3.179400237154126E+05,      /* I =470 */
(PID.TID 0000.0001)                 3.159243816151009E+05,      /* I =471 */
(PID.TID 0000.0001)                 3.137703202065625E+05,      /* I =472 */
(PID.TID 0000.0001)                 3.115584474900804E+05,      /* I =473 */
(PID.TID 0000.0001)                 3.093732589453273E+05,      /* I =474 */
(PID.TID 0000.0001)                 3.073000594641912E+05,      /* I =475 */
(PID.TID 0000.0001)                 3.054215712079756E+05,      /* I =476 */
(PID.TID 0000.0001)                 3.038143430929827E+05,      /* I =477 */
(PID.TID 0000.0001)                 3.025451404065074E+05,      /* I =478 */
(PID.TID 0000.0001)                 3.016675528553907E+05,      /* I =479 */
(PID.TID 0000.0001)                 3.012190981969055E+05,      /* I =480 */
(PID.TID 0000.0001)                 2.598919724358304E+05,      /* I =481 */
(PID.TID 0000.0001)                 2.612987785497329E+05,      /* I =482 */
(PID.TID 0000.0001)                 2.639749816177823E+05,      /* I =483 */
(PID.TID 0000.0001)                 2.676821762100863E+05,      /* I =484 */
(PID.TID 0000.0001)                 2.721339566565751E+05,      /* I =485 */
(PID.TID 0000.0001)                 2.770426972267964E+05,      /* I =486 */
(PID.TID 0000.0001)                 2.821485797298442E+05,      /* I =487 */
(PID.TID 0000.0001)                 2.872314003732699E+05,      /* I =488 */
(PID.TID 0000.0001)                 2.921111682925773E+05,      /* I =489 */
(PID.TID 0000.0001)                 2.966434639461947E+05,      /* I =490 */
(PID.TID 0000.0001)                 3.007134384377001E+05,      /* I =491 */
(PID.TID 0000.0001)                 3.042303595100670E+05,      /* I =492 */
(PID.TID 0000.0001)                 3.071233596908996E+05,      /* I =493 */
(PID.TID 0000.0001)                 3.093384179901085E+05,      /* I =494 */
(PID.TID 0000.0001)                 3.108363645263049E+05,      /* I =495 */
(PID.TID 0000.0001)     2 @  3.115916488673079E+05,             /* I =496:497 */
(PID.TID 0000.0001)                 3.108363645263049E+05,      /* I =498 */
(PID.TID 0000.0001)                 3.093384179901085E+05,      /* I =499 */
(PID.TID 0000.0001)                 3.071233596908996E+05,      /* I =500 */
(PID.TID 0000.0001)                 3.042303595100670E+05,      /* I =501 */
(PID.TID 0000.0001)                 3.007134384377001E+05,      /* I =502 */
(PID.TID 0000.0001)                 2.966434639461947E+05,      /* I =503 */
(PID.TID 0000.0001)                 2.921111682925773E+05,      /* I =504 */
(PID.TID 0000.0001)                 2.872314003732699E+05,      /* I =505 */
(PID.TID 0000.0001)                 2.821485797298442E+05,      /* I =506 */
(PID.TID 0000.0001)                 2.770426972267964E+05,      /* I =507 */
(PID.TID 0000.0001)                 2.721339566565751E+05,      /* I =508 */
(PID.TID 0000.0001)                 2.676821762100863E+05,      /* I =509 */
(PID.TID 0000.0001)                 2.639749816177823E+05,      /* I =510 */
(PID.TID 0000.0001)                 2.612987785497329E+05,      /* I =511 */
(PID.TID 0000.0001)                 2.598919724358304E+05,      /* I =512 */
(PID.TID 0000.0001)                 1.202082051331828E+05,      /* I =513 */
(PID.TID 0000.0001)                 1.572908084538706E+05,      /* I =514 */
(PID.TID 0000.0001)                 1.840412227747703E+05,      /* I =515 */
(PID.TID 0000.0001)                 2.048868197919576E+05,      /* I =516 */
(PID.TID 0000.0001)                 2.220405216043041E+05,      /* I =517 */
(PID.TID 0000.0001)                 2.365892017348392E+05,      /* I =518 */
(PID.TID 0000.0001)                 2.491250781852558E+05,      /* I =519 */
(PID.TID 0000.0001)                 2.599949918261881E+05,      /* I =520 */
(PID.TID 0000.0001)                 2.694110134598581E+05,      /* I =521 */
(PID.TID 0000.0001)                 2.775055554645015E+05,      /* I =522 */
(PID.TID 0000.0001)                 2.843615645344775E+05,      /* I =523 */
(PID.TID 0000.0001)                 2.900303768613599E+05,      /* I =524 */
(PID.TID 0000.0001)                 2.945429307892709E+05,      /* I =525 */
(PID.TID 0000.0001)                 2.979171143158405E+05,      /* I =526 */
(PID.TID 0000.0001)                 3.001626787528886E+05,      /* I =527 */
(PID.TID 0000.0001)     2 @  3.012844832048790E+05,             /* I =528:529 */
(PID.TID 0000.0001)                 3.001626787528886E+05,      /* I =530 */
(PID.TID 0000.0001)                 2.979171143158405E+05,      /* I =531 */
(PID.TID 0000.0001)                 2.945429307892709E+05,      /* I =532 */
(PID.TID 0000.0001)                 2.900303768613599E+05,      /* I =533 */
(PID.TID 0000.0001)                 2.843615645344775E+05,      /* I =534 */
(PID.TID 0000.0001)                 2.775055554645015E+05,      /* I =535 */
(PID.TID 0000.0001)                 2.694110134598581E+05,      /* I =536 */
(PID.TID 0000.0001)                 2.599949918261881E+05,      /* I =537 */
(PID.TID 0000.0001)                 2.491250781852558E+05,      /* I =538 */
(PID.TID 0000.0001)                 2.365892017348392E+05,      /* I =539 */
(PID.TID 0000.0001)                 2.220405216043041E+05,      /* I =540 */
(PID.TID 0000.0001)                 2.048868197919576E+05,      /* I =541 */
(PID.TID 0000.0001)                 1.840412227747703E+05,      /* I =542 */
(PID.TID 0000.0001)                 1.572908084538706E+05,      /* I =543 */
(PID.TID 0000.0001)                 1.202082051331828E+05,      /* I =544 */
(PID.TID 0000.0001)                 2.693210245495156E+05,      /* I =545 */
(PID.TID 0000.0001)                 2.704391598996622E+05,      /* I =546 */
(PID.TID 0000.0001)                 2.725847234797694E+05,      /* I =547 */
(PID.TID 0000.0001)                 2.755951392607118E+05,      /* I =548 */
(PID.TID 0000.0001)                 2.792653032262129E+05,      /* I =549 */
(PID.TID 0000.0001)                 2.833766693795861E+05,      /* I =550 */
(PID.TID 0000.0001)                 2.877189074801222E+05,      /* I =551 */
(PID.TID 0000.0001)                 2.921023023566398E+05,      /* I =552 */
(PID.TID 0000.0001)                 2.963626409677758E+05,      /* I =553 */
(PID.TID 0000.0001)                 3.003614422517500E+05,      /* I =554 */
(PID.TID 0000.0001)                 3.039839792389949E+05,      /* I =555 */
(PID.TID 0000.0001)                 3.071366753786757E+05,      /* I =556 */
(PID.TID 0000.0001)                 3.097446928597904E+05,      /* I =557 */
(PID.TID 0000.0001)                 3.117500277099095E+05,      /* I =558 */
(PID.TID 0000.0001)                 3.131101540263444E+05,      /* I =559 */
(PID.TID 0000.0001)     2 @  3.137971415338805E+05,             /* I =560:561 */
(PID.TID 0000.0001)                 3.131101540263444E+05,      /* I =562 */
(PID.TID 0000.0001)                 3.117500277099095E+05,      /* I =563 */
(PID.TID 0000.0001)                 3.097446928597904E+05,      /* I =564 */
(PID.TID 0000.0001)                 3.071366753786757E+05,      /* I =565 */
(PID.TID 0000.0001)                 3.039839792389949E+05,      /* I =566 */
(PID.TID 0000.0001)                 3.003614422517500E+05,      /* I =567 */
(PID.TID 0000.0001)                 2.963626409677758E+05,      /* I =568 */
(PID.TID 0000.0001)                 2.921023023566398E+05,      /* I =569 */
(PID.TID 0000.0001)                 2.877189074801222E+05,      /* I =570 */
(PID.TID 0000.0001)                 2.833766693795861E+05,      /* I =571 */
(PID.TID 0000.0001)                 2.792653032262129E+05,      /* I =572 */
(PID.TID 0000.0001)                 2.755951392607118E+05,      /* I =573 */
(PID.TID 0000.0001)                 2.725847234797694E+05,      /* I =574 */
(PID.TID 0000.0001)                 2.704391598996622E+05,      /* I =575 */
(PID.TID 0000.0001)                 2.693210245495156E+05,      /* I =576 */
(PID.TID 0000.0001)                 3.012190981969055E+05,      /* I =577 */
(PID.TID 0000.0001)                 3.016675528553907E+05,      /* I =578 */
(PID.TID 0000.0001)                 3.025451404065074E+05,      /* I =579 */
(PID.TID 0000.0001)                 3.038143430929827E+05,      /* I =580 */
(PID.TID 0000.0001)                 3.054215712079756E+05,      /* I =581 */
(PID.TID 0000.0001)                 3.073000594641912E+05,      /* I =582 */
(PID.TID 0000.0001)                 3.093732589453273E+05,      /* I =583 */
(PID.TID 0000.0001)                 3.115584474900804E+05,      /* I =584 */
(PID.TID 0000.0001)                 3.137703202065625E+05,      /* I =585 */
(PID.TID 0000.0001)                 3.159243816151009E+05,      /* I =586 */
(PID.TID 0000.0001)                 3.179400237154126E+05,      /* I =587 */
(PID.TID 0000.0001)                 3.197432274745630E+05,      /* I =588 */
(PID.TID 0000.0001)                 3.212688630823077E+05,      /* I =589 */
(PID.TID 0000.0001)                 3.224625867238719E+05,      /* I =590 */
(PID.TID 0000.0001)                 3.232823418193404E+05,      /* I =591 */
(PID.TID 0000.0001)     2 @  3.236994750082736E+05,             /* I =592:593 */
(PID.TID 0000.0001)                 3.232823418193404E+05,      /* I =594 */
(PID.TID 0000.0001)                 3.224625867238719E+05,      /* I =595 */
(PID.TID 0000.0001)                 3.212688630823077E+05,      /* I =596 */
(PID.TID 0000.0001)                 3.197432274745630E+05,      /* I =597 */
(PID.TID 0000.0001)                 3.179400237154126E+05,      /* I =598 */
(PID.TID 0000.0001)                 3.159243816151009E+05,      /* I =599 */
(PID.TID 0000.0001)                 3.137703202065625E+05,      /* I =600 */
(PID.TID 0000.0001)                 3.115584474900804E+05,      /* I =601 */
(PID.TID 0000.0001)                 3.093732589453273E+05,      /* I =602 */
(PID.TID 0000.0001)                 3.073000594641912E+05,      /* I =603 */
(PID.TID 0000.0001)                 3.054215712079756E+05,      /* I =604 */
(PID.TID 0000.0001)                 3.038143430929827E+05,      /* I =605 */
(PID.TID 0000.0001)                 3.025451404065074E+05,      /* I =606 */
(PID.TID 0000.0001)                 3.016675528553907E+05,      /* I =607 */
(PID.TID 0000.0001)                 3.012190981969055E+05,      /* I =608 */
(PID.TID 0000.0001)                 2.598919724358304E+05,      /* I =609 */
(PID.TID 0000.0001)                 2.612987785497329E+05,      /* I =610 */
(PID.TID 0000.0001)                 2.639749816177823E+05,      /* I =611 */
(PID.TID 0000.0001)                 2.676821762100863E+05,      /* I =612 */
(PID.TID 0000.0001)                 2.721339566565751E+05,      /* I =613 */
(PID.TID 0000.0001)                 2.770426972267964E+05,      /* I =614 */
(PID.TID 0000.0001)                 2.821485797298442E+05,      /* I =615 */
(PID.TID 0000.0001)                 2.872314003732699E+05,      /* I =616 */
(PID.TID 0000.0001)                 2.921111682925773E+05,      /* I =617 */
(PID.TID 0000.0001)                 2.966434639461947E+05,      /* I =618 */
(PID.TID 0000.0001)                 3.007134384377001E+05,      /* I =619 */
(PID.TID 0000.0001)                 3.042303595100670E+05,      /* I =620 */
(PID.TID 0000.0001)                 3.071233596908996E+05,      /* I =621 */
(PID.TID 0000.0001)                 3.093384179901085E+05,      /* I =622 */
(PID.TID 0000.0001)                 3.108363645263049E+05,      /* I =623 */
(PID.TID 0000.0001)     2 @  3.115916488673079E+05,             /* I =624:625 */
(PID.TID 0000.0001)                 3.108363645263049E+05,      /* I =626 */
(PID.TID 0000.0001)                 3.093384179901085E+05,      /* I =627 */
(PID.TID 0000.0001)                 3.071233596908996E+05,      /* I =628 */
(PID.TID 0000.0001)                 3.042303595100670E+05,      /* I =629 */
(PID.TID 0000.0001)                 3.007134384377001E+05,      /* I =630 */
(PID.TID 0000.0001)                 2.966434639461947E+05,      /* I =631 */
(PID.TID 0000.0001)                 2.921111682925773E+05,      /* I =632 */
(PID.TID 0000.0001)                 2.872314003732699E+05,      /* I =633 */
(PID.TID 0000.0001)                 2.821485797298442E+05,      /* I =634 */
(PID.TID 0000.0001)                 2.770426972267964E+05,      /* I =635 */
(PID.TID 0000.0001)                 2.721339566565751E+05,      /* I =636 */
(PID.TID 0000.0001)                 2.676821762100863E+05,      /* I =637 */
(PID.TID 0000.0001)                 2.639749816177823E+05,      /* I =638 */
(PID.TID 0000.0001)                 2.612987785497329E+05,      /* I =639 */
(PID.TID 0000.0001)                 2.598919724358304E+05,      /* I =640 */
(PID.TID 0000.0001)                 1.202082051331828E+05,      /* I =641 */
(PID.TID 0000.0001)                 1.572908084538706E+05,      /* I =642 */
(PID.TID 0000.0001)                 1.840412227747703E+05,      /* I =643 */
(PID.TID 0000.0001)                 2.048868197919576E+05,      /* I =644 */
(PID.TID 0000.0001)                 2.220405216043041E+05,      /* I =645 */
(PID.TID 0000.0001)                 2.365892017348392E+05,      /* I =646 */
(PID.TID 0000.0001)                 2.491250781852558E+05,      /* I =647 */
(PID.TID 0000.0001)                 2.599949918261881E+05,      /* I =648 */
(PID.TID 0000.0001)                 2.694110134598581E+05,      /* I =649 */
(PID.TID 0000.0001)                 2.775055554645015E+05,      /* I =650 */
(PID.TID 0000.0001)                 2.843615645344775E+05,      /* I =651 */
(PID.TID 0000.0001)                 2.900303768613599E+05,      /* I =652 */
(PID.TID 0000.0001)                 2.945429307892709E+05,      /* I =653 */
(PID.TID 0000.0001)                 2.979171143158405E+05,      /* I =654 */
(PID.TID 0000.0001)                 3.001626787528886E+05,      /* I =655 */
(PID.TID 0000.0001)     2 @  3.012844832048790E+05,             /* I =656:657 */
(PID.TID 0000.0001)                 3.001626787528886E+05,      /* I =658 */
(PID.TID 0000.0001)                 2.979171143158405E+05,      /* I =659 */
(PID.TID 0000.0001)                 2.945429307892709E+05,      /* I =660 */
(PID.TID 0000.0001)                 2.900303768613599E+05,      /* I =661 */
(PID.TID 0000.0001)                 2.843615645344775E+05,      /* I =662 */
(PID.TID 0000.0001)                 2.775055554645015E+05,      /* I =663 */
(PID.TID 0000.0001)                 2.694110134598581E+05,      /* I =664 */
(PID.TID 0000.0001)                 2.599949918261881E+05,      /* I =665 */
(PID.TID 0000.0001)                 2.491250781852558E+05,      /* I =666 */
(PID.TID 0000.0001)                 2.365892017348392E+05,      /* I =667 */
(PID.TID 0000.0001)                 2.220405216043041E+05,      /* I =668 */
(PID.TID 0000.0001)                 2.048868197919576E+05,      /* I =669 */
(PID.TID 0000.0001)                 1.840412227747703E+05,      /* I =670 */
(PID.TID 0000.0001)                 1.572908084538706E+05,      /* I =671 */
(PID.TID 0000.0001)                 1.202082051331828E+05,      /* I =672 */
(PID.TID 0000.0001)                 2.693210245495156E+05,      /* I =673 */
(PID.TID 0000.0001)                 2.704391598996622E+05,      /* I =674 */
(PID.TID 0000.0001)                 2.725847234797694E+05,      /* I =675 */
(PID.TID 0000.0001)                 2.755951392607118E+05,      /* I =676 */
(PID.TID 0000.0001)                 2.792653032262129E+05,      /* I =677 */
(PID.TID 0000.0001)                 2.833766693795861E+05,      /* I =678 */
(PID.TID 0000.0001)                 2.877189074801222E+05,      /* I =679 */
(PID.TID 0000.0001)                 2.921023023566398E+05,      /* I =680 */
(PID.TID 0000.0001)                 2.963626409677758E+05,      /* I =681 */
(PID.TID 0000.0001)                 3.003614422517500E+05,      /* I =682 */
(PID.TID 0000.0001)                 3.039839792389949E+05,      /* I =683 */
(PID.TID 0000.0001)                 3.071366753786757E+05,      /* I =684 */
(PID.TID 0000.0001)                 3.097446928597904E+05,      /* I =685 */
(PID.TID 0000.0001)                 3.117500277099095E+05,      /* I =686 */
(PID.TID 0000.0001)                 3.131101540263444E+05,      /* I =687 */
(PID.TID 0000.0001)     2 @  3.137971415338805E+05,             /* I =688:689 */
(PID.TID 0000.0001)                 3.131101540263444E+05,      /* I =690 */
(PID.TID 0000.0001)                 3.117500277099095E+05,      /* I =691 */
(PID.TID 0000.0001)                 3.097446928597904E+05,      /* I =692 */
(PID.TID 0000.0001)                 3.071366753786757E+05,      /* I =693 */
(PID.TID 0000.0001)                 3.039839792389949E+05,      /* I =694 */
(PID.TID 0000.0001)                 3.003614422517500E+05,      /* I =695 */
(PID.TID 0000.0001)                 2.963626409677758E+05,      /* I =696 */
(PID.TID 0000.0001)                 2.921023023566398E+05,      /* I =697 */
(PID.TID 0000.0001)                 2.877189074801222E+05,      /* I =698 */
(PID.TID 0000.0001)                 2.833766693795861E+05,      /* I =699 */
(PID.TID 0000.0001)                 2.792653032262129E+05,      /* I =700 */
(PID.TID 0000.0001)                 2.755951392607118E+05,      /* I =701 */
(PID.TID 0000.0001)                 2.725847234797694E+05,      /* I =702 */
(PID.TID 0000.0001)                 2.704391598996622E+05,      /* I =703 */
(PID.TID 0000.0001)                 2.693210245495156E+05,      /* I =704 */
(PID.TID 0000.0001)                 3.012190981969055E+05,      /* I =705 */
(PID.TID 0000.0001)                 3.016675528553907E+05,      /* I =706 */
(PID.TID 0000.0001)                 3.025451404065074E+05,      /* I =707 */
(PID.TID 0000.0001)                 3.038143430929827E+05,      /* I =708 */
(PID.TID 0000.0001)                 3.054215712079756E+05,      /* I =709 */
(PID.TID 0000.0001)                 3.073000594641912E+05,      /* I =710 */
(PID.TID 0000.0001)                 3.093732589453273E+05,      /* I =711 */
(PID.TID 0000.0001)                 3.115584474900804E+05,      /* I =712 */
(PID.TID 0000.0001)                 3.137703202065625E+05,      /* I =713 */
(PID.TID 0000.0001)                 3.159243816151009E+05,      /* I =714 */
(PID.TID 0000.0001)                 3.179400237154126E+05,      /* I =715 */
(PID.TID 0000.0001)                 3.197432274745630E+05,      /* I =716 */
(PID.TID 0000.0001)                 3.212688630823077E+05,      /* I =717 */
(PID.TID 0000.0001)                 3.224625867238719E+05,      /* I =718 */
(PID.TID 0000.0001)                 3.232823418193404E+05,      /* I =719 */
(PID.TID 0000.0001)     2 @  3.236994750082736E+05,             /* I =720:721 */
(PID.TID 0000.0001)                 3.232823418193404E+05,      /* I =722 */
(PID.TID 0000.0001)                 3.224625867238719E+05,      /* I =723 */
(PID.TID 0000.0001)                 3.212688630823077E+05,      /* I =724 */
(PID.TID 0000.0001)                 3.197432274745630E+05,      /* I =725 */
(PID.TID 0000.0001)                 3.179400237154126E+05,      /* I =726 */
(PID.TID 0000.0001)                 3.159243816151009E+05,      /* I =727 */
(PID.TID 0000.0001)                 3.137703202065625E+05,      /* I =728 */
(PID.TID 0000.0001)                 3.115584474900804E+05,      /* I =729 */
(PID.TID 0000.0001)                 3.093732589453273E+05,      /* I =730 */
(PID.TID 0000.0001)                 3.073000594641912E+05,      /* I =731 */
(PID.TID 0000.0001)                 3.054215712079756E+05,      /* I =732 */
(PID.TID 0000.0001)                 3.038143430929827E+05,      /* I =733 */
(PID.TID 0000.0001)                 3.025451404065074E+05,      /* I =734 */
(PID.TID 0000.0001)                 3.016675528553907E+05,      /* I =735 */
(PID.TID 0000.0001)                 3.012190981969055E+05,      /* I =736 */
(PID.TID 0000.0001)                 2.598919724358304E+05,      /* I =737 */
(PID.TID 0000.0001)                 2.612987785497329E+05,      /* I =738 */
(PID.TID 0000.0001)                 2.639749816177823E+05,      /* I =739 */
(PID.TID 0000.0001)                 2.676821762100863E+05,      /* I =740 */
(PID.TID 0000.0001)                 2.721339566565751E+05,      /* I =741 */
(PID.TID 0000.0001)                 2.770426972267964E+05,      /* I =742 */
(PID.TID 0000.0001)                 2.821485797298442E+05,      /* I =743 */
(PID.TID 0000.0001)                 2.872314003732699E+05,      /* I =744 */
(PID.TID 0000.0001)                 2.921111682925773E+05,      /* I =745 */
(PID.TID 0000.0001)                 2.966434639461947E+05,      /* I =746 */
(PID.TID 0000.0001)                 3.007134384377001E+05,      /* I =747 */
(PID.TID 0000.0001)                 3.042303595100670E+05,      /* I =748 */
(PID.TID 0000.0001)                 3.071233596908996E+05,      /* I =749 */
(PID.TID 0000.0001)                 3.093384179901085E+05,      /* I =750 */
(PID.TID 0000.0001)                 3.108363645263049E+05,      /* I =751 */
(PID.TID 0000.0001)     2 @  3.115916488673079E+05,             /* I =752:753 */
(PID.TID 0000.0001)                 3.108363645263049E+05,      /* I =754 */
(PID.TID 0000.0001)                 3.093384179901085E+05,      /* I =755 */
(PID.TID 0000.0001)                 3.071233596908996E+05,      /* I =756 */
(PID.TID 0000.0001)                 3.042303595100670E+05,      /* I =757 */
(PID.TID 0000.0001)                 3.007134384377001E+05,      /* I =758 */
(PID.TID 0000.0001)                 2.966434639461947E+05,      /* I =759 */
(PID.TID 0000.0001)                 2.921111682925773E+05,      /* I =760 */
(PID.TID 0000.0001)                 2.872314003732699E+05,      /* I =761 */
(PID.TID 0000.0001)                 2.821485797298442E+05,      /* I =762 */
(PID.TID 0000.0001)                 2.770426972267964E+05,      /* I =763 */
(PID.TID 0000.0001)                 2.721339566565751E+05,      /* I =764 */
(PID.TID 0000.0001)                 2.676821762100863E+05,      /* I =765 */
(PID.TID 0000.0001)                 2.639749816177823E+05,      /* I =766 */
(PID.TID 0000.0001)                 2.612987785497329E+05,      /* I =767 */
(PID.TID 0000.0001)                 2.598919724358304E+05       /* I =768 */
(PID.TID 0000.0001)     ;
(PID.TID 0000.0001) dyF =  /* dyF(1,:,1,:) ( units: m ) */
(PID.TID 0000.0001)                 1.202082051331828E+05,      /* J =  1 */
(PID.TID 0000.0001)                 1.563594089971120E+05,      /* J =  2 */
(PID.TID 0000.0001)                 1.835530058121492E+05,      /* J =  3 */
(PID.TID 0000.0001)                 2.045883481718707E+05,      /* J =  4 */
(PID.TID 0000.0001)                 2.218350349844185E+05,      /* J =  5 */
(PID.TID 0000.0001)                 2.364352994647058E+05,      /* J =  6 */
(PID.TID 0000.0001)                 2.490022710862746E+05,      /* J =  7 */
(PID.TID 0000.0001)                 2.598919724358304E+05       /* J =  8 */
(PID.TID 0000.0001)     ;
(PID.TID 0000.0001) dxG =  /* dxG(:,1,:,1) ( units: m ) */
(PID.TID 0000.0001)                 1.009837800879055E+05,      /* I =  1 */
(PID.TID 0000.0001)                 1.534505834330338E+05,      /* I =  2 */
(PID.TID 0000.0001)                 1.823321598773926E+05,      /* I =  3 */
(PID.TID 0000.0001)                 2.038999045536999E+05,      /* I =  4 */
(PID.TID 0000.0001)                 2.213884732245467E+05,      /* I =  5 */
(PID.TID 0000.0001)                 2.361211699596122E+05,      /* I =  6 */
(PID.TID 0000.0001)                 2.487693460283865E+05,      /* I =  7 */
(PID.TID 0000.0001)                 2.597126963772147E+05,      /* I =  8 */
(PID.TID 0000.0001)                 2.691790288994575E+05,      /* I =  9 */
(PID.TID 0000.0001)                 2.773091043277394E+05,      /* I = 10 */
(PID.TID 0000.0001)                 2.841906470085516E+05,      /* I = 11 */
(PID.TID 0000.0001)                 2.898778860929753E+05,      /* I = 12 */
(PID.TID 0000.0001)                 2.944035815526416E+05,      /* I = 13 */
(PID.TID 0000.0001)                 2.977867909042096E+05,      /* I = 14 */
(PID.TID 0000.0001)                 3.000380090330854E+05,      /* I = 15 */
(PID.TID 0000.0001)     2 @  3.011625828699101E+05,             /* I = 16: 17 */
(PID.TID 0000.0001)                 3.000380090330854E+05,      /* I = 18 */
(PID.TID 0000.0001)                 2.977867909042096E+05,      /* I = 19 */
(PID.TID 0000.0001)                 2.944035815526416E+05,      /* I = 20 */
(PID.TID 0000.0001)                 2.898778860929753E+05,      /* I = 21 */
(PID.TID 0000.0001)                 2.841906470085516E+05,      /* I = 22 */
(PID.TID 0000.0001)                 2.773091043277394E+05,      /* I = 23 */
(PID.TID 0000.0001)                 2.691790288994575E+05,      /* I = 24 */
(PID.TID 0000.0001)                 2.597126963772147E+05,      /* I = 25 */
(PID.TID 0000.0001)                 2.487693460283865E+05,      /* I = 26 */
(PID.TID 0000.0001)                 2.361211699596122E+05,      /* I = 27 */
(PID.TID 0000.0001)                 2.213884732245467E+05,      /* I = 28 */
(PID.TID 0000.0001)                 2.038999045536999E+05,      /* I = 29 */
(PID.TID 0000.0001)                 1.823321598773926E+05,      /* I = 30 */
(PID.TID 0000.0001)                 1.534505834330338E+05,      /* I = 31 */
(PID.TID 0000.0001)                 1.009837800879055E+05,      /* I = 32 */
(PID.TID 0000.0001)                 2.648750305193301E+05,      /* I = 33 */
(PID.TID 0000.0001)                 2.661181018072810E+05,      /* I = 34 */
(PID.TID 0000.0001)                 2.684951411609472E+05,      /* I = 35 */
(PID.TID 0000.0001)                 2.718130194543262E+05,      /* I = 36 */
(PID.TID 0000.0001)                 2.758327097123360E+05,      /* I = 37 */
(PID.TID 0000.0001)                 2.803055238380586E+05,      /* I = 38 */
(PID.TID 0000.0001)                 2.849983456747301E+05,      /* I = 39 */
(PID.TID 0000.0001)                 2.897064557701324E+05,      /* I = 40 */
(PID.TID 0000.0001)                 2.942570946491559E+05,      /* I = 41 */
(PID.TID 0000.0001)                 2.985078462652251E+05,      /* I = 42 */
(PID.TID 0000.0001)                 3.023429734268671E+05,      /* I = 43 */
(PID.TID 0000.0001)                 3.056695262148454E+05,      /* I = 44 */
(PID.TID 0000.0001)                 3.084140431300752E+05,      /* I = 45 */
(PID.TID 0000.0001)                 3.105200753220973E+05,      /* I = 46 */
(PID.TID 0000.0001)                 3.119464819293889E+05,      /* I = 47 */
(PID.TID 0000.0001)     2 @  3.126663860714039E+05,             /* I = 48: 49 */
(PID.TID 0000.0001)                 3.119464819293889E+05,      /* I = 50 */
(PID.TID 0000.0001)                 3.105200753220973E+05,      /* I = 51 */
(PID.TID 0000.0001)                 3.084140431300752E+05,      /* I = 52 */
(PID.TID 0000.0001)                 3.056695262148454E+05,      /* I = 53 */
(PID.TID 0000.0001)                 3.023429734268671E+05,      /* I = 54 */
(PID.TID 0000.0001)                 2.985078462652251E+05,      /* I = 55 */
(PID.TID 0000.0001)                 2.942570946491559E+05,      /* I = 56 */
(PID.TID 0000.0001)                 2.897064557701324E+05,      /* I = 57 */
(PID.TID 0000.0001)                 2.849983456747301E+05,      /* I = 58 */
(PID.TID 0000.0001)                 2.803055238380586E+05,      /* I = 59 */
(PID.TID 0000.0001)                 2.758327097123360E+05,      /* I = 60 */
(PID.TID 0000.0001)                 2.718130194543262E+05,      /* I = 61 */
(PID.TID 0000.0001)                 2.684951411609472E+05,      /* I = 62 */
(PID.TID 0000.0001)                 2.661181018072810E+05,      /* I = 63 */
(PID.TID 0000.0001)                 2.648750305193301E+05,      /* I = 64 */
(PID.TID 0000.0001)                 3.014246674484008E+05,      /* I = 65 */
(PID.TID 0000.0001)                 3.018694497480782E+05,      /* I = 66 */
(PID.TID 0000.0001)                 3.027399364062562E+05,      /* I = 67 */
(PID.TID 0000.0001)                 3.039990657490951E+05,      /* I = 68 */
(PID.TID 0000.0001)                 3.055938607351786E+05,      /* I = 69 */
(PID.TID 0000.0001)                 3.074582577767738E+05,      /* I = 70 */
(PID.TID 0000.0001)                 3.095164322685570E+05,      /* I = 71 */
(PID.TID 0000.0001)                 3.116863538419811E+05,      /* I = 72 */
(PID.TID 0000.0001)                 3.138833384868975E+05,      /* I = 73 */
(PID.TID 0000.0001)                 3.160234197751047E+05,      /* I = 74 */
(PID.TID 0000.0001)                 3.180264208293543E+05,      /* I = 75 */
(PID.TID 0000.0001)                 3.198186602283748E+05,      /* I = 76 */
(PID.TID 0000.0001)                 3.213352627063766E+05,      /* I = 77 */
(PID.TID 0000.0001)                 3.225220686282585E+05,      /* I = 78 */
(PID.TID 0000.0001)                 3.233371474853745E+05,      /* I = 79 */
(PID.TID 0000.0001)     2 @  3.237519587277332E+05,             /* I = 80: 81 */
(PID.TID 0000.0001)                 3.233371474853745E+05,      /* I = 82 */
(PID.TID 0000.0001)                 3.225220686282585E+05,      /* I = 83 */
(PID.TID 0000.0001)                 3.213352627063766E+05,      /* I = 84 */
(PID.TID 0000.0001)                 3.198186602283748E+05,      /* I = 85 */
(PID.TID 0000.0001)                 3.180264208293543E+05,      /* I = 86 */
(PID.TID 0000.0001)                 3.160234197751047E+05,      /* I = 87 */
(PID.TID 0000.0001)                 3.138833384868975E+05,      /* I = 88 */
(PID.TID 0000.0001)                 3.116863538419811E+05,      /* I = 89 */
(PID.TID 0000.0001)                 3.095164322685570E+05,      /* I = 90 */
(PID.TID 0000.0001)                 3.074582577767738E+05,      /* I = 91 */
(PID.TID 0000.0001)                 3.055938607351786E+05,      /* I = 92 */
(PID.TID 0000.0001)                 3.039990657490951E+05,      /* I = 93 */
(PID.TID 0000.0001)                 3.027399364062562E+05,      /* I = 94 */
(PID.TID 0000.0001)                 3.018694497480782E+05,      /* I = 95 */
(PID.TID 0000.0001)                 3.014246674484008E+05,      /* I = 96 */
(PID.TID 0000.0001)                 2.648750305193301E+05,      /* I = 97 */
(PID.TID 0000.0001)                 2.661181018072810E+05,      /* I = 98 */
(PID.TID 0000.0001)                 2.684951411609472E+05,      /* I = 99 */
(PID.TID 0000.0001)                 2.718130194543262E+05,      /* I =100 */
(PID.TID 0000.0001)                 2.758327097123360E+05,      /* I =101 */
(PID.TID 0000.0001)                 2.803055238380586E+05,      /* I =102 */
(PID.TID 0000.0001)                 2.849983456747301E+05,      /* I =103 */
(PID.TID 0000.0001)                 2.897064557701324E+05,      /* I =104 */
(PID.TID 0000.0001)                 2.942570946491559E+05,      /* I =105 */
(PID.TID 0000.0001)                 2.985078462652251E+05,      /* I =106 */
(PID.TID 0000.0001)                 3.023429734268671E+05,      /* I =107 */
(PID.TID 0000.0001)                 3.056695262148454E+05,      /* I =108 */
(PID.TID 0000.0001)                 3.084140431300752E+05,      /* I =109 */
(PID.TID 0000.0001)                 3.105200753220973E+05,      /* I =110 */
(PID.TID 0000.0001)                 3.119464819293889E+05,      /* I =111 */
(PID.TID 0000.0001)     2 @  3.126663860714039E+05,             /* I =112:113 */
(PID.TID 0000.0001)                 3.119464819293889E+05,      /* I =114 */
(PID.TID 0000.0001)                 3.105200753220973E+05,      /* I =115 */
(PID.TID 0000.0001)                 3.084140431300752E+05,      /* I =116 */
(PID.TID 0000.0001)                 3.056695262148454E+05,      /* I =117 */
(PID.TID 0000.0001)                 3.023429734268671E+05,      /* I =118 */
(PID.TID 0000.0001)                 2.985078462652251E+05,      /* I =119 */
(PID.TID 0000.0001)                 2.942570946491559E+05,      /* I =120 */
(PID.TID 0000.0001)                 2.897064557701324E+05,      /* I =121 */
(PID.TID 0000.0001)                 2.849983456747301E+05,      /* I =122 */
(PID.TID 0000.0001)                 2.803055238380586E+05,      /* I =123 */
(PID.TID 0000.0001)                 2.758327097123360E+05,      /* I =124 */
(PID.TID 0000.0001)                 2.718130194543262E+05,      /* I =125 */
(PID.TID 0000.0001)                 2.684951411609472E+05,      /* I =126 */
(PID.TID 0000.0001)                 2.661181018072810E+05,      /* I =127 */
(PID.TID 0000.0001)                 2.648750305193301E+05,      /* I =128 */
(PID.TID 0000.0001)                 1.009837800879055E+05,      /* I =129 */
(PID.TID 0000.0001)                 1.534505834330338E+05,      /* I =130 */
(PID.TID 0000.0001)                 1.823321598773926E+05,      /* I =131 */
(PID.TID 0000.0001)                 2.038999045536999E+05,      /* I =132 */
(PID.TID 0000.0001)                 2.213884732245467E+05,      /* I =133 */
(PID.TID 0000.0001)                 2.361211699596122E+05,      /* I =134 */
(PID.TID 0000.0001)                 2.487693460283865E+05,      /* I =135 */
(PID.TID 0000.0001)                 2.597126963772147E+05,      /* I =136 */
(PID.TID 0000.0001)                 2.691790288994575E+05,      /* I =137 */
(PID.TID 0000.0001)                 2.773091043277394E+05,      /* I =138 */
(PID.TID 0000.0001)                 2.841906470085516E+05,      /* I =139 */
(PID.TID 0000.0001)                 2.898778860929753E+05,      /* I =140 */
(PID.TID 0000.0001)                 2.944035815526416E+05,      /* I =141 */
(PID.TID 0000.0001)                 2.977867909042096E+05,      /* I =142 */
(PID.TID 0000.0001)                 3.000380090330854E+05,      /* I =143 */
(PID.TID 0000.0001)     2 @  3.011625828699101E+05,             /* I =144:145 */
(PID.TID 0000.0001)                 3.000380090330854E+05,      /* I =146 */
(PID.TID 0000.0001)                 2.977867909042096E+05,      /* I =147 */
(PID.TID 0000.0001)                 2.944035815526416E+05,      /* I =148 */
(PID.TID 0000.0001)                 2.898778860929753E+05,      /* I =149 */
(PID.TID 0000.0001)                 2.841906470085516E+05,      /* I =150 */
(PID.TID 0000.0001)                 2.773091043277394E+05,      /* I =151 */
(PID.TID 0000.0001)                 2.691790288994575E+05,      /* I =152 */
(PID.TID 0000.0001)                 2.597126963772147E+05,      /* I =153 */
(PID.TID 0000.0001)                 2.487693460283865E+05,      /* I =154 */
(PID.TID 0000.0001)                 2.361211699596122E+05,      /* I =155 */
(PID.TID 0000.0001)                 2.213884732245467E+05,      /* I =156 */
(PID.TID 0000.0001)                 2.038999045536999E+05,      /* I =157 */
(PID.TID 0000.0001)                 1.823321598773926E+05,      /* I =158 */
(PID.TID 0000.0001)                 1.534505834330338E+05,      /* I =159 */
(PID.TID 0000.0001)                 1.009837800879055E+05,      /* I =160 */
(PID.TID 0000.0001)                 2.648750305193301E+05,      /* I =161 */
(PID.TID 0000.0001)                 2.661181018072810E+05,      /* I =162 */
(PID.TID 0000.0001)                 2.684951411609472E+05,      /* I =163 */
(PID.TID 0000.0001)                 2.718130194543262E+05,      /* I =164 */
(PID.TID 0000.0001)                 2.758327097123360E+05,      /* I =165 */
(PID.TID 0000.0001)                 2.803055238380586E+05,      /* I =166 */
(PID.TID 0000.0001)                 2.849983456747301E+05,      /* I =167 */
(PID.TID 0000.0001)                 2.897064557701324E+05,      /* I =168 */
(PID.TID 0000.0001)                 2.942570946491559E+05,      /* I =169 */
(PID.TID 0000.0001)                 2.985078462652251E+05,      /* I =170 */
(PID.TID 0000.0001)                 3.023429734268671E+05,      /* I =171 */
(PID.TID 0000.0001)                 3.056695262148454E+05,      /* I =172 */
(PID.TID 0000.0001)                 3.084140431300752E+05,      /* I =173 */
(PID.TID 0000.0001)                 3.105200753220973E+05,      /* I =174 */
(PID.TID 0000.0001)                 3.119464819293889E+05,      /* I =175 */
(PID.TID 0000.0001)     2 @  3.126663860714039E+05,             /* I =176:177 */
(PID.TID 0000.0001)                 3.119464819293889E+05,      /* I =178 */
(PID.TID 0000.0001)                 3.105200753220973E+05,      /* I =179 */
(PID.TID 0000.0001)                 3.084140431300752E+05,      /* I =180 */
(PID.TID 0000.0001)                 3.056695262148454E+05,      /* I =181 */
(PID.TID 0000.0001)                 3.023429734268671E+05,      /* I =182 */
(PID.TID 0000.0001)                 2.985078462652251E+05,      /* I =183 */
(PID.TID 0000.0001)                 2.942570946491559E+05,      /* I =184 */
(PID.TID 0000.0001)                 2.897064557701324E+05,      /* I =185 */
(PID.TID 0000.0001)                 2.849983456747301E+05,      /* I =186 */
(PID.TID 0000.0001)                 2.803055238380586E+05,      /* I =187 */
(PID.TID 0000.0001)                 2.758327097123360E+05,      /* I =188 */
(PID.TID 0000.0001)                 2.718130194543262E+05,      /* I =189 */
(PID.TID 0000.0001)                 2.684951411609472E+05,      /* I =190 */
(PID.TID 0000.0001)                 2.661181018072810E+05,      /* I =191 */
(PID.TID 0000.0001)                 2.648750305193301E+05,      /* I =192 */
(PID.TID 0000.0001)                 3.014246674484008E+05,      /* I =193 */
(PID.TID 0000.0001)                 3.018694497480782E+05,      /* I =194 */
(PID.TID 0000.0001)                 3.027399364062562E+05,      /* I =195 */
(PID.TID 0000.0001)                 3.039990657490951E+05,      /* I =196 */
(PID.TID 0000.0001)                 3.055938607351786E+05,      /* I =197 */
(PID.TID 0000.0001)                 3.074582577767738E+05,      /* I =198 */
(PID.TID 0000.0001)                 3.095164322685570E+05,      /* I =199 */
(PID.TID 0000.0001)                 3.116863538419811E+05,      /* I =200 */
(PID.TID 0000.0001)                 3.138833384868975E+05,      /* I =201 */
(PID.TID 0000.0001)                 3.160234197751047E+05,      /* I =202 */
(PID.TID 0000.0001)                 3.180264208293543E+05,      /* I =203 */
(PID.TID 0000.0001)                 3.198186602283748E+05,      /* I =204 */
(PID.TID 0000.0001)                 3.213352627063766E+05,      /* I =205 */
(PID.TID 0000.0001)                 3.225220686282585E+05,      /* I =206 */
(PID.TID 0000.0001)                 3.233371474853745E+05,      /* I =207 */
(PID.TID 0000.0001)     2 @  3.237519587277332E+05,             /* I =208:209 */
(PID.TID 0000.0001)                 3.233371474853745E+05,      /* I =210 */
(PID.TID 0000.0001)                 3.225220686282585E+05,      /* I =211 */
(PID.TID 0000.0001)                 3.213352627063766E+05,      /* I =212 */
(PID.TID 0000.0001)                 3.198186602283748E+05,      /* I =213 */
(PID.TID 0000.0001)                 3.180264208293543E+05,      /* I =214 */
(PID.TID 0000.0001)                 3.160234197751047E+05,      /* I =215 */
(PID.TID 0000.0001)                 3.138833384868975E+05,      /* I =216 */
(PID.TID 0000.0001)                 3.116863538419811E+05,      /* I =217 */
(PID.TID 0000.0001)                 3.095164322685570E+05,      /* I =218 */
(PID.TID 0000.0001)                 3.074582577767738E+05,      /* I =219 */
(PID.TID 0000.0001)                 3.055938607351786E+05,      /* I =220 */
(PID.TID 0000.0001)                 3.039990657490951E+05,      /* I =221 */
(PID.TID 0000.0001)                 3.027399364062562E+05,      /* I =222 */
(PID.TID 0000.0001)                 3.018694497480782E+05,      /* I =223 */
(PID.TID 0000.0001)                 3.014246674484008E+05,      /* I =224 */
(PID.TID 0000.0001)                 2.648750305193301E+05,      /* I =225 */
(PID.TID 0000.0001)                 2.661181018072810E+05,      /* I =226 */
(PID.TID 0000.0001)                 2.684951411609472E+05,      /* I =227 */
(PID.TID 0000.0001)                 2.718130194543262E+05,      /* I =228 */
(PID.TID 0000.0001)                 2.758327097123360E+05,      /* I =229 */
(PID.TID 0000.0001)                 2.803055238380586E+05,      /* I =230 */
(PID.TID 0000.0001)                 2.849983456747301E+05,      /* I =231 */
(PID.TID 0000.0001)                 2.897064557701324E+05,      /* I =232 */
(PID.TID 0000.0001)                 2.942570946491559E+05,      /* I =233 */
(PID.TID 0000.0001)                 2.985078462652251E+05,      /* I =234 */
(PID.TID 0000.0001)                 3.023429734268671E+05,      /* I =235 */
(PID.TID 0000.0001)                 3.056695262148454E+05,      /* I =236 */
(PID.TID 0000.0001)                 3.084140431300752E+05,      /* I =237 */
(PID.TID 0000.0001)                 3.105200753220973E+05,      /* I =238 */
(PID.TID 0000.0001)                 3.119464819293889E+05,      /* I =239 */
(PID.TID 0000.0001)     2 @  3.126663860714039E+05,             /* I =240:241 */
(PID.TID 0000.0001)                 3.119464819293889E+05,      /* I =242 */
(PID.TID 0000.0001)                 3.105200753220973E+05,      /* I =243 */
(PID.TID 0000.0001)                 3.084140431300752E+05,      /* I =244 */
(PID.TID 0000.0001)                 3.056695262148454E+05,      /* I =245 */
(PID.TID 0000.0001)                 3.023429734268671E+05,      /* I =246 */
(PID.TID 0000.0001)                 2.985078462652251E+05,      /* I =247 */
(PID.TID 0000.0001)                 2.942570946491559E+05,      /* I =248 */
(PID.TID 0000.0001)                 2.897064557701324E+05,      /* I =249 */
(PID.TID 0000.0001)                 2.849983456747301E+05,      /* I =250 */
(PID.TID 0000.0001)                 2.803055238380586E+05,      /* I =251 */
(PID.TID 0000.0001)                 2.758327097123360E+05,      /* I =252 */
(PID.TID 0000.0001)                 2.718130194543262E+05,      /* I =253 */
(PID.TID 0000.0001)                 2.684951411609472E+05,      /* I =254 */
(PID.TID 0000.0001)                 2.661181018072810E+05,      /* I =255 */
(PID.TID 0000.0001)                 2.648750305193301E+05,      /* I =256 */
(PID.TID 0000.0001)                 1.009837800879055E+05,      /* I =257 */
(PID.TID 0000.0001)                 1.534505834330338E+05,      /* I =258 */
(PID.TID 0000.0001)                 1.823321598773926E+05,      /* I =259 */
(PID.TID 0000.0001)                 2.038999045536999E+05,      /* I =260 */
(PID.TID 0000.0001)                 2.213884732245467E+05,      /* I =261 */
(PID.TID 0000.0001)                 2.361211699596122E+05,      /* I =262 */
(PID.TID 0000.0001)                 2.487693460283865E+05,      /* I =263 */
(PID.TID 0000.0001)                 2.597126963772147E+05,      /* I =264 */
(PID.TID 0000.0001)                 2.691790288994575E+05,      /* I =265 */
(PID.TID 0000.0001)                 2.773091043277394E+05,      /* I =266 */
(PID.TID 0000.0001)                 2.841906470085516E+05,      /* I =267 */
(PID.TID 0000.0001)                 2.898778860929753E+05,      /* I =268 */
(PID.TID 0000.0001)                 2.944035815526416E+05,      /* I =269 */
(PID.TID 0000.0001)                 2.977867909042096E+05,      /* I =270 */
(PID.TID 0000.0001)                 3.000380090330854E+05,      /* I =271 */
(PID.TID 0000.0001)     2 @  3.011625828699101E+05,             /* I =272:273 */
(PID.TID 0000.0001)                 3.000380090330854E+05,      /* I =274 */
(PID.TID 0000.0001)                 2.977867909042096E+05,      /* I =275 */
(PID.TID 0000.0001)                 2.944035815526416E+05,      /* I =276 */
(PID.TID 0000.0001)                 2.898778860929753E+05,      /* I =277 */
(PID.TID 0000.0001)                 2.841906470085516E+05,      /* I =278 */
(PID.TID 0000.0001)                 2.773091043277394E+05,      /* I =279 */
(PID.TID 0000.0001)                 2.691790288994575E+05,      /* I =280 */
(PID.TID 0000.0001)                 2.597126963772147E+05,      /* I =281 */
(PID.TID 0000.0001)                 2.487693460283865E+05,      /* I =282 */
(PID.TID 0000.0001)                 2.361211699596122E+05,      /* I =283 */
(PID.TID 0000.0001)                 2.213884732245467E+05,      /* I =284 */
(PID.TID 0000.0001)                 2.038999045536999E+05,      /* I =285 */
(PID.TID 0000.0001)                 1.823321598773926E+05,      /* I =286 */
(PID.TID 0000.0001)                 1.534505834330338E+05,      /* I =287 */
(PID.TID 0000.0001)                 1.009837800879055E+05,      /* I =288 */
(PID.TID 0000.0001)                 2.648750305193301E+05,      /* I =289 */
(PID.TID 0000.0001)                 2.661181018072810E+05,      /* I =290 */
(PID.TID 0000.0001)                 2.684951411609472E+05,      /* I =291 */
(PID.TID 0000.0001)                 2.718130194543262E+05,      /* I =292 */
(PID.TID 0000.0001)                 2.758327097123360E+05,      /* I =293 */
(PID.TID 0000.0001)                 2.803055238380586E+05,      /* I =294 */
(PID.TID 0000.0001)                 2.849983456747301E+05,      /* I =295 */
(PID.TID 0000.0001)                 2.897064557701324E+05,      /* I =296 */
(PID.TID 0000.0001)                 2.942570946491559E+05,      /* I =297 */
(PID.TID 0000.0001)                 2.985078462652251E+05,      /* I =298 */
(PID.TID 0000.0001)                 3.023429734268671E+05,      /* I =299 */
(PID.TID 0000.0001)                 3.056695262148454E+05,      /* I =300 */
(PID.TID 0000.0001)                 3.084140431300752E+05,      /* I =301 */
(PID.TID 0000.0001)                 3.105200753220973E+05,      /* I =302 */
(PID.TID 0000.0001)                 3.119464819293889E+05,      /* I =303 */
(PID.TID 0000.0001)     2 @  3.126663860714039E+05,             /* I =304:305 */
(PID.TID 0000.0001)                 3.119464819293889E+05,      /* I =306 */
(PID.TID 0000.0001)                 3.105200753220973E+05,      /* I =307 */
(PID.TID 0000.0001)                 3.084140431300752E+05,      /* I =308 */
(PID.TID 0000.0001)                 3.056695262148454E+05,      /* I =309 */
(PID.TID 0000.0001)                 3.023429734268671E+05,      /* I =310 */
(PID.TID 0000.0001)                 2.985078462652251E+05,      /* I =311 */
(PID.TID 0000.0001)                 2.942570946491559E+05,      /* I =312 */
(PID.TID 0000.0001)                 2.897064557701324E+05,      /* I =313 */
(PID.TID 0000.0001)                 2.849983456747301E+05,      /* I =314 */
(PID.TID 0000.0001)                 2.803055238380586E+05,      /* I =315 */
(PID.TID 0000.0001)                 2.758327097123360E+05,      /* I =316 */
(PID.TID 0000.0001)                 2.718130194543262E+05,      /* I =317 */
(PID.TID 0000.0001)                 2.684951411609472E+05,      /* I =318 */
(PID.TID 0000.0001)                 2.661181018072810E+05,      /* I =319 */
(PID.TID 0000.0001)                 2.648750305193301E+05,      /* I =320 */
(PID.TID 0000.0001)                 3.014246674484008E+05,      /* I =321 */
(PID.TID 0000.0001)                 3.018694497480782E+05,      /* I =322 */
(PID.TID 0000.0001)                 3.027399364062562E+05,      /* I =323 */
(PID.TID 0000.0001)                 3.039990657490951E+05,      /* I =324 */
(PID.TID 0000.0001)                 3.055938607351786E+05,      /* I =325 */
(PID.TID 0000.0001)                 3.074582577767738E+05,      /* I =326 */
(PID.TID 0000.0001)                 3.095164322685570E+05,      /* I =327 */
(PID.TID 0000.0001)                 3.116863538419811E+05,      /* I =328 */
(PID.TID 0000.0001)                 3.138833384868975E+05,      /* I =329 */
(PID.TID 0000.0001)                 3.160234197751047E+05,      /* I =330 */
(PID.TID 0000.0001)                 3.180264208293543E+05,      /* I =331 */
(PID.TID 0000.0001)                 3.198186602283748E+05,      /* I =332 */
(PID.TID 0000.0001)                 3.213352627063766E+05,      /* I =333 */
(PID.TID 0000.0001)                 3.225220686282585E+05,      /* I =334 */
(PID.TID 0000.0001)                 3.233371474853745E+05,      /* I =335 */
(PID.TID 0000.0001)     2 @  3.237519587277332E+05,             /* I =336:337 */
(PID.TID 0000.0001)                 3.233371474853745E+05,      /* I =338 */
(PID.TID 0000.0001)                 3.225220686282585E+05,      /* I =339 */
(PID.TID 0000.0001)                 3.213352627063766E+05,      /* I =340 */
(PID.TID 0000.0001)                 3.198186602283748E+05,      /* I =341 */
(PID.TID 0000.0001)                 3.180264208293543E+05,      /* I =342 */
(PID.TID 0000.0001)                 3.160234197751047E+05,      /* I =343 */
(PID.TID 0000.0001)                 3.138833384868975E+05,      /* I =344 */
(PID.TID 0000.0001)                 3.116863538419811E+05,      /* I =345 */
(PID.TID 0000.0001)                 3.095164322685570E+05,      /* I =346 */
(PID.TID 0000.0001)                 3.074582577767738E+05,      /* I =347 */
(PID.TID 0000.0001)                 3.055938607351786E+05,      /* I =348 */
(PID.TID 0000.0001)                 3.039990657490951E+05,      /* I =349 */
(PID.TID 0000.0001)                 3.027399364062562E+05,      /* I =350 */
(PID.TID 0000.0001)                 3.018694497480782E+05,      /* I =351 */
(PID.TID 0000.0001)                 3.014246674484008E+05,      /* I =352 */
(PID.TID 0000.0001)                 2.648750305193301E+05,      /* I =353 */
(PID.TID 0000.0001)                 2.661181018072810E+05,      /* I =354 */
(PID.TID 0000.0001)                 2.684951411609472E+05,      /* I =355 */
(PID.TID 0000.0001)                 2.718130194543262E+05,      /* I =356 */
(PID.TID 0000.0001)                 2.758327097123360E+05,      /* I =357 */
(PID.TID 0000.0001)                 2.803055238380586E+05,      /* I =358 */
(PID.TID 0000.0001)                 2.849983456747301E+05,      /* I =359 */
(PID.TID 0000.0001)                 2.897064557701324E+05,      /* I =360 */
(PID.TID 0000.0001)                 2.942570946491559E+05,      /* I =361 */
(PID.TID 0000.0001)                 2.985078462652251E+05,      /* I =362 */
(PID.TID 0000.0001)                 3.023429734268671E+05,      /* I =363 */
(PID.TID 0000.0001)                 3.056695262148454E+05,      /* I =364 */
(PID.TID 0000.0001)                 3.084140431300752E+05,      /* I =365 */
(PID.TID 0000.0001)                 3.105200753220973E+05,      /* I =366 */
(PID.TID 0000.0001)                 3.119464819293889E+05,      /* I =367 */
(PID.TID 0000.0001)     2 @  3.126663860714039E+05,             /* I =368:369 */
(PID.TID 0000.0001)                 3.119464819293889E+05,      /* I =370 */
(PID.TID 0000.0001)                 3.105200753220973E+05,      /* I =371 */
(PID.TID 0000.0001)                 3.084140431300752E+05,      /* I =372 */
(PID.TID 0000.0001)                 3.056695262148454E+05,      /* I =373 */
(PID.TID 0000.0001)                 3.023429734268671E+05,      /* I =374 */
(PID.TID 0000.0001)                 2.985078462652251E+05,      /* I =375 */
(PID.TID 0000.0001)                 2.942570946491559E+05,      /* I =376 */
(PID.TID 0000.0001)                 2.897064557701324E+05,      /* I =377 */
(PID.TID 0000.0001)                 2.849983456747301E+05,      /* I =378 */
(PID.TID 0000.0001)                 2.803055238380586E+05,      /* I =379 */
(PID.TID 0000.0001)                 2.758327097123360E+05,      /* I =380 */
(PID.TID 0000.0001)                 2.718130194543262E+05,      /* I =381 */
(PID.TID 0000.0001)                 2.684951411609472E+05,      /* I =382 */
(PID.TID 0000.0001)                 2.661181018072810E+05,      /* I =383 */
(PID.TID 0000.0001)                 2.648750305193301E+05,      /* I =384 */
(PID.TID 0000.0001)                 1.009837800879055E+05,      /* I =385 */
(PID.TID 0000.0001)                 1.534505834330338E+05,      /* I =386 */
(PID.TID 0000.0001)                 1.823321598773926E+05,      /* I =387 */
(PID.TID 0000.0001)                 2.038999045536999E+05,      /* I =388 */
(PID.TID 0000.0001)                 2.213884732245467E+05,      /* I =389 */
(PID.TID 0000.0001)                 2.361211699596122E+05,      /* I =390 */
(PID.TID 0000.0001)                 2.487693460283865E+05,      /* I =391 */
(PID.TID 0000.0001)                 2.597126963772147E+05,      /* I =392 */
(PID.TID 0000.0001)                 2.691790288994575E+05,      /* I =393 */
(PID.TID 0000.0001)                 2.773091043277394E+05,      /* I =394 */
(PID.TID 0000.0001)                 2.841906470085516E+05,      /* I =395 */
(PID.TID 0000.0001)                 2.898778860929753E+05,      /* I =396 */
(PID.TID 0000.0001)                 2.944035815526416E+05,      /* I =397 */
(PID.TID 0000.0001)                 2.977867909042096E+05,      /* I =398 */
(PID.TID 0000.0001)                 3.000380090330854E+05,      /* I =399 */
(PID.TID 0000.0001)     2 @  3.011625828699101E+05,             /* I =400:401 */
(PID.TID 0000.0001)                 3.000380090330854E+05,      /* I =402 */
(PID.TID 0000.0001)                 2.977867909042096E+05,      /* I =403 */
(PID.TID 0000.0001)                 2.944035815526416E+05,      /* I =404 */
(PID.TID 0000.0001)                 2.898778860929753E+05,      /* I =405 */
(PID.TID 0000.0001)                 2.841906470085516E+05,      /* I =406 */
(PID.TID 0000.0001)                 2.773091043277394E+05,      /* I =407 */
(PID.TID 0000.0001)                 2.691790288994575E+05,      /* I =408 */
(PID.TID 0000.0001)                 2.597126963772147E+05,      /* I =409 */
(PID.TID 0000.0001)                 2.487693460283865E+05,      /* I =410 */
(PID.TID 0000.0001)                 2.361211699596122E+05,      /* I =411 */
(PID.TID 0000.0001)                 2.213884732245467E+05,      /* I =412 */
(PID.TID 0000.0001)                 2.038999045536999E+05,      /* I =413 */
(PID.TID 0000.0001)                 1.823321598773926E+05,      /* I =414 */
(PID.TID 0000.0001)                 1.534505834330338E+05,      /* I =415 */
(PID.TID 0000.0001)                 1.009837800879055E+05,      /* I =416 */
(PID.TID 0000.0001)                 2.648750305193301E+05,      /* I =417 */
(PID.TID 0000.0001)                 2.661181018072810E+05,      /* I =418 */
(PID.TID 0000.0001)                 2.684951411609472E+05,      /* I =419 */
(PID.TID 0000.0001)                 2.718130194543262E+05,      /* I =420 */
(PID.TID 0000.0001)                 2.758327097123360E+05,      /* I =421 */
(PID.TID 0000.0001)                 2.803055238380586E+05,      /* I =422 */
(PID.TID 0000.0001)                 2.849983456747301E+05,      /* I =423 */
(PID.TID 0000.0001)                 2.897064557701324E+05,      /* I =424 */
(PID.TID 0000.0001)                 2.942570946491559E+05,      /* I =425 */
(PID.TID 0000.0001)                 2.985078462652251E+05,      /* I =426 */
(PID.TID 0000.0001)                 3.023429734268671E+05,      /* I =427 */
(PID.TID 0000.0001)                 3.056695262148454E+05,      /* I =428 */
(PID.TID 0000.0001)                 3.084140431300752E+05,      /* I =429 */
(PID.TID 0000.0001)                 3.105200753220973E+05,      /* I =430 */
(PID.TID 0000.0001)                 3.119464819293889E+05,      /* I =431 */
(PID.TID 0000.0001)     2 @  3.126663860714039E+05,             /* I =432:433 */
(PID.TID 0000.0001)                 3.119464819293889E+05,      /* I =434 */
(PID.TID 0000.0001)                 3.105200753220973E+05,      /* I =435 */
(PID.TID 0000.0001)                 3.084140431300752E+05,      /* I =436 */
(PID.TID 0000.0001)                 3.056695262148454E+05,      /* I =437 */
(PID.TID 0000.0001)                 3.023429734268671E+05,      /* I =438 */
(PID.TID 0000.0001)                 2.985078462652251E+05,      /* I =439 */
(PID.TID 0000.0001)                 2.942570946491559E+05,      /* I =440 */
(PID.TID 0000.0001)                 2.897064557701324E+05,      /* I =441 */
(PID.TID 0000.0001)                 2.849983456747301E+05,      /* I =442 */
(PID.TID 0000.0001)                 2.803055238380586E+05,      /* I =443 */
(PID.TID 0000.0001)                 2.758327097123360E+05,      /* I =444 */
(PID.TID 0000.0001)                 2.718130194543262E+05,      /* I =445 */
(PID.TID 0000.0001)                 2.684951411609472E+05,      /* I =446 */
(PID.TID 0000.0001)                 2.661181018072810E+05,      /* I =447 */
(PID.TID 0000.0001)                 2.648750305193301E+05,      /* I =448 */
(PID.TID 0000.0001)                 3.014246674484008E+05,      /* I =449 */
(PID.TID 0000.0001)                 3.018694497480782E+05,      /* I =450 */
(PID.TID 0000.0001)                 3.027399364062562E+05,      /* I =451 */
(PID.TID 0000.0001)                 3.039990657490951E+05,      /* I =452 */
(PID.TID 0000.0001)                 3.055938607351786E+05,      /* I =453 */
(PID.TID 0000.0001)                 3.074582577767738E+05,      /* I =454 */
(PID.TID 0000.0001)                 3.095164322685570E+05,      /* I =455 */
(PID.TID 0000.0001)                 3.116863538419811E+05,      /* I =456 */
(PID.TID 0000.0001)                 3.138833384868975E+05,      /* I =457 */
(PID.TID 0000.0001)                 3.160234197751047E+05,      /* I =458 */
(PID.TID 0000.0001)                 3.180264208293543E+05,      /* I =459 */
(PID.TID 0000.0001)                 3.198186602283748E+05,      /* I =460 */
(PID.TID 0000.0001)                 3.213352627063766E+05,      /* I =461 */
(PID.TID 0000.0001)                 3.225220686282585E+05,      /* I =462 */
(PID.TID 0000.0001)                 3.233371474853745E+05,      /* I =463 */
(PID.TID 0000.0001)     2 @  3.237519587277332E+05,             /* I =464:465 */
(PID.TID 0000.0001)                 3.233371474853745E+05,      /* I =466 */
(PID.TID 0000.0001)                 3.225220686282585E+05,      /* I =467 */
(PID.TID 0000.0001)                 3.213352627063766E+05,      /* I =468 */
(PID.TID 0000.0001)                 3.198186602283748E+05,      /* I =469 */
(PID.TID 0000.0001)                 3.180264208293543E+05,      /* I =470 */
(PID.TID 0000.0001)                 3.160234197751047E+05,      /* I =471 */
(PID.TID 0000.0001)                 3.138833384868975E+05,      /* I =472 */
(PID.TID 0000.0001)                 3.116863538419811E+05,      /* I =473 */
(PID.TID 0000.0001)                 3.095164322685570E+05,      /* I =474 */
(PID.TID 0000.0001)                 3.074582577767738E+05,      /* I =475 */
(PID.TID 0000.0001)                 3.055938607351786E+05,      /* I =476 */
(PID.TID 0000.0001)                 3.039990657490951E+05,      /* I =477 */
(PID.TID 0000.0001)                 3.027399364062562E+05,      /* I =478 */
(PID.TID 0000.0001)                 3.018694497480782E+05,      /* I =479 */
(PID.TID 0000.0001)                 3.014246674484008E+05,      /* I =480 */
(PID.TID 0000.0001)                 2.648750305193301E+05,      /* I =481 */
(PID.TID 0000.0001)                 2.661181018072810E+05,      /* I =482 */
(PID.TID 0000.0001)                 2.684951411609472E+05,      /* I =483 */
(PID.TID 0000.0001)                 2.718130194543262E+05,      /* I =484 */
(PID.TID 0000.0001)                 2.758327097123360E+05,      /* I =485 */
(PID.TID 0000.0001)                 2.803055238380586E+05,      /* I =486 */
(PID.TID 0000.0001)                 2.849983456747301E+05,      /* I =487 */
(PID.TID 0000.0001)                 2.897064557701324E+05,      /* I =488 */
(PID.TID 0000.0001)                 2.942570946491559E+05,      /* I =489 */
(PID.TID 0000.0001)                 2.985078462652251E+05,      /* I =490 */
(PID.TID 0000.0001)                 3.023429734268671E+05,      /* I =491 */
(PID.TID 0000.0001)                 3.056695262148454E+05,      /* I =492 */
(PID.TID 0000.0001)                 3.084140431300752E+05,      /* I =493 */
(PID.TID 0000.0001)                 3.105200753220973E+05,      /* I =494 */
(PID.TID 0000.0001)                 3.119464819293889E+05,      /* I =495 */
(PID.TID 0000.0001)     2 @  3.126663860714039E+05,             /* I =496:497 */
(PID.TID 0000.0001)                 3.119464819293889E+05,      /* I =498 */
(PID.TID 0000.0001)                 3.105200753220973E+05,      /* I =499 */
(PID.TID 0000.0001)                 3.084140431300752E+05,      /* I =500 */
(PID.TID 0000.0001)                 3.056695262148454E+05,      /* I =501 */
(PID.TID 0000.0001)                 3.023429734268671E+05,      /* I =502 */
(PID.TID 0000.0001)                 2.985078462652251E+05,      /* I =503 */
(PID.TID 0000.0001)                 2.942570946491559E+05,      /* I =504 */
(PID.TID 0000.0001)                 2.897064557701324E+05,      /* I =505 */
(PID.TID 0000.0001)                 2.849983456747301E+05,      /* I =506 */
(PID.TID 0000.0001)                 2.803055238380586E+05,      /* I =507 */
(PID.TID 0000.0001)                 2.758327097123360E+05,      /* I =508 */
(PID.TID 0000.0001)                 2.718130194543262E+05,      /* I =509 */
(PID.TID 0000.0001)                 2.684951411609472E+05,      /* I =510 */
(PID.TID 0000.0001)                 2.661181018072810E+05,      /* I =511 */
(PID.TID 0000.0001)                 2.648750305193301E+05,      /* I =512 */
(PID.TID 0000.0001)                 1.009837800879055E+05,      /* I =513 */
(PID.TID 0000.0001)                 1.534505834330338E+05,      /* I =514 */
(PID.TID 0000.0001)                 1.823321598773926E+05,      /* I =515 */
(PID.TID 0000.0001)                 2.038999045536999E+05,      /* I =516 */
(PID.TID 0000.0001)                 2.213884732245467E+05,      /* I =517 */
(PID.TID 0000.0001)                 2.361211699596122E+05,      /* I =518 */
(PID.TID 0000.0001)                 2.487693460283865E+05,      /* I =519 */
(PID.TID 0000.0001)                 2.597126963772147E+05,      /* I =520 */
(PID.TID 0000.0001)                 2.691790288994575E+05,      /* I =521 */
(PID.TID 0000.0001)                 2.773091043277394E+05,      /* I =522 */
(PID.TID 0000.0001)                 2.841906470085516E+05,      /* I =523 */
(PID.TID 0000.0001)                 2.898778860929753E+05,      /* I =524 */
(PID.TID 0000.0001)                 2.944035815526416E+05,      /* I =525 */
(PID.TID 0000.0001)                 2.977867909042096E+05,      /* I =526 */
(PID.TID 0000.0001)                 3.000380090330854E+05,      /* I =527 */
(PID.TID 0000.0001)     2 @  3.011625828699101E+05,             /* I =528:529 */
(PID.TID 0000.0001)                 3.000380090330854E+05,      /* I =530 */
(PID.TID 0000.0001)                 2.977867909042096E+05,      /* I =531 */
(PID.TID 0000.0001)                 2.944035815526416E+05,      /* I =532 */
(PID.TID 0000.0001)                 2.898778860929753E+05,      /* I =533 */
(PID.TID 0000.0001)                 2.841906470085516E+05,      /* I =534 */
(PID.TID 0000.0001)                 2.773091043277394E+05,      /* I =535 */
(PID.TID 0000.0001)                 2.691790288994575E+05,      /* I =536 */
(PID.TID 0000.0001)                 2.597126963772147E+05,      /* I =537 */
(PID.TID 0000.0001)                 2.487693460283865E+05,      /* I =538 */
(PID.TID 0000.0001)                 2.361211699596122E+05,      /* I =539 */
(PID.TID 0000.0001)                 2.213884732245467E+05,      /* I =540 */
(PID.TID 0000.0001)                 2.038999045536999E+05,      /* I =541 */
(PID.TID 0000.0001)                 1.823321598773926E+05,      /* I =542 */
(PID.TID 0000.0001)                 1.534505834330338E+05,      /* I =543 */
(PID.TID 0000.0001)                 1.009837800879055E+05,      /* I =544 */
(PID.TID 0000.0001)                 2.648750305193301E+05,      /* I =545 */
(PID.TID 0000.0001)                 2.661181018072810E+05,      /* I =546 */
(PID.TID 0000.0001)                 2.684951411609472E+05,      /* I =547 */
(PID.TID 0000.0001)                 2.718130194543262E+05,      /* I =548 */
(PID.TID 0000.0001)                 2.758327097123360E+05,      /* I =549 */
(PID.TID 0000.0001)                 2.803055238380586E+05,      /* I =550 */
(PID.TID 0000.0001)                 2.849983456747301E+05,      /* I =551 */
(PID.TID 0000.0001)                 2.897064557701324E+05,      /* I =552 */
(PID.TID 0000.0001)                 2.942570946491559E+05,      /* I =553 */
(PID.TID 0000.0001)                 2.985078462652251E+05,      /* I =554 */
(PID.TID 0000.0001)                 3.023429734268671E+05,      /* I =555 */
(PID.TID 0000.0001)                 3.056695262148454E+05,      /* I =556 */
(PID.TID 0000.0001)                 3.084140431300752E+05,      /* I =557 */
(PID.TID 0000.0001)                 3.105200753220973E+05,      /* I =558 */
(PID.TID 0000.0001)                 3.119464819293889E+05,      /* I =559 */
(PID.TID 0000.0001)     2 @  3.126663860714039E+05,             /* I =560:561 */
(PID.TID 0000.0001)                 3.119464819293889E+05,      /* I =562 */
(PID.TID 0000.0001)                 3.105200753220973E+05,      /* I =563 */
(PID.TID 0000.0001)                 3.084140431300752E+05,      /* I =564 */
(PID.TID 0000.0001)                 3.056695262148454E+05,      /* I =565 */
(PID.TID 0000.0001)                 3.023429734268671E+05,      /* I =566 */
(PID.TID 0000.0001)                 2.985078462652251E+05,      /* I =567 */
(PID.TID 0000.0001)                 2.942570946491559E+05,      /* I =568 */
(PID.TID 0000.0001)                 2.897064557701324E+05,      /* I =569 */
(PID.TID 0000.0001)                 2.849983456747301E+05,      /* I =570 */
(PID.TID 0000.0001)                 2.803055238380586E+05,      /* I =571 */
(PID.TID 0000.0001)                 2.758327097123360E+05,      /* I =572 */
(PID.TID 0000.0001)                 2.718130194543262E+05,      /* I =573 */
(PID.TID 0000.0001)                 2.684951411609472E+05,      /* I =574 */
(PID.TID 0000.0001)                 2.661181018072810E+05,      /* I =575 */
(PID.TID 0000.0001)                 2.648750305193301E+05,      /* I =576 */
(PID.TID 0000.0001)                 3.014246674484008E+05,      /* I =577 */
(PID.TID 0000.0001)                 3.018694497480782E+05,      /* I =578 */
(PID.TID 0000.0001)                 3.027399364062562E+05,      /* I =579 */
(PID.TID 0000.0001)                 3.039990657490951E+05,      /* I =580 */
(PID.TID 0000.0001)                 3.055938607351786E+05,      /* I =581 */
(PID.TID 0000.0001)                 3.074582577767738E+05,      /* I =582 */
(PID.TID 0000.0001)                 3.095164322685570E+05,      /* I =583 */
(PID.TID 0000.0001)                 3.116863538419811E+05,      /* I =584 */
(PID.TID 0000.0001)                 3.138833384868975E+05,      /* I =585 */
(PID.TID 0000.0001)                 3.160234197751047E+05,      /* I =586 */
(PID.TID 0000.0001)                 3.180264208293543E+05,      /* I =587 */
(PID.TID 0000.0001)                 3.198186602283748E+05,      /* I =588 */
(PID.TID 0000.0001)                 3.213352627063766E+05,      /* I =589 */
(PID.TID 0000.0001)                 3.225220686282585E+05,      /* I =590 */
(PID.TID 0000.0001)                 3.233371474853745E+05,      /* I =591 */
(PID.TID 0000.0001)     2 @  3.237519587277332E+05,             /* I =592:593 */
(PID.TID 0000.0001)                 3.233371474853745E+05,      /* I =594 */
(PID.TID 0000.0001)                 3.225220686282585E+05,      /* I =595 */
(PID.TID 0000.0001)                 3.213352627063766E+05,      /* I =596 */
(PID.TID 0000.0001)                 3.198186602283748E+05,      /* I =597 */
(PID.TID 0000.0001)                 3.180264208293543E+05,      /* I =598 */
(PID.TID 0000.0001)                 3.160234197751047E+05,      /* I =599 */
(PID.TID 0000.0001)                 3.138833384868975E+05,      /* I =600 */
(PID.TID 0000.0001)                 3.116863538419811E+05,      /* I =601 */
(PID.TID 0000.0001)                 3.095164322685570E+05,      /* I =602 */
(PID.TID 0000.0001)                 3.074582577767738E+05,      /* I =603 */
(PID.TID 0000.0001)                 3.055938607351786E+05,      /* I =604 */
(PID.TID 0000.0001)                 3.039990657490951E+05,      /* I =605 */
(PID.TID 0000.0001)                 3.027399364062562E+05,      /* I =606 */
(PID.TID 0000.0001)                 3.018694497480782E+05,      /* I =607 */
(PID.TID 0000.0001)                 3.014246674484008E+05,      /* I =608 */
(PID.TID 0000.0001)                 2.648750305193301E+05,      /* I =609 */
(PID.TID 0000.0001)                 2.661181018072810E+05,      /* I =610 */
(PID.TID 0000.0001)                 2.684951411609472E+05,      /* I =611 */
(PID.TID 0000.0001)                 2.718130194543262E+05,      /* I =612 */
(PID.TID 0000.0001)                 2.758327097123360E+05,      /* I =613 */
(PID.TID 0000.0001)                 2.803055238380586E+05,      /* I =614 */
(PID.TID 0000.0001)                 2.849983456747301E+05,      /* I =615 */
(PID.TID 0000.0001)                 2.897064557701324E+05,      /* I =616 */
(PID.TID 0000.0001)                 2.942570946491559E+05,      /* I =617 */
(PID.TID 0000.0001)                 2.985078462652251E+05,      /* I =618 */
(PID.TID 0000.0001)                 3.023429734268671E+05,      /* I =619 */
(PID.TID 0000.0001)                 3.056695262148454E+05,      /* I =620 */
(PID.TID 0000.0001)                 3.084140431300752E+05,      /* I =621 */
(PID.TID 0000.0001)                 3.105200753220973E+05,      /* I =622 */
(PID.TID 0000.0001)                 3.119464819293889E+05,      /* I =623 */
(PID.TID 0000.0001)     2 @  3.126663860714039E+05,             /* I =624:625 */
(PID.TID 0000.0001)                 3.119464819293889E+05,      /* I =626 */
(PID.TID 0000.0001)                 3.105200753220973E+05,      /* I =627 */
(PID.TID 0000.0001)                 3.084140431300752E+05,      /* I =628 */
(PID.TID 0000.0001)                 3.056695262148454E+05,      /* I =629 */
(PID.TID 0000.0001)                 3.023429734268671E+05,      /* I =630 */
(PID.TID 0000.0001)                 2.985078462652251E+05,      /* I =631 */
(PID.TID 0000.0001)                 2.942570946491559E+05,      /* I =632 */
(PID.TID 0000.0001)                 2.897064557701324E+05,      /* I =633 */
(PID.TID 0000.0001)                 2.849983456747301E+05,      /* I =634 */
(PID.TID 0000.0001)                 2.803055238380586E+05,      /* I =635 */
(PID.TID 0000.0001)                 2.758327097123360E+05,      /* I =636 */
(PID.TID 0000.0001)                 2.718130194543262E+05,      /* I =637 */
(PID.TID 0000.0001)                 2.684951411609472E+05,      /* I =638 */
(PID.TID 0000.0001)                 2.661181018072810E+05,      /* I =639 */
(PID.TID 0000.0001)                 2.648750305193301E+05,      /* I =640 */
(PID.TID 0000.0001)                 1.009837800879055E+05,      /* I =641 */
(PID.TID 0000.0001)                 1.534505834330338E+05,      /* I =642 */
(PID.TID 0000.0001)                 1.823321598773926E+05,      /* I =643 */
(PID.TID 0000.0001)                 2.038999045536999E+05,      /* I =644 */
(PID.TID 0000.0001)                 2.213884732245467E+05,      /* I =645 */
(PID.TID 0000.0001)                 2.361211699596122E+05,      /* I =646 */
(PID.TID 0000.0001)                 2.487693460283865E+05,      /* I =647 */
(PID.TID 0000.0001)                 2.597126963772147E+05,      /* I =648 */
(PID.TID 0000.0001)                 2.691790288994575E+05,      /* I =649 */
(PID.TID 0000.0001)                 2.773091043277394E+05,      /* I =650 */
(PID.TID 0000.0001)                 2.841906470085516E+05,      /* I =651 */
(PID.TID 0000.0001)                 2.898778860929753E+05,      /* I =652 */
(PID.TID 0000.0001)                 2.944035815526416E+05,      /* I =653 */
(PID.TID 0000.0001)                 2.977867909042096E+05,      /* I =654 */
(PID.TID 0000.0001)                 3.000380090330854E+05,      /* I =655 */
(PID.TID 0000.0001)     2 @  3.011625828699101E+05,             /* I =656:657 */
(PID.TID 0000.0001)                 3.000380090330854E+05,      /* I =658 */
(PID.TID 0000.0001)                 2.977867909042096E+05,      /* I =659 */
(PID.TID 0000.0001)                 2.944035815526416E+05,      /* I =660 */
(PID.TID 0000.0001)                 2.898778860929753E+05,      /* I =661 */
(PID.TID 0000.0001)                 2.841906470085516E+05,      /* I =662 */
(PID.TID 0000.0001)                 2.773091043277394E+05,      /* I =663 */
(PID.TID 0000.0001)                 2.691790288994575E+05,      /* I =664 */
(PID.TID 0000.0001)                 2.597126963772147E+05,      /* I =665 */
(PID.TID 0000.0001)                 2.487693460283865E+05,      /* I =666 */
(PID.TID 0000.0001)                 2.361211699596122E+05,      /* I =667 */
(PID.TID 0000.0001)                 2.213884732245467E+05,      /* I =668 */
(PID.TID 0000.0001)                 2.038999045536999E+05,      /* I =669 */
(PID.TID 0000.0001)                 1.823321598773926E+05,      /* I =670 */
(PID.TID 0000.0001)                 1.534505834330338E+05,      /* I =671 */
(PID.TID 0000.0001)                 1.009837800879055E+05,      /* I =672 */
(PID.TID 0000.0001)                 2.648750305193301E+05,      /* I =673 */
(PID.TID 0000.0001)                 2.661181018072810E+05,      /* I =674 */
(PID.TID 0000.0001)                 2.684951411609472E+05,      /* I =675 */
(PID.TID 0000.0001)                 2.718130194543262E+05,      /* I =676 */
(PID.TID 0000.0001)                 2.758327097123360E+05,      /* I =677 */
(PID.TID 0000.0001)                 2.803055238380586E+05,      /* I =678 */
(PID.TID 0000.0001)                 2.849983456747301E+05,      /* I =679 */
(PID.TID 0000.0001)                 2.897064557701324E+05,      /* I =680 */
(PID.TID 0000.0001)                 2.942570946491559E+05,      /* I =681 */
(PID.TID 0000.0001)                 2.985078462652251E+05,      /* I =682 */
(PID.TID 0000.0001)                 3.023429734268671E+05,      /* I =683 */
(PID.TID 0000.0001)                 3.056695262148454E+05,      /* I =684 */
(PID.TID 0000.0001)                 3.084140431300752E+05,      /* I =685 */
(PID.TID 0000.0001)                 3.105200753220973E+05,      /* I =686 */
(PID.TID 0000.0001)                 3.119464819293889E+05,      /* I =687 */
(PID.TID 0000.0001)     2 @  3.126663860714039E+05,             /* I =688:689 */
(PID.TID 0000.0001)                 3.119464819293889E+05,      /* I =690 */
(PID.TID 0000.0001)                 3.105200753220973E+05,      /* I =691 */
(PID.TID 0000.0001)                 3.084140431300752E+05,      /* I =692 */
(PID.TID 0000.0001)                 3.056695262148454E+05,      /* I =693 */
(PID.TID 0000.0001)                 3.023429734268671E+05,      /* I =694 */
(PID.TID 0000.0001)                 2.985078462652251E+05,      /* I =695 */
(PID.TID 0000.0001)                 2.942570946491559E+05,      /* I =696 */
(PID.TID 0000.0001)                 2.897064557701324E+05,      /* I =697 */
(PID.TID 0000.0001)                 2.849983456747301E+05,      /* I =698 */
(PID.TID 0000.0001)                 2.803055238380586E+05,      /* I =699 */
(PID.TID 0000.0001)                 2.758327097123360E+05,      /* I =700 */
(PID.TID 0000.0001)                 2.718130194543262E+05,      /* I =701 */
(PID.TID 0000.0001)                 2.684951411609472E+05,      /* I =702 */
(PID.TID 0000.0001)                 2.661181018072810E+05,      /* I =703 */
(PID.TID 0000.0001)                 2.648750305193301E+05,      /* I =704 */
(PID.TID 0000.0001)                 3.014246674484008E+05,      /* I =705 */
(PID.TID 0000.0001)                 3.018694497480782E+05,      /* I =706 */
(PID.TID 0000.0001)                 3.027399364062562E+05,      /* I =707 */
(PID.TID 0000.0001)                 3.039990657490951E+05,      /* I =708 */
(PID.TID 0000.0001)                 3.055938607351786E+05,      /* I =709 */
(PID.TID 0000.0001)                 3.074582577767738E+05,      /* I =710 */
(PID.TID 0000.0001)                 3.095164322685570E+05,      /* I =711 */
(PID.TID 0000.0001)                 3.116863538419811E+05,      /* I =712 */
(PID.TID 0000.0001)                 3.138833384868975E+05,      /* I =713 */
(PID.TID 0000.0001)                 3.160234197751047E+05,      /* I =714 */
(PID.TID 0000.0001)                 3.180264208293543E+05,      /* I =715 */
(PID.TID 0000.0001)                 3.198186602283748E+05,      /* I =716 */
(PID.TID 0000.0001)                 3.213352627063766E+05,      /* I =717 */
(PID.TID 0000.0001)                 3.225220686282585E+05,      /* I =718 */
(PID.TID 0000.0001)                 3.233371474853745E+05,      /* I =719 */
(PID.TID 0000.0001)     2 @  3.237519587277332E+05,             /* I =720:721 */
(PID.TID 0000.0001)                 3.233371474853745E+05,      /* I =722 */
(PID.TID 0000.0001)                 3.225220686282585E+05,      /* I =723 */
(PID.TID 0000.0001)                 3.213352627063766E+05,      /* I =724 */
(PID.TID 0000.0001)                 3.198186602283748E+05,      /* I =725 */
(PID.TID 0000.0001)                 3.180264208293543E+05,      /* I =726 */
(PID.TID 0000.0001)                 3.160234197751047E+05,      /* I =727 */
(PID.TID 0000.0001)                 3.138833384868975E+05,      /* I =728 */
(PID.TID 0000.0001)                 3.116863538419811E+05,      /* I =729 */
(PID.TID 0000.0001)                 3.095164322685570E+05,      /* I =730 */
(PID.TID 0000.0001)                 3.074582577767738E+05,      /* I =731 */
(PID.TID 0000.0001)                 3.055938607351786E+05,      /* I =732 */
(PID.TID 0000.0001)                 3.039990657490951E+05,      /* I =733 */
(PID.TID 0000.0001)                 3.027399364062562E+05,      /* I =734 */
(PID.TID 0000.0001)                 3.018694497480782E+05,      /* I =735 */
(PID.TID 0000.0001)                 3.014246674484008E+05,      /* I =736 */
(PID.TID 0000.0001)                 2.648750305193301E+05,      /* I =737 */
(PID.TID 0000.0001)                 2.661181018072810E+05,      /* I =738 */
(PID.TID 0000.0001)                 2.684951411609472E+05,      /* I =739 */
(PID.TID 0000.0001)                 2.718130194543262E+05,      /* I =740 */
(PID.TID 0000.0001)                 2.758327097123360E+05,      /* I =741 */
(PID.TID 0000.0001)                 2.803055238380586E+05,      /* I =742 */
(PID.TID 0000.0001)                 2.849983456747301E+05,      /* I =743 */
(PID.TID 0000.0001)                 2.897064557701324E+05,      /* I =744 */
(PID.TID 0000.0001)                 2.942570946491559E+05,      /* I =745 */
(PID.TID 0000.0001)                 2.985078462652251E+05,      /* I =746 */
(PID.TID 0000.0001)                 3.023429734268671E+05,      /* I =747 */
(PID.TID 0000.0001)                 3.056695262148454E+05,      /* I =748 */
(PID.TID 0000.0001)                 3.084140431300752E+05,      /* I =749 */
(PID.TID 0000.0001)                 3.105200753220973E+05,      /* I =750 */
(PID.TID 0000.0001)                 3.119464819293889E+05,      /* I =751 */
(PID.TID 0000.0001)     2 @  3.126663860714039E+05,             /* I =752:753 */
(PID.TID 0000.0001)                 3.119464819293889E+05,      /* I =754 */
(PID.TID 0000.0001)                 3.105200753220973E+05,      /* I =755 */
(PID.TID 0000.0001)                 3.084140431300752E+05,      /* I =756 */
(PID.TID 0000.0001)                 3.056695262148454E+05,      /* I =757 */
(PID.TID 0000.0001)                 3.023429734268671E+05,      /* I =758 */
(PID.TID 0000.0001)                 2.985078462652251E+05,      /* I =759 */
(PID.TID 0000.0001)                 2.942570946491559E+05,      /* I =760 */
(PID.TID 0000.0001)                 2.897064557701324E+05,      /* I =761 */
(PID.TID 0000.0001)                 2.849983456747301E+05,      /* I =762 */
(PID.TID 0000.0001)                 2.803055238380586E+05,      /* I =763 */
(PID.TID 0000.0001)                 2.758327097123360E+05,      /* I =764 */
(PID.TID 0000.0001)                 2.718130194543262E+05,      /* I =765 */
(PID.TID 0000.0001)                 2.684951411609472E+05,      /* I =766 */
(PID.TID 0000.0001)                 2.661181018072810E+05,      /* I =767 */
(PID.TID 0000.0001)                 2.648750305193301E+05       /* I =768 */
(PID.TID 0000.0001)     ;
(PID.TID 0000.0001) dxG =  /* dxG(1,:,1,:) ( units: m ) */
(PID.TID 0000.0001)                 1.009837800879055E+05,      /* J =  1 */
(PID.TID 0000.0001)                 1.403701524205398E+05,      /* J =  2 */
(PID.TID 0000.0001)                 1.716197227386011E+05,      /* J =  3 */
(PID.TID 0000.0001)                 1.950254041626018E+05,      /* J =  4 */
(PID.TID 0000.0001)                 2.138410773065497E+05,      /* J =  5 */
(PID.TID 0000.0001)                 2.295958105911512E+05,      /* J =  6 */
(PID.TID 0000.0001)                 2.430829951739083E+05,      /* J =  7 */
(PID.TID 0000.0001)                 2.547526806712889E+05       /* J =  8 */
(PID.TID 0000.0001)     ;
(PID.TID 0000.0001) dyG =  /* dyG(:,1,:,1) ( units: m ) */
(PID.TID 0000.0001)                 1.009837800879055E+05,      /* I =  1 */
(PID.TID 0000.0001)                 1.403701524205398E+05,      /* I =  2 */
(PID.TID 0000.0001)                 1.716197227386011E+05,      /* I =  3 */
(PID.TID 0000.0001)                 1.950254041626018E+05,      /* I =  4 */
(PID.TID 0000.0001)                 2.138410773065497E+05,      /* I =  5 */
(PID.TID 0000.0001)                 2.295958105911512E+05,      /* I =  6 */
(PID.TID 0000.0001)                 2.430829951739083E+05,      /* I =  7 */
(PID.TID 0000.0001)                 2.547526806712889E+05,      /* I =  8 */
(PID.TID 0000.0001)                 2.648750305193301E+05,      /* I =  9 */
(PID.TID 0000.0001)                 2.736173771018112E+05,      /* I = 10 */
(PID.TID 0000.0001)                 2.810845823202647E+05,      /* I = 11 */
(PID.TID 0000.0001)                 2.873420591008078E+05,      /* I = 12 */
(PID.TID 0000.0001)                 2.924298293668651E+05,      /* I = 13 */
(PID.TID 0000.0001)                 2.963715635865306E+05,      /* I = 14 */
(PID.TID 0000.0001)                 2.991805843171258E+05,      /* I = 15 */
(PID.TID 0000.0001)                 3.008638765647886E+05,      /* I = 16 */
(PID.TID 0000.0001)                 3.014246674484008E+05,      /* I = 17 */
(PID.TID 0000.0001)                 3.008638765647886E+05,      /* I = 18 */
(PID.TID 0000.0001)                 2.991805843171258E+05,      /* I = 19 */
(PID.TID 0000.0001)                 2.963715635865306E+05,      /* I = 20 */
(PID.TID 0000.0001)                 2.924298293668651E+05,      /* I = 21 */
(PID.TID 0000.0001)                 2.873420591008078E+05,      /* I = 22 */
(PID.TID 0000.0001)                 2.810845823202647E+05,      /* I = 23 */
(PID.TID 0000.0001)                 2.736173771018112E+05,      /* I = 24 */
(PID.TID 0000.0001)                 2.648750305193301E+05,      /* I = 25 */
(PID.TID 0000.0001)                 2.547526806712889E+05,      /* I = 26 */
(PID.TID 0000.0001)                 2.430829951739083E+05,      /* I = 27 */
(PID.TID 0000.0001)                 2.295958105911512E+05,      /* I = 28 */
(PID.TID 0000.0001)                 2.138410773065497E+05,      /* I = 29 */
(PID.TID 0000.0001)                 1.950254041626018E+05,      /* I = 30 */
(PID.TID 0000.0001)                 1.716197227386011E+05,      /* I = 31 */
(PID.TID 0000.0001)                 1.403701524205398E+05,      /* I = 32 */
(PID.TID 0000.0001)                 2.691790288994575E+05,      /* I = 33 */
(PID.TID 0000.0001)                 2.697440110688748E+05,      /* I = 34 */
(PID.TID 0000.0001)                 2.713923099681594E+05,      /* I = 35 */
(PID.TID 0000.0001)                 2.739940126543603E+05,      /* I = 36 */
(PID.TID 0000.0001)                 2.773613965982297E+05,      /* I = 37 */
(PID.TID 0000.0001)                 2.812793628380409E+05,      /* I = 38 */
(PID.TID 0000.0001)                 2.855313568553036E+05,      /* I = 39 */
(PID.TID 0000.0001)                 2.899163399166100E+05,      /* I = 40 */
(PID.TID 0000.0001)                 2.942570946491559E+05,      /* I = 41 */
(PID.TID 0000.0001)                 2.984024308137845E+05,      /* I = 42 */
(PID.TID 0000.0001)                 3.022260576657024E+05,      /* I = 43 */
(PID.TID 0000.0001)                 3.056241488760194E+05,      /* I = 44 */
(PID.TID 0000.0001)                 3.085127702930367E+05,      /* I = 45 */
(PID.TID 0000.0001)                 3.108257038551081E+05,      /* I = 46 */
(PID.TID 0000.0001)                 3.125128220876768E+05,      /* I = 47 */
(PID.TID 0000.0001)                 3.135389817733773E+05,      /* I = 48 */
(PID.TID 0000.0001)                 3.138833384868975E+05,      /* I = 49 */
(PID.TID 0000.0001)                 3.135389817733773E+05,      /* I = 50 */
(PID.TID 0000.0001)                 3.125128220876768E+05,      /* I = 51 */
(PID.TID 0000.0001)                 3.108257038551081E+05,      /* I = 52 */
(PID.TID 0000.0001)                 3.085127702930367E+05,      /* I = 53 */
(PID.TID 0000.0001)                 3.056241488760194E+05,      /* I = 54 */
(PID.TID 0000.0001)                 3.022260576657024E+05,      /* I = 55 */
(PID.TID 0000.0001)                 2.984024308137845E+05,      /* I = 56 */
(PID.TID 0000.0001)                 2.942570946491559E+05,      /* I = 57 */
(PID.TID 0000.0001)                 2.899163399166100E+05,      /* I = 58 */
(PID.TID 0000.0001)                 2.855313568553036E+05,      /* I = 59 */
(PID.TID 0000.0001)                 2.812793628380409E+05,      /* I = 60 */
(PID.TID 0000.0001)                 2.773613965982297E+05,      /* I = 61 */
(PID.TID 0000.0001)                 2.739940126543603E+05,      /* I = 62 */
(PID.TID 0000.0001)                 2.713923099681594E+05,      /* I = 63 */
(PID.TID 0000.0001)                 2.697440110688748E+05,      /* I = 64 */
(PID.TID 0000.0001)                 3.011625828699101E+05,      /* I = 65 */
(PID.TID 0000.0001)                 3.013880313304323E+05,      /* I = 66 */
(PID.TID 0000.0001)                 3.020546438966793E+05,      /* I = 67 */
(PID.TID 0000.0001)                 3.031337933484788E+05,      /* I = 68 */
(PID.TID 0000.0001)                 3.045796060304602E+05,      /* I = 69 */
(PID.TID 0000.0001)                 3.063315047037455E+05,      /* I = 70 */
(PID.TID 0000.0001)                 3.083173884297931E+05,      /* I = 71 */
(PID.TID 0000.0001)                 3.104571666747115E+05,      /* I = 72 */
(PID.TID 0000.0001)                 3.126663860714039E+05,      /* I = 73 */
(PID.TID 0000.0001)                 3.148597400258051E+05,      /* I = 74 */
(PID.TID 0000.0001)                 3.169543146344334E+05,      /* I = 75 */
(PID.TID 0000.0001)                 3.188724835261090E+05,      /* I = 76 */
(PID.TID 0000.0001)                 3.205444100809708E+05,      /* I = 77 */
(PID.TID 0000.0001)                 3.219101453522735E+05,      /* I = 78 */
(PID.TID 0000.0001)                 3.229213257990267E+05,      /* I = 79 */
(PID.TID 0000.0001)                 3.235424806617432E+05,      /* I = 80 */
(PID.TID 0000.0001)                 3.237519587277332E+05,      /* I = 81 */
(PID.TID 0000.0001)                 3.235424806617432E+05,      /* I = 82 */
(PID.TID 0000.0001)                 3.229213257990267E+05,      /* I = 83 */
(PID.TID 0000.0001)                 3.219101453522735E+05,      /* I = 84 */
(PID.TID 0000.0001)                 3.205444100809708E+05,      /* I = 85 */
(PID.TID 0000.0001)                 3.188724835261090E+05,      /* I = 86 */
(PID.TID 0000.0001)                 3.169543146344334E+05,      /* I = 87 */
(PID.TID 0000.0001)                 3.148597400258051E+05,      /* I = 88 */
(PID.TID 0000.0001)                 3.126663860714039E+05,      /* I = 89 */
(PID.TID 0000.0001)                 3.104571666747115E+05,      /* I = 90 */
(PID.TID 0000.0001)                 3.083173884297931E+05,      /* I = 91 */
(PID.TID 0000.0001)                 3.063315047037455E+05,      /* I = 92 */
(PID.TID 0000.0001)                 3.045796060304602E+05,      /* I = 93 */
(PID.TID 0000.0001)                 3.031337933484788E+05,      /* I = 94 */
(PID.TID 0000.0001)                 3.020546438966793E+05,      /* I = 95 */
(PID.TID 0000.0001)                 3.013880313304323E+05,      /* I = 96 */
(PID.TID 0000.0001)                 2.597126963772147E+05,      /* I = 97 */
(PID.TID 0000.0001)                 2.604251753978458E+05,      /* I = 98 */
(PID.TID 0000.0001)                 2.624913419950762E+05,      /* I = 99 */
(PID.TID 0000.0001)                 2.657171026045170E+05,      /* I =100 */
(PID.TID 0000.0001)                 2.698333765987323E+05,      /* I =101 */
(PID.TID 0000.0001)                 2.745483070885214E+05,      /* I =102 */
(PID.TID 0000.0001)                 2.795857322165681E+05,      /* I =103 */
(PID.TID 0000.0001)                 2.847050239641676E+05,      /* I =104 */
(PID.TID 0000.0001)                 2.897064557701324E+05,      /* I =105 */
(PID.TID 0000.0001)                 2.944285521457881E+05,      /* I =106 */
(PID.TID 0000.0001)                 2.987424211573701E+05,      /* I =107 */
(PID.TID 0000.0001)                 3.025458844490738E+05,      /* I =108 */
(PID.TID 0000.0001)                 3.057585931291658E+05,      /* I =109 */
(PID.TID 0000.0001)                 3.083184102117021E+05,      /* I =110 */
(PID.TID 0000.0001)                 3.101789360579298E+05,      /* I =111 */
(PID.TID 0000.0001)                 3.113079261689634E+05,      /* I =112 */
(PID.TID 0000.0001)                 3.116863538419811E+05,      /* I =113 */
(PID.TID 0000.0001)                 3.113079261689634E+05,      /* I =114 */
(PID.TID 0000.0001)                 3.101789360579298E+05,      /* I =115 */
(PID.TID 0000.0001)                 3.083184102117021E+05,      /* I =116 */
(PID.TID 0000.0001)                 3.057585931291658E+05,      /* I =117 */
(PID.TID 0000.0001)                 3.025458844490738E+05,      /* I =118 */
(PID.TID 0000.0001)                 2.987424211573701E+05,      /* I =119 */
(PID.TID 0000.0001)                 2.944285521457881E+05,      /* I =120 */
(PID.TID 0000.0001)                 2.897064557701324E+05,      /* I =121 */
(PID.TID 0000.0001)                 2.847050239641676E+05,      /* I =122 */
(PID.TID 0000.0001)                 2.795857322165681E+05,      /* I =123 */
(PID.TID 0000.0001)                 2.745483070885214E+05,      /* I =124 */
(PID.TID 0000.0001)                 2.698333765987323E+05,      /* I =125 */
(PID.TID 0000.0001)                 2.657171026045170E+05,      /* I =126 */
(PID.TID 0000.0001)                 2.624913419950762E+05,      /* I =127 */
(PID.TID 0000.0001)                 2.604251753978458E+05,      /* I =128 */
(PID.TID 0000.0001)                 1.009837800879055E+05,      /* I =129 */
(PID.TID 0000.0001)                 1.403701524205398E+05,      /* I =130 */
(PID.TID 0000.0001)                 1.716197227386011E+05,      /* I =131 */
(PID.TID 0000.0001)                 1.950254041626018E+05,      /* I =132 */
(PID.TID 0000.0001)                 2.138410773065497E+05,      /* I =133 */
(PID.TID 0000.0001)                 2.295958105911512E+05,      /* I =134 */
(PID.TID 0000.0001)                 2.430829951739083E+05,      /* I =135 */
(PID.TID 0000.0001)                 2.547526806712889E+05,      /* I =136 */
(PID.TID 0000.0001)                 2.648750305193301E+05,      /* I =137 */
(PID.TID 0000.0001)                 2.736173771018112E+05,      /* I =138 */
(PID.TID 0000.0001)                 2.810845823202647E+05,      /* I =139 */
(PID.TID 0000.0001)                 2.873420591008078E+05,      /* I =140 */
(PID.TID 0000.0001)                 2.924298293668651E+05,      /* I =141 */
(PID.TID 0000.0001)                 2.963715635865306E+05,      /* I =142 */
(PID.TID 0000.0001)                 2.991805843171258E+05,      /* I =143 */
(PID.TID 0000.0001)                 3.008638765647886E+05,      /* I =144 */
(PID.TID 0000.0001)                 3.014246674484008E+05,      /* I =145 */
(PID.TID 0000.0001)                 3.008638765647886E+05,      /* I =146 */
(PID.TID 0000.0001)                 2.991805843171258E+05,      /* I =147 */
(PID.TID 0000.0001)                 2.963715635865306E+05,      /* I =148 */
(PID.TID 0000.0001)                 2.924298293668651E+05,      /* I =149 */
(PID.TID 0000.0001)                 2.873420591008078E+05,      /* I =150 */
(PID.TID 0000.0001)                 2.810845823202647E+05,      /* I =151 */
(PID.TID 0000.0001)                 2.736173771018112E+05,      /* I =152 */
(PID.TID 0000.0001)                 2.648750305193301E+05,      /* I =153 */
(PID.TID 0000.0001)                 2.547526806712889E+05,      /* I =154 */
(PID.TID 0000.0001)                 2.430829951739083E+05,      /* I =155 */
(PID.TID 0000.0001)                 2.295958105911512E+05,      /* I =156 */
(PID.TID 0000.0001)                 2.138410773065497E+05,      /* I =157 */
(PID.TID 0000.0001)                 1.950254041626018E+05,      /* I =158 */
(PID.TID 0000.0001)                 1.716197227386011E+05,      /* I =159 */
(PID.TID 0000.0001)                 1.403701524205398E+05,      /* I =160 */
(PID.TID 0000.0001)                 2.691790288994575E+05,      /* I =161 */
(PID.TID 0000.0001)                 2.697440110688748E+05,      /* I =162 */
(PID.TID 0000.0001)                 2.713923099681594E+05,      /* I =163 */
(PID.TID 0000.0001)                 2.739940126543603E+05,      /* I =164 */
(PID.TID 0000.0001)                 2.773613965982297E+05,      /* I =165 */
(PID.TID 0000.0001)                 2.812793628380409E+05,      /* I =166 */
(PID.TID 0000.0001)                 2.855313568553036E+05,      /* I =167 */
(PID.TID 0000.0001)                 2.899163399166100E+05,      /* I =168 */
(PID.TID 0000.0001)                 2.942570946491559E+05,      /* I =169 */
(PID.TID 0000.0001)                 2.984024308137845E+05,      /* I =170 */
(PID.TID 0000.0001)                 3.022260576657024E+05,      /* I =171 */
(PID.TID 0000.0001)                 3.056241488760194E+05,      /* I =172 */
(PID.TID 0000.0001)                 3.085127702930367E+05,      /* I =173 */
(PID.TID 0000.0001)                 3.108257038551081E+05,      /* I =174 */
(PID.TID 0000.0001)                 3.125128220876768E+05,      /* I =175 */
(PID.TID 0000.0001)                 3.135389817733773E+05,      /* I =176 */
(PID.TID 0000.0001)                 3.138833384868975E+05,      /* I =177 */
(PID.TID 0000.0001)                 3.135389817733773E+05,      /* I =178 */
(PID.TID 0000.0001)                 3.125128220876768E+05,      /* I =179 */
(PID.TID 0000.0001)                 3.108257038551081E+05,      /* I =180 */
(PID.TID 0000.0001)                 3.085127702930367E+05,      /* I =181 */
(PID.TID 0000.0001)                 3.056241488760194E+05,      /* I =182 */
(PID.TID 0000.0001)                 3.022260576657024E+05,      /* I =183 */
(PID.TID 0000.0001)                 2.984024308137845E+05,      /* I =184 */
(PID.TID 0000.0001)                 2.942570946491559E+05,      /* I =185 */
(PID.TID 0000.0001)                 2.899163399166100E+05,      /* I =186 */
(PID.TID 0000.0001)                 2.855313568553036E+05,      /* I =187 */
(PID.TID 0000.0001)                 2.812793628380409E+05,      /* I =188 */
(PID.TID 0000.0001)                 2.773613965982297E+05,      /* I =189 */
(PID.TID 0000.0001)                 2.739940126543603E+05,      /* I =190 */
(PID.TID 0000.0001)                 2.713923099681594E+05,      /* I =191 */
(PID.TID 0000.0001)                 2.697440110688748E+05,      /* I =192 */
(PID.TID 0000.0001)                 3.011625828699101E+05,      /* I =193 */
(PID.TID 0000.0001)                 3.013880313304323E+05,      /* I =194 */
(PID.TID 0000.0001)                 3.020546438966793E+05,      /* I =195 */
(PID.TID 0000.0001)                 3.031337933484788E+05,      /* I =196 */
(PID.TID 0000.0001)                 3.045796060304602E+05,      /* I =197 */
(PID.TID 0000.0001)                 3.063315047037455E+05,      /* I =198 */
(PID.TID 0000.0001)                 3.083173884297931E+05,      /* I =199 */
(PID.TID 0000.0001)                 3.104571666747115E+05,      /* I =200 */
(PID.TID 0000.0001)                 3.126663860714039E+05,      /* I =201 */
(PID.TID 0000.0001)                 3.148597400258051E+05,      /* I =202 */
(PID.TID 0000.0001)                 3.169543146344334E+05,      /* I =203 */
(PID.TID 0000.0001)                 3.188724835261090E+05,      /* I =204 */
(PID.TID 0000.0001)                 3.205444100809708E+05,      /* I =205 */
(PID.TID 0000.0001)                 3.219101453522735E+05,      /* I =206 */
(PID.TID 0000.0001)                 3.229213257990267E+05,      /* I =207 */
(PID.TID 0000.0001)                 3.235424806617432E+05,      /* I =208 */
(PID.TID 0000.0001)                 3.237519587277332E+05,      /* I =209 */
(PID.TID 0000.0001)                 3.235424806617432E+05,      /* I =210 */
(PID.TID 0000.0001)                 3.229213257990267E+05,      /* I =211 */
(PID.TID 0000.0001)                 3.219101453522735E+05,      /* I =212 */
(PID.TID 0000.0001)                 3.205444100809708E+05,      /* I =213 */
(PID.TID 0000.0001)                 3.188724835261090E+05,      /* I =214 */
(PID.TID 0000.0001)                 3.169543146344334E+05,      /* I =215 */
(PID.TID 0000.0001)                 3.148597400258051E+05,      /* I =216 */
(PID.TID 0000.0001)                 3.126663860714039E+05,      /* I =217 */
(PID.TID 0000.0001)                 3.104571666747115E+05,      /* I =218 */
(PID.TID 0000.0001)                 3.083173884297931E+05,      /* I =219 */
(PID.TID 0000.0001)                 3.063315047037455E+05,      /* I =220 */
(PID.TID 0000.0001)                 3.045796060304602E+05,      /* I =221 */
(PID.TID 0000.0001)                 3.031337933484788E+05,      /* I =222 */
(PID.TID 0000.0001)                 3.020546438966793E+05,      /* I =223 */
(PID.TID 0000.0001)                 3.013880313304323E+05,      /* I =224 */
(PID.TID 0000.0001)                 2.597126963772147E+05,      /* I =225 */
(PID.TID 0000.0001)                 2.604251753978458E+05,      /* I =226 */
(PID.TID 0000.0001)                 2.624913419950762E+05,      /* I =227 */
(PID.TID 0000.0001)                 2.657171026045170E+05,      /* I =228 */
(PID.TID 0000.0001)                 2.698333765987323E+05,      /* I =229 */
(PID.TID 0000.0001)                 2.745483070885214E+05,      /* I =230 */
(PID.TID 0000.0001)                 2.795857322165681E+05,      /* I =231 */
(PID.TID 0000.0001)                 2.847050239641676E+05,      /* I =232 */
(PID.TID 0000.0001)                 2.897064557701324E+05,      /* I =233 */
(PID.TID 0000.0001)                 2.944285521457881E+05,      /* I =234 */
(PID.TID 0000.0001)                 2.987424211573701E+05,      /* I =235 */
(PID.TID 0000.0001)                 3.025458844490738E+05,      /* I =236 */
(PID.TID 0000.0001)                 3.057585931291658E+05,      /* I =237 */
(PID.TID 0000.0001)                 3.083184102117021E+05,      /* I =238 */
(PID.TID 0000.0001)                 3.101789360579298E+05,      /* I =239 */
(PID.TID 0000.0001)                 3.113079261689634E+05,      /* I =240 */
(PID.TID 0000.0001)                 3.116863538419811E+05,      /* I =241 */
(PID.TID 0000.0001)                 3.113079261689634E+05,      /* I =242 */
(PID.TID 0000.0001)                 3.101789360579298E+05,      /* I =243 */
(PID.TID 0000.0001)                 3.083184102117021E+05,      /* I =244 */
(PID.TID 0000.0001)                 3.057585931291658E+05,      /* I =245 */
(PID.TID 0000.0001)                 3.025458844490738E+05,      /* I =246 */
(PID.TID 0000.0001)                 2.987424211573701E+05,      /* I =247 */
(PID.TID 0000.0001)                 2.944285521457881E+05,      /* I =248 */
(PID.TID 0000.0001)                 2.897064557701324E+05,      /* I =249 */
(PID.TID 0000.0001)                 2.847050239641676E+05,      /* I =250 */
(PID.TID 0000.0001)                 2.795857322165681E+05,      /* I =251 */
(PID.TID 0000.0001)                 2.745483070885214E+05,      /* I =252 */
(PID.TID 0000.0001)                 2.698333765987323E+05,      /* I =253 */
(PID.TID 0000.0001)                 2.657171026045170E+05,      /* I =254 */
(PID.TID 0000.0001)                 2.624913419950762E+05,      /* I =255 */
(PID.TID 0000.0001)                 2.604251753978458E+05,      /* I =256 */
(PID.TID 0000.0001)                 1.009837800879055E+05,      /* I =257 */
(PID.TID 0000.0001)                 1.403701524205398E+05,      /* I =258 */
(PID.TID 0000.0001)                 1.716197227386011E+05,      /* I =259 */
(PID.TID 0000.0001)                 1.950254041626018E+05,      /* I =260 */
(PID.TID 0000.0001)                 2.138410773065497E+05,      /* I =261 */
(PID.TID 0000.0001)                 2.295958105911512E+05,      /* I =262 */
(PID.TID 0000.0001)                 2.430829951739083E+05,      /* I =263 */
(PID.TID 0000.0001)                 2.547526806712889E+05,      /* I =264 */
(PID.TID 0000.0001)                 2.648750305193301E+05,      /* I =265 */
(PID.TID 0000.0001)                 2.736173771018112E+05,      /* I =266 */
(PID.TID 0000.0001)                 2.810845823202647E+05,      /* I =267 */
(PID.TID 0000.0001)                 2.873420591008078E+05,      /* I =268 */
(PID.TID 0000.0001)                 2.924298293668651E+05,      /* I =269 */
(PID.TID 0000.0001)                 2.963715635865306E+05,      /* I =270 */
(PID.TID 0000.0001)                 2.991805843171258E+05,      /* I =271 */
(PID.TID 0000.0001)                 3.008638765647886E+05,      /* I =272 */
(PID.TID 0000.0001)                 3.014246674484008E+05,      /* I =273 */
(PID.TID 0000.0001)                 3.008638765647886E+05,      /* I =274 */
(PID.TID 0000.0001)                 2.991805843171258E+05,      /* I =275 */
(PID.TID 0000.0001)                 2.963715635865306E+05,      /* I =276 */
(PID.TID 0000.0001)                 2.924298293668651E+05,      /* I =277 */
(PID.TID 0000.0001)                 2.873420591008078E+05,      /* I =278 */
(PID.TID 0000.0001)                 2.810845823202647E+05,      /* I =279 */
(PID.TID 0000.0001)                 2.736173771018112E+05,      /* I =280 */
(PID.TID 0000.0001)                 2.648750305193301E+05,      /* I =281 */
(PID.TID 0000.0001)                 2.547526806712889E+05,      /* I =282 */
(PID.TID 0000.0001)                 2.430829951739083E+05,      /* I =283 */
(PID.TID 0000.0001)                 2.295958105911512E+05,      /* I =284 */
(PID.TID 0000.0001)                 2.138410773065497E+05,      /* I =285 */
(PID.TID 0000.0001)                 1.950254041626018E+05,      /* I =286 */
(PID.TID 0000.0001)                 1.716197227386011E+05,      /* I =287 */
(PID.TID 0000.0001)                 1.403701524205398E+05,      /* I =288 */
(PID.TID 0000.0001)                 2.691790288994575E+05,      /* I =289 */
(PID.TID 0000.0001)                 2.697440110688748E+05,      /* I =290 */
(PID.TID 0000.0001)                 2.713923099681594E+05,      /* I =291 */
(PID.TID 0000.0001)                 2.739940126543603E+05,      /* I =292 */
(PID.TID 0000.0001)                 2.773613965982297E+05,      /* I =293 */
(PID.TID 0000.0001)                 2.812793628380409E+05,      /* I =294 */
(PID.TID 0000.0001)                 2.855313568553036E+05,      /* I =295 */
(PID.TID 0000.0001)                 2.899163399166100E+05,      /* I =296 */
(PID.TID 0000.0001)                 2.942570946491559E+05,      /* I =297 */
(PID.TID 0000.0001)                 2.984024308137845E+05,      /* I =298 */
(PID.TID 0000.0001)                 3.022260576657024E+05,      /* I =299 */
(PID.TID 0000.0001)                 3.056241488760194E+05,      /* I =300 */
(PID.TID 0000.0001)                 3.085127702930367E+05,      /* I =301 */
(PID.TID 0000.0001)                 3.108257038551081E+05,      /* I =302 */
(PID.TID 0000.0001)                 3.125128220876768E+05,      /* I =303 */
(PID.TID 0000.0001)                 3.135389817733773E+05,      /* I =304 */
(PID.TID 0000.0001)                 3.138833384868975E+05,      /* I =305 */
(PID.TID 0000.0001)                 3.135389817733773E+05,      /* I =306 */
(PID.TID 0000.0001)                 3.125128220876768E+05,      /* I =307 */
(PID.TID 0000.0001)                 3.108257038551081E+05,      /* I =308 */
(PID.TID 0000.0001)                 3.085127702930367E+05,      /* I =309 */
(PID.TID 0000.0001)                 3.056241488760194E+05,      /* I =310 */
(PID.TID 0000.0001)                 3.022260576657024E+05,      /* I =311 */
(PID.TID 0000.0001)                 2.984024308137845E+05,      /* I =312 */
(PID.TID 0000.0001)                 2.942570946491559E+05,      /* I =313 */
(PID.TID 0000.0001)                 2.899163399166100E+05,      /* I =314 */
(PID.TID 0000.0001)                 2.855313568553036E+05,      /* I =315 */
(PID.TID 0000.0001)                 2.812793628380409E+05,      /* I =316 */
(PID.TID 0000.0001)                 2.773613965982297E+05,      /* I =317 */
(PID.TID 0000.0001)                 2.739940126543603E+05,      /* I =318 */
(PID.TID 0000.0001)                 2.713923099681594E+05,      /* I =319 */
(PID.TID 0000.0001)                 2.697440110688748E+05,      /* I =320 */
(PID.TID 0000.0001)                 3.011625828699101E+05,      /* I =321 */
(PID.TID 0000.0001)                 3.013880313304323E+05,      /* I =322 */
(PID.TID 0000.0001)                 3.020546438966793E+05,      /* I =323 */
(PID.TID 0000.0001)                 3.031337933484788E+05,      /* I =324 */
(PID.TID 0000.0001)                 3.045796060304602E+05,      /* I =325 */
(PID.TID 0000.0001)                 3.063315047037455E+05,      /* I =326 */
(PID.TID 0000.0001)                 3.083173884297931E+05,      /* I =327 */
(PID.TID 0000.0001)                 3.104571666747115E+05,      /* I =328 */
(PID.TID 0000.0001)                 3.126663860714039E+05,      /* I =329 */
(PID.TID 0000.0001)                 3.148597400258051E+05,      /* I =330 */
(PID.TID 0000.0001)                 3.169543146344334E+05,      /* I =331 */
(PID.TID 0000.0001)                 3.188724835261090E+05,      /* I =332 */
(PID.TID 0000.0001)                 3.205444100809708E+05,      /* I =333 */
(PID.TID 0000.0001)                 3.219101453522735E+05,      /* I =334 */
(PID.TID 0000.0001)                 3.229213257990267E+05,      /* I =335 */
(PID.TID 0000.0001)                 3.235424806617432E+05,      /* I =336 */
(PID.TID 0000.0001)                 3.237519587277332E+05,      /* I =337 */
(PID.TID 0000.0001)                 3.235424806617432E+05,      /* I =338 */
(PID.TID 0000.0001)                 3.229213257990267E+05,      /* I =339 */
(PID.TID 0000.0001)                 3.219101453522735E+05,      /* I =340 */
(PID.TID 0000.0001)                 3.205444100809708E+05,      /* I =341 */
(PID.TID 0000.0001)                 3.188724835261090E+05,      /* I =342 */
(PID.TID 0000.0001)                 3.169543146344334E+05,      /* I =343 */
(PID.TID 0000.0001)                 3.148597400258051E+05,      /* I =344 */
(PID.TID 0000.0001)                 3.126663860714039E+05,      /* I =345 */
(PID.TID 0000.0001)                 3.104571666747115E+05,      /* I =346 */
(PID.TID 0000.0001)                 3.083173884297931E+05,      /* I =347 */
(PID.TID 0000.0001)                 3.063315047037455E+05,      /* I =348 */
(PID.TID 0000.0001)                 3.045796060304602E+05,      /* I =349 */
(PID.TID 0000.0001)                 3.031337933484788E+05,      /* I =350 */
(PID.TID 0000.0001)                 3.020546438966793E+05,      /* I =351 */
(PID.TID 0000.0001)                 3.013880313304323E+05,      /* I =352 */
(PID.TID 0000.0001)                 2.597126963772147E+05,      /* I =353 */
(PID.TID 0000.0001)                 2.604251753978458E+05,      /* I =354 */
(PID.TID 0000.0001)                 2.624913419950762E+05,      /* I =355 */
(PID.TID 0000.0001)                 2.657171026045170E+05,      /* I =356 */
(PID.TID 0000.0001)                 2.698333765987323E+05,      /* I =357 */
(PID.TID 0000.0001)                 2.745483070885214E+05,      /* I =358 */
(PID.TID 0000.0001)                 2.795857322165681E+05,      /* I =359 */
(PID.TID 0000.0001)                 2.847050239641676E+05,      /* I =360 */
(PID.TID 0000.0001)                 2.897064557701324E+05,      /* I =361 */
(PID.TID 0000.0001)                 2.944285521457881E+05,      /* I =362 */
(PID.TID 0000.0001)                 2.987424211573701E+05,      /* I =363 */
(PID.TID 0000.0001)                 3.025458844490738E+05,      /* I =364 */
(PID.TID 0000.0001)                 3.057585931291658E+05,      /* I =365 */
(PID.TID 0000.0001)                 3.083184102117021E+05,      /* I =366 */
(PID.TID 0000.0001)                 3.101789360579298E+05,      /* I =367 */
(PID.TID 0000.0001)                 3.113079261689634E+05,      /* I =368 */
(PID.TID 0000.0001)                 3.116863538419811E+05,      /* I =369 */
(PID.TID 0000.0001)                 3.113079261689634E+05,      /* I =370 */
(PID.TID 0000.0001)                 3.101789360579298E+05,      /* I =371 */
(PID.TID 0000.0001)                 3.083184102117021E+05,      /* I =372 */
(PID.TID 0000.0001)                 3.057585931291658E+05,      /* I =373 */
(PID.TID 0000.0001)                 3.025458844490738E+05,      /* I =374 */
(PID.TID 0000.0001)                 2.987424211573701E+05,      /* I =375 */
(PID.TID 0000.0001)                 2.944285521457881E+05,      /* I =376 */
(PID.TID 0000.0001)                 2.897064557701324E+05,      /* I =377 */
(PID.TID 0000.0001)                 2.847050239641676E+05,      /* I =378 */
(PID.TID 0000.0001)                 2.795857322165681E+05,      /* I =379 */
(PID.TID 0000.0001)                 2.745483070885214E+05,      /* I =380 */
(PID.TID 0000.0001)                 2.698333765987323E+05,      /* I =381 */
(PID.TID 0000.0001)                 2.657171026045170E+05,      /* I =382 */
(PID.TID 0000.0001)                 2.624913419950762E+05,      /* I =383 */
(PID.TID 0000.0001)                 2.604251753978458E+05,      /* I =384 */
(PID.TID 0000.0001)                 1.009837800879055E+05,      /* I =385 */
(PID.TID 0000.0001)                 1.403701524205398E+05,      /* I =386 */
(PID.TID 0000.0001)                 1.716197227386011E+05,      /* I =387 */
(PID.TID 0000.0001)                 1.950254041626018E+05,      /* I =388 */
(PID.TID 0000.0001)                 2.138410773065497E+05,      /* I =389 */
(PID.TID 0000.0001)                 2.295958105911512E+05,      /* I =390 */
(PID.TID 0000.0001)                 2.430829951739083E+05,      /* I =391 */
(PID.TID 0000.0001)                 2.547526806712889E+05,      /* I =392 */
(PID.TID 0000.0001)                 2.648750305193301E+05,      /* I =393 */
(PID.TID 0000.0001)                 2.736173771018112E+05,      /* I =394 */
(PID.TID 0000.0001)                 2.810845823202647E+05,      /* I =395 */
(PID.TID 0000.0001)                 2.873420591008078E+05,      /* I =396 */
(PID.TID 0000.0001)                 2.924298293668651E+05,      /* I =397 */
(PID.TID 0000.0001)                 2.963715635865306E+05,      /* I =398 */
(PID.TID 0000.0001)                 2.991805843171258E+05,      /* I =399 */
(PID.TID 0000.0001)                 3.008638765647886E+05,      /* I =400 */
(PID.TID 0000.0001)                 3.014246674484008E+05,      /* I =401 */
(PID.TID 0000.0001)                 3.008638765647886E+05,      /* I =402 */
(PID.TID 0000.0001)                 2.991805843171258E+05,      /* I =403 */
(PID.TID 0000.0001)                 2.963715635865306E+05,      /* I =404 */
(PID.TID 0000.0001)                 2.924298293668651E+05,      /* I =405 */
(PID.TID 0000.0001)                 2.873420591008078E+05,      /* I =406 */
(PID.TID 0000.0001)                 2.810845823202647E+05,      /* I =407 */
(PID.TID 0000.0001)                 2.736173771018112E+05,      /* I =408 */
(PID.TID 0000.0001)                 2.648750305193301E+05,      /* I =409 */
(PID.TID 0000.0001)                 2.547526806712889E+05,      /* I =410 */
(PID.TID 0000.0001)                 2.430829951739083E+05,      /* I =411 */
(PID.TID 0000.0001)                 2.295958105911512E+05,      /* I =412 */
(PID.TID 0000.0001)                 2.138410773065497E+05,      /* I =413 */
(PID.TID 0000.0001)                 1.950254041626018E+05,      /* I =414 */
(PID.TID 0000.0001)                 1.716197227386011E+05,      /* I =415 */
(PID.TID 0000.0001)                 1.403701524205398E+05,      /* I =416 */
(PID.TID 0000.0001)                 2.691790288994575E+05,      /* I =417 */
(PID.TID 0000.0001)                 2.697440110688748E+05,      /* I =418 */
(PID.TID 0000.0001)                 2.713923099681594E+05,      /* I =419 */
(PID.TID 0000.0001)                 2.739940126543603E+05,      /* I =420 */
(PID.TID 0000.0001)                 2.773613965982297E+05,      /* I =421 */
(PID.TID 0000.0001)                 2.812793628380409E+05,      /* I =422 */
(PID.TID 0000.0001)                 2.855313568553036E+05,      /* I =423 */
(PID.TID 0000.0001)                 2.899163399166100E+05,      /* I =424 */
(PID.TID 0000.0001)                 2.942570946491559E+05,      /* I =425 */
(PID.TID 0000.0001)                 2.984024308137845E+05,      /* I =426 */
(PID.TID 0000.0001)                 3.022260576657024E+05,      /* I =427 */
(PID.TID 0000.0001)                 3.056241488760194E+05,      /* I =428 */
(PID.TID 0000.0001)                 3.085127702930367E+05,      /* I =429 */
(PID.TID 0000.0001)                 3.108257038551081E+05,      /* I =430 */
(PID.TID 0000.0001)                 3.125128220876768E+05,      /* I =431 */
(PID.TID 0000.0001)                 3.135389817733773E+05,      /* I =432 */
(PID.TID 0000.0001)                 3.138833384868975E+05,      /* I =433 */
(PID.TID 0000.0001)                 3.135389817733773E+05,      /* I =434 */
(PID.TID 0000.0001)                 3.125128220876768E+05,      /* I =435 */
(PID.TID 0000.0001)                 3.108257038551081E+05,      /* I =436 */
(PID.TID 0000.0001)                 3.085127702930367E+05,      /* I =437 */
(PID.TID 0000.0001)                 3.056241488760194E+05,      /* I =438 */
(PID.TID 0000.0001)                 3.022260576657024E+05,      /* I =439 */
(PID.TID 0000.0001)                 2.984024308137845E+05,      /* I =440 */
(PID.TID 0000.0001)                 2.942570946491559E+05,      /* I =441 */
(PID.TID 0000.0001)                 2.899163399166100E+05,      /* I =442 */
(PID.TID 0000.0001)                 2.855313568553036E+05,      /* I =443 */
(PID.TID 0000.0001)                 2.812793628380409E+05,      /* I =444 */
(PID.TID 0000.0001)                 2.773613965982297E+05,      /* I =445 */
(PID.TID 0000.0001)                 2.739940126543603E+05,      /* I =446 */
(PID.TID 0000.0001)                 2.713923099681594E+05,      /* I =447 */
(PID.TID 0000.0001)                 2.697440110688748E+05,      /* I =448 */
(PID.TID 0000.0001)                 3.011625828699101E+05,      /* I =449 */
(PID.TID 0000.0001)                 3.013880313304323E+05,      /* I =450 */
(PID.TID 0000.0001)                 3.020546438966793E+05,      /* I =451 */
(PID.TID 0000.0001)                 3.031337933484788E+05,      /* I =452 */
(PID.TID 0000.0001)                 3.045796060304602E+05,      /* I =453 */
(PID.TID 0000.0001)                 3.063315047037455E+05,      /* I =454 */
(PID.TID 0000.0001)                 3.083173884297931E+05,      /* I =455 */
(PID.TID 0000.0001)                 3.104571666747115E+05,      /* I =456 */
(PID.TID 0000.0001)                 3.126663860714039E+05,      /* I =457 */
(PID.TID 0000.0001)                 3.148597400258051E+05,      /* I =458 */
(PID.TID 0000.0001)                 3.169543146344334E+05,      /* I =459 */
(PID.TID 0000.0001)                 3.188724835261090E+05,      /* I =460 */
(PID.TID 0000.0001)                 3.205444100809708E+05,      /* I =461 */
(PID.TID 0000.0001)                 3.219101453522735E+05,      /* I =462 */
(PID.TID 0000.0001)                 3.229213257990267E+05,      /* I =463 */
(PID.TID 0000.0001)                 3.235424806617432E+05,      /* I =464 */
(PID.TID 0000.0001)                 3.237519587277332E+05,      /* I =465 */
(PID.TID 0000.0001)                 3.235424806617432E+05,      /* I =466 */
(PID.TID 0000.0001)                 3.229213257990267E+05,      /* I =467 */
(PID.TID 0000.0001)                 3.219101453522735E+05,      /* I =468 */
(PID.TID 0000.0001)                 3.205444100809708E+05,      /* I =469 */
(PID.TID 0000.0001)                 3.188724835261090E+05,      /* I =470 */
(PID.TID 0000.0001)                 3.169543146344334E+05,      /* I =471 */
(PID.TID 0000.0001)                 3.148597400258051E+05,      /* I =472 */
(PID.TID 0000.0001)                 3.126663860714039E+05,      /* I =473 */
(PID.TID 0000.0001)                 3.104571666747115E+05,      /* I =474 */
(PID.TID 0000.0001)                 3.083173884297931E+05,      /* I =475 */
(PID.TID 0000.0001)                 3.063315047037455E+05,      /* I =476 */
(PID.TID 0000.0001)                 3.045796060304602E+05,      /* I =477 */
(PID.TID 0000.0001)                 3.031337933484788E+05,      /* I =478 */
(PID.TID 0000.0001)                 3.020546438966793E+05,      /* I =479 */
(PID.TID 0000.0001)                 3.013880313304323E+05,      /* I =480 */
(PID.TID 0000.0001)                 2.597126963772147E+05,      /* I =481 */
(PID.TID 0000.0001)                 2.604251753978458E+05,      /* I =482 */
(PID.TID 0000.0001)                 2.624913419950762E+05,      /* I =483 */
(PID.TID 0000.0001)                 2.657171026045170E+05,      /* I =484 */
(PID.TID 0000.0001)                 2.698333765987323E+05,      /* I =485 */
(PID.TID 0000.0001)                 2.745483070885214E+05,      /* I =486 */
(PID.TID 0000.0001)                 2.795857322165681E+05,      /* I =487 */
(PID.TID 0000.0001)                 2.847050239641676E+05,      /* I =488 */
(PID.TID 0000.0001)                 2.897064557701324E+05,      /* I =489 */
(PID.TID 0000.0001)                 2.944285521457881E+05,      /* I =490 */
(PID.TID 0000.0001)                 2.987424211573701E+05,      /* I =491 */
(PID.TID 0000.0001)                 3.025458844490738E+05,      /* I =492 */
(PID.TID 0000.0001)                 3.057585931291658E+05,      /* I =493 */
(PID.TID 0000.0001)                 3.083184102117021E+05,      /* I =494 */
(PID.TID 0000.0001)                 3.101789360579298E+05,      /* I =495 */
(PID.TID 0000.0001)                 3.113079261689634E+05,      /* I =496 */
(PID.TID 0000.0001)                 3.116863538419811E+05,      /* I =497 */
(PID.TID 0000.0001)                 3.113079261689634E+05,      /* I =498 */
(PID.TID 0000.0001)                 3.101789360579298E+05,      /* I =499 */
(PID.TID 0000.0001)                 3.083184102117021E+05,      /* I =500 */
(PID.TID 0000.0001)                 3.057585931291658E+05,      /* I =501 */
(PID.TID 0000.0001)                 3.025458844490738E+05,      /* I =502 */
(PID.TID 0000.0001)                 2.987424211573701E+05,      /* I =503 */
(PID.TID 0000.0001)                 2.944285521457881E+05,      /* I =504 */
(PID.TID 0000.0001)                 2.897064557701324E+05,      /* I =505 */
(PID.TID 0000.0001)                 2.847050239641676E+05,      /* I =506 */
(PID.TID 0000.0001)                 2.795857322165681E+05,      /* I =507 */
(PID.TID 0000.0001)                 2.745483070885214E+05,      /* I =508 */
(PID.TID 0000.0001)                 2.698333765987323E+05,      /* I =509 */
(PID.TID 0000.0001)                 2.657171026045170E+05,      /* I =510 */
(PID.TID 0000.0001)                 2.624913419950762E+05,      /* I =511 */
(PID.TID 0000.0001)                 2.604251753978458E+05,      /* I =512 */
(PID.TID 0000.0001)                 1.009837800879055E+05,      /* I =513 */
(PID.TID 0000.0001)                 1.403701524205398E+05,      /* I =514 */
(PID.TID 0000.0001)                 1.716197227386011E+05,      /* I =515 */
(PID.TID 0000.0001)                 1.950254041626018E+05,      /* I =516 */
(PID.TID 0000.0001)                 2.138410773065497E+05,      /* I =517 */
(PID.TID 0000.0001)                 2.295958105911512E+05,      /* I =518 */
(PID.TID 0000.0001)                 2.430829951739083E+05,      /* I =519 */
(PID.TID 0000.0001)                 2.547526806712889E+05,      /* I =520 */
(PID.TID 0000.0001)                 2.648750305193301E+05,      /* I =521 */
(PID.TID 0000.0001)                 2.736173771018112E+05,      /* I =522 */
(PID.TID 0000.0001)                 2.810845823202647E+05,      /* I =523 */
(PID.TID 0000.0001)                 2.873420591008078E+05,      /* I =524 */
(PID.TID 0000.0001)                 2.924298293668651E+05,      /* I =525 */
(PID.TID 0000.0001)                 2.963715635865306E+05,      /* I =526 */
(PID.TID 0000.0001)                 2.991805843171258E+05,      /* I =527 */
(PID.TID 0000.0001)                 3.008638765647886E+05,      /* I =528 */
(PID.TID 0000.0001)                 3.014246674484008E+05,      /* I =529 */
(PID.TID 0000.0001)                 3.008638765647886E+05,      /* I =530 */
(PID.TID 0000.0001)                 2.991805843171258E+05,      /* I =531 */
(PID.TID 0000.0001)                 2.963715635865306E+05,      /* I =532 */
(PID.TID 0000.0001)                 2.924298293668651E+05,      /* I =533 */
(PID.TID 0000.0001)                 2.873420591008078E+05,      /* I =534 */
(PID.TID 0000.0001)                 2.810845823202647E+05,      /* I =535 */
(PID.TID 0000.0001)                 2.736173771018112E+05,      /* I =536 */
(PID.TID 0000.0001)                 2.648750305193301E+05,      /* I =537 */
(PID.TID 0000.0001)                 2.547526806712889E+05,      /* I =538 */
(PID.TID 0000.0001)                 2.430829951739083E+05,      /* I =539 */
(PID.TID 0000.0001)                 2.295958105911512E+05,      /* I =540 */
(PID.TID 0000.0001)                 2.138410773065497E+05,      /* I =541 */
(PID.TID 0000.0001)                 1.950254041626018E+05,      /* I =542 */
(PID.TID 0000.0001)                 1.716197227386011E+05,      /* I =543 */
(PID.TID 0000.0001)                 1.403701524205398E+05,      /* I =544 */
(PID.TID 0000.0001)                 2.691790288994575E+05,      /* I =545 */
(PID.TID 0000.0001)                 2.697440110688748E+05,      /* I =546 */
(PID.TID 0000.0001)                 2.713923099681594E+05,      /* I =547 */
(PID.TID 0000.0001)                 2.739940126543603E+05,      /* I =548 */
(PID.TID 0000.0001)                 2.773613965982297E+05,      /* I =549 */
(PID.TID 0000.0001)                 2.812793628380409E+05,      /* I =550 */
(PID.TID 0000.0001)                 2.855313568553036E+05,      /* I =551 */
(PID.TID 0000.0001)                 2.899163399166100E+05,      /* I =552 */
(PID.TID 0000.0001)                 2.942570946491559E+05,      /* I =553 */
(PID.TID 0000.0001)                 2.984024308137845E+05,      /* I =554 */
(PID.TID 0000.0001)                 3.022260576657024E+05,      /* I =555 */
(PID.TID 0000.0001)                 3.056241488760194E+05,      /* I =556 */
(PID.TID 0000.0001)                 3.085127702930367E+05,      /* I =557 */
(PID.TID 0000.0001)                 3.108257038551081E+05,      /* I =558 */
(PID.TID 0000.0001)                 3.125128220876768E+05,      /* I =559 */
(PID.TID 0000.0001)                 3.135389817733773E+05,      /* I =560 */
(PID.TID 0000.0001)                 3.138833384868975E+05,      /* I =561 */
(PID.TID 0000.0001)                 3.135389817733773E+05,      /* I =562 */
(PID.TID 0000.0001)                 3.125128220876768E+05,      /* I =563 */
(PID.TID 0000.0001)                 3.108257038551081E+05,      /* I =564 */
(PID.TID 0000.0001)                 3.085127702930367E+05,      /* I =565 */
(PID.TID 0000.0001)                 3.056241488760194E+05,      /* I =566 */
(PID.TID 0000.0001)                 3.022260576657024E+05,      /* I =567 */
(PID.TID 0000.0001)                 2.984024308137845E+05,      /* I =568 */
(PID.TID 0000.0001)                 2.942570946491559E+05,      /* I =569 */
(PID.TID 0000.0001)                 2.899163399166100E+05,      /* I =570 */
(PID.TID 0000.0001)                 2.855313568553036E+05,      /* I =571 */
(PID.TID 0000.0001)                 2.812793628380409E+05,      /* I =572 */
(PID.TID 0000.0001)                 2.773613965982297E+05,      /* I =573 */
(PID.TID 0000.0001)                 2.739940126543603E+05,      /* I =574 */
(PID.TID 0000.0001)                 2.713923099681594E+05,      /* I =575 */
(PID.TID 0000.0001)                 2.697440110688748E+05,      /* I =576 */
(PID.TID 0000.0001)                 3.011625828699101E+05,      /* I =577 */
(PID.TID 0000.0001)                 3.013880313304323E+05,      /* I =578 */
(PID.TID 0000.0001)                 3.020546438966793E+05,      /* I =579 */
(PID.TID 0000.0001)                 3.031337933484788E+05,      /* I =580 */
(PID.TID 0000.0001)                 3.045796060304602E+05,      /* I =581 */
(PID.TID 0000.0001)                 3.063315047037455E+05,      /* I =582 */
(PID.TID 0000.0001)                 3.083173884297931E+05,      /* I =583 */
(PID.TID 0000.0001)                 3.104571666747115E+05,      /* I =584 */
(PID.TID 0000.0001)                 3.126663860714039E+05,      /* I =585 */
(PID.TID 0000.0001)                 3.148597400258051E+05,      /* I =586 */
(PID.TID 0000.0001)                 3.169543146344334E+05,      /* I =587 */
(PID.TID 0000.0001)                 3.188724835261090E+05,      /* I =588 */
(PID.TID 0000.0001)                 3.205444100809708E+05,      /* I =589 */
(PID.TID 0000.0001)                 3.219101453522735E+05,      /* I =590 */
(PID.TID 0000.0001)                 3.229213257990267E+05,      /* I =591 */
(PID.TID 0000.0001)                 3.235424806617432E+05,      /* I =592 */
(PID.TID 0000.0001)                 3.237519587277332E+05,      /* I =593 */
(PID.TID 0000.0001)                 3.235424806617432E+05,      /* I =594 */
(PID.TID 0000.0001)                 3.229213257990267E+05,      /* I =595 */
(PID.TID 0000.0001)                 3.219101453522735E+05,      /* I =596 */
(PID.TID 0000.0001)                 3.205444100809708E+05,      /* I =597 */
(PID.TID 0000.0001)                 3.188724835261090E+05,      /* I =598 */
(PID.TID 0000.0001)                 3.169543146344334E+05,      /* I =599 */
(PID.TID 0000.0001)                 3.148597400258051E+05,      /* I =600 */
(PID.TID 0000.0001)                 3.126663860714039E+05,      /* I =601 */
(PID.TID 0000.0001)                 3.104571666747115E+05,      /* I =602 */
(PID.TID 0000.0001)                 3.083173884297931E+05,      /* I =603 */
(PID.TID 0000.0001)                 3.063315047037455E+05,      /* I =604 */
(PID.TID 0000.0001)                 3.045796060304602E+05,      /* I =605 */
(PID.TID 0000.0001)                 3.031337933484788E+05,      /* I =606 */
(PID.TID 0000.0001)                 3.020546438966793E+05,      /* I =607 */
(PID.TID 0000.0001)                 3.013880313304323E+05,      /* I =608 */
(PID.TID 0000.0001)                 2.597126963772147E+05,      /* I =609 */
(PID.TID 0000.0001)                 2.604251753978458E+05,      /* I =610 */
(PID.TID 0000.0001)                 2.624913419950762E+05,      /* I =611 */
(PID.TID 0000.0001)                 2.657171026045170E+05,      /* I =612 */
(PID.TID 0000.0001)                 2.698333765987323E+05,      /* I =613 */
(PID.TID 0000.0001)                 2.745483070885214E+05,      /* I =614 */
(PID.TID 0000.0001)                 2.795857322165681E+05,      /* I =615 */
(PID.TID 0000.0001)                 2.847050239641676E+05,      /* I =616 */
(PID.TID 0000.0001)                 2.897064557701324E+05,      /* I =617 */
(PID.TID 0000.0001)                 2.944285521457881E+05,      /* I =618 */
(PID.TID 0000.0001)                 2.987424211573701E+05,      /* I =619 */
(PID.TID 0000.0001)                 3.025458844490738E+05,      /* I =620 */
(PID.TID 0000.0001)                 3.057585931291658E+05,      /* I =621 */
(PID.TID 0000.0001)                 3.083184102117021E+05,      /* I =622 */
(PID.TID 0000.0001)                 3.101789360579298E+05,      /* I =623 */
(PID.TID 0000.0001)                 3.113079261689634E+05,      /* I =624 */
(PID.TID 0000.0001)                 3.116863538419811E+05,      /* I =625 */
(PID.TID 0000.0001)                 3.113079261689634E+05,      /* I =626 */
(PID.TID 0000.0001)                 3.101789360579298E+05,      /* I =627 */
(PID.TID 0000.0001)                 3.083184102117021E+05,      /* I =628 */
(PID.TID 0000.0001)                 3.057585931291658E+05,      /* I =629 */
(PID.TID 0000.0001)                 3.025458844490738E+05,      /* I =630 */
(PID.TID 0000.0001)                 2.987424211573701E+05,      /* I =631 */
(PID.TID 0000.0001)                 2.944285521457881E+05,      /* I =632 */
(PID.TID 0000.0001)                 2.897064557701324E+05,      /* I =633 */
(PID.TID 0000.0001)                 2.847050239641676E+05,      /* I =634 */
(PID.TID 0000.0001)                 2.795857322165681E+05,      /* I =635 */
(PID.TID 0000.0001)                 2.745483070885214E+05,      /* I =636 */
(PID.TID 0000.0001)                 2.698333765987323E+05,      /* I =637 */
(PID.TID 0000.0001)                 2.657171026045170E+05,      /* I =638 */
(PID.TID 0000.0001)                 2.624913419950762E+05,      /* I =639 */
(PID.TID 0000.0001)                 2.604251753978458E+05,      /* I =640 */
(PID.TID 0000.0001)                 1.009837800879055E+05,      /* I =641 */
(PID.TID 0000.0001)                 1.403701524205398E+05,      /* I =642 */
(PID.TID 0000.0001)                 1.716197227386011E+05,      /* I =643 */
(PID.TID 0000.0001)                 1.950254041626018E+05,      /* I =644 */
(PID.TID 0000.0001)                 2.138410773065497E+05,      /* I =645 */
(PID.TID 0000.0001)                 2.295958105911512E+05,      /* I =646 */
(PID.TID 0000.0001)                 2.430829951739083E+05,      /* I =647 */
(PID.TID 0000.0001)                 2.547526806712889E+05,      /* I =648 */
(PID.TID 0000.0001)                 2.648750305193301E+05,      /* I =649 */
(PID.TID 0000.0001)                 2.736173771018112E+05,      /* I =650 */
(PID.TID 0000.0001)                 2.810845823202647E+05,      /* I =651 */
(PID.TID 0000.0001)                 2.873420591008078E+05,      /* I =652 */
(PID.TID 0000.0001)                 2.924298293668651E+05,      /* I =653 */
(PID.TID 0000.0001)                 2.963715635865306E+05,      /* I =654 */
(PID.TID 0000.0001)                 2.991805843171258E+05,      /* I =655 */
(PID.TID 0000.0001)                 3.008638765647886E+05,      /* I =656 */
(PID.TID 0000.0001)                 3.014246674484008E+05,      /* I =657 */
(PID.TID 0000.0001)                 3.008638765647886E+05,      /* I =658 */
(PID.TID 0000.0001)                 2.991805843171258E+05,      /* I =659 */
(PID.TID 0000.0001)                 2.963715635865306E+05,      /* I =660 */
(PID.TID 0000.0001)                 2.924298293668651E+05,      /* I =661 */
(PID.TID 0000.0001)                 2.873420591008078E+05,      /* I =662 */
(PID.TID 0000.0001)                 2.810845823202647E+05,      /* I =663 */
(PID.TID 0000.0001)                 2.736173771018112E+05,      /* I =664 */
(PID.TID 0000.0001)                 2.648750305193301E+05,      /* I =665 */
(PID.TID 0000.0001)                 2.547526806712889E+05,      /* I =666 */
(PID.TID 0000.0001)                 2.430829951739083E+05,      /* I =667 */
(PID.TID 0000.0001)                 2.295958105911512E+05,      /* I =668 */
(PID.TID 0000.0001)                 2.138410773065497E+05,      /* I =669 */
(PID.TID 0000.0001)                 1.950254041626018E+05,      /* I =670 */
(PID.TID 0000.0001)                 1.716197227386011E+05,      /* I =671 */
(PID.TID 0000.0001)                 1.403701524205398E+05,      /* I =672 */
(PID.TID 0000.0001)                 2.691790288994575E+05,      /* I =673 */
(PID.TID 0000.0001)                 2.697440110688748E+05,      /* I =674 */
(PID.TID 0000.0001)                 2.713923099681594E+05,      /* I =675 */
(PID.TID 0000.0001)                 2.739940126543603E+05,      /* I =676 */
(PID.TID 0000.0001)                 2.773613965982297E+05,      /* I =677 */
(PID.TID 0000.0001)                 2.812793628380409E+05,      /* I =678 */
(PID.TID 0000.0001)                 2.855313568553036E+05,      /* I =679 */
(PID.TID 0000.0001)                 2.899163399166100E+05,      /* I =680 */
(PID.TID 0000.0001)                 2.942570946491559E+05,      /* I =681 */
(PID.TID 0000.0001)                 2.984024308137845E+05,      /* I =682 */
(PID.TID 0000.0001)                 3.022260576657024E+05,      /* I =683 */
(PID.TID 0000.0001)                 3.056241488760194E+05,      /* I =684 */
(PID.TID 0000.0001)                 3.085127702930367E+05,      /* I =685 */
(PID.TID 0000.0001)                 3.108257038551081E+05,      /* I =686 */
(PID.TID 0000.0001)                 3.125128220876768E+05,      /* I =687 */
(PID.TID 0000.0001)                 3.135389817733773E+05,      /* I =688 */
(PID.TID 0000.0001)                 3.138833384868975E+05,      /* I =689 */
(PID.TID 0000.0001)                 3.135389817733773E+05,      /* I =690 */
(PID.TID 0000.0001)                 3.125128220876768E+05,      /* I =691 */
(PID.TID 0000.0001)                 3.108257038551081E+05,      /* I =692 */
(PID.TID 0000.0001)                 3.085127702930367E+05,      /* I =693 */
(PID.TID 0000.0001)                 3.056241488760194E+05,      /* I =694 */
(PID.TID 0000.0001)                 3.022260576657024E+05,      /* I =695 */
(PID.TID 0000.0001)                 2.984024308137845E+05,      /* I =696 */
(PID.TID 0000.0001)                 2.942570946491559E+05,      /* I =697 */
(PID.TID 0000.0001)                 2.899163399166100E+05,      /* I =698 */
(PID.TID 0000.0001)                 2.855313568553036E+05,      /* I =699 */
(PID.TID 0000.0001)                 2.812793628380409E+05,      /* I =700 */
(PID.TID 0000.0001)                 2.773613965982297E+05,      /* I =701 */
(PID.TID 0000.0001)                 2.739940126543603E+05,      /* I =702 */
(PID.TID 0000.0001)                 2.713923099681594E+05,      /* I =703 */
(PID.TID 0000.0001)                 2.697440110688748E+05,      /* I =704 */
(PID.TID 0000.0001)                 3.011625828699101E+05,      /* I =705 */
(PID.TID 0000.0001)                 3.013880313304323E+05,      /* I =706 */
(PID.TID 0000.0001)                 3.020546438966793E+05,      /* I =707 */
(PID.TID 0000.0001)                 3.031337933484788E+05,      /* I =708 */
(PID.TID 0000.0001)                 3.045796060304602E+05,      /* I =709 */
(PID.TID 0000.0001)                 3.063315047037455E+05,      /* I =710 */
(PID.TID 0000.0001)                 3.083173884297931E+05,      /* I =711 */
(PID.TID 0000.0001)                 3.104571666747115E+05,      /* I =712 */
(PID.TID 0000.0001)                 3.126663860714039E+05,      /* I =713 */
(PID.TID 0000.0001)                 3.148597400258051E+05,      /* I =714 */
(PID.TID 0000.0001)                 3.169543146344334E+05,      /* I =715 */
(PID.TID 0000.0001)                 3.188724835261090E+05,      /* I =716 */
(PID.TID 0000.0001)                 3.205444100809708E+05,      /* I =717 */
(PID.TID 0000.0001)                 3.219101453522735E+05,      /* I =718 */
(PID.TID 0000.0001)                 3.229213257990267E+05,      /* I =719 */
(PID.TID 0000.0001)                 3.235424806617432E+05,      /* I =720 */
(PID.TID 0000.0001)                 3.237519587277332E+05,      /* I =721 */
(PID.TID 0000.0001)                 3.235424806617432E+05,      /* I =722 */
(PID.TID 0000.0001)                 3.229213257990267E+05,      /* I =723 */
(PID.TID 0000.0001)                 3.219101453522735E+05,      /* I =724 */
(PID.TID 0000.0001)                 3.205444100809708E+05,      /* I =725 */
(PID.TID 0000.0001)                 3.188724835261090E+05,      /* I =726 */
(PID.TID 0000.0001)                 3.169543146344334E+05,      /* I =727 */
(PID.TID 0000.0001)                 3.148597400258051E+05,      /* I =728 */
(PID.TID 0000.0001)                 3.126663860714039E+05,      /* I =729 */
(PID.TID 0000.0001)                 3.104571666747115E+05,      /* I =730 */
(PID.TID 0000.0001)                 3.083173884297931E+05,      /* I =731 */
(PID.TID 0000.0001)                 3.063315047037455E+05,      /* I =732 */
(PID.TID 0000.0001)                 3.045796060304602E+05,      /* I =733 */
(PID.TID 0000.0001)                 3.031337933484788E+05,      /* I =734 */
(PID.TID 0000.0001)                 3.020546438966793E+05,      /* I =735 */
(PID.TID 0000.0001)                 3.013880313304323E+05,      /* I =736 */
(PID.TID 0000.0001)                 2.597126963772147E+05,      /* I =737 */
(PID.TID 0000.0001)                 2.604251753978458E+05,      /* I =738 */
(PID.TID 0000.0001)                 2.624913419950762E+05,      /* I =739 */
(PID.TID 0000.0001)                 2.657171026045170E+05,      /* I =740 */
(PID.TID 0000.0001)                 2.698333765987323E+05,      /* I =741 */
(PID.TID 0000.0001)                 2.745483070885214E+05,      /* I =742 */
(PID.TID 0000.0001)                 2.795857322165681E+05,      /* I =743 */
(PID.TID 0000.0001)                 2.847050239641676E+05,      /* I =744 */
(PID.TID 0000.0001)                 2.897064557701324E+05,      /* I =745 */
(PID.TID 0000.0001)                 2.944285521457881E+05,      /* I =746 */
(PID.TID 0000.0001)                 2.987424211573701E+05,      /* I =747 */
(PID.TID 0000.0001)                 3.025458844490738E+05,      /* I =748 */
(PID.TID 0000.0001)                 3.057585931291658E+05,      /* I =749 */
(PID.TID 0000.0001)                 3.083184102117021E+05,      /* I =750 */
(PID.TID 0000.0001)                 3.101789360579298E+05,      /* I =751 */
(PID.TID 0000.0001)                 3.113079261689634E+05,      /* I =752 */
(PID.TID 0000.0001)                 3.116863538419811E+05,      /* I =753 */
(PID.TID 0000.0001)                 3.113079261689634E+05,      /* I =754 */
(PID.TID 0000.0001)                 3.101789360579298E+05,      /* I =755 */
(PID.TID 0000.0001)                 3.083184102117021E+05,      /* I =756 */
(PID.TID 0000.0001)                 3.057585931291658E+05,      /* I =757 */
(PID.TID 0000.0001)                 3.025458844490738E+05,      /* I =758 */
(PID.TID 0000.0001)                 2.987424211573701E+05,      /* I =759 */
(PID.TID 0000.0001)                 2.944285521457881E+05,      /* I =760 */
(PID.TID 0000.0001)                 2.897064557701324E+05,      /* I =761 */
(PID.TID 0000.0001)                 2.847050239641676E+05,      /* I =762 */
(PID.TID 0000.0001)                 2.795857322165681E+05,      /* I =763 */
(PID.TID 0000.0001)                 2.745483070885214E+05,      /* I =764 */
(PID.TID 0000.0001)                 2.698333765987323E+05,      /* I =765 */
(PID.TID 0000.0001)                 2.657171026045170E+05,      /* I =766 */
(PID.TID 0000.0001)                 2.624913419950762E+05,      /* I =767 */
(PID.TID 0000.0001)                 2.604251753978458E+05       /* I =768 */
(PID.TID 0000.0001)     ;
(PID.TID 0000.0001) dyG =  /* dyG(1,:,1,:) ( units: m ) */
(PID.TID 0000.0001)                 1.009837800879055E+05,      /* J =  1 */
(PID.TID 0000.0001)                 1.534505834330338E+05,      /* J =  2 */
(PID.TID 0000.0001)                 1.823321598773926E+05,      /* J =  3 */
(PID.TID 0000.0001)                 2.038999045536999E+05,      /* J =  4 */
(PID.TID 0000.0001)                 2.213884732245467E+05,      /* J =  5 */
(PID.TID 0000.0001)                 2.361211699596122E+05,      /* J =  6 */
(PID.TID 0000.0001)                 2.487693460283865E+05,      /* J =  7 */
(PID.TID 0000.0001)                 2.597126963772147E+05       /* J =  8 */
(PID.TID 0000.0001)     ;
(PID.TID 0000.0001) dxC =  /* dxC(:,1,:,1) ( units: m ) */
(PID.TID 0000.0001)                 1.114203141013064E+05,      /* I =  1 */
(PID.TID 0000.0001)                 1.391343389937106E+05,      /* I =  2 */
(PID.TID 0000.0001)                 1.709574999026266E+05,      /* I =  3 */
(PID.TID 0000.0001)                 1.946503699269892E+05,      /* I =  4 */
(PID.TID 0000.0001)                 2.135964483342134E+05,      /* I =  5 */
(PID.TID 0000.0001)                 2.294195678257306E+05,      /* I =  6 */
(PID.TID 0000.0001)                 2.429464709770498E+05,      /* I =  7 */
(PID.TID 0000.0001)                 2.546408290696998E+05,      /* I =  8 */
(PID.TID 0000.0001)                 2.647791839299727E+05,      /* I =  9 */
(PID.TID 0000.0001)                 2.735321911346108E+05,      /* I = 10 */
(PID.TID 0000.0001)                 2.810065951609633E+05,      /* I = 11 */
(PID.TID 0000.0001)                 2.872689479506990E+05,      /* I = 12 */
(PID.TID 0000.0001)                 2.923599955312932E+05,      /* I = 13 */
(PID.TID 0000.0001)                 2.963038832565530E+05,      /* I = 14 */
(PID.TID 0000.0001)                 2.991142470004740E+05,      /* I = 15 */
(PID.TID 0000.0001)                 3.007982711627968E+05,      /* I = 16 */
(PID.TID 0000.0001)                 3.013593857228136E+05,      /* I = 17 */
(PID.TID 0000.0001)                 3.007982711627968E+05,      /* I = 18 */
(PID.TID 0000.0001)                 2.991142470004740E+05,      /* I = 19 */
(PID.TID 0000.0001)                 2.963038832565530E+05,      /* I = 20 */
(PID.TID 0000.0001)                 2.923599955312932E+05,      /* I = 21 */
(PID.TID 0000.0001)                 2.872689479506990E+05,      /* I = 22 */
(PID.TID 0000.0001)                 2.810065951609633E+05,      /* I = 23 */
(PID.TID 0000.0001)                 2.735321911346108E+05,      /* I = 24 */
(PID.TID 0000.0001)                 2.647791839299727E+05,      /* I = 25 */
(PID.TID 0000.0001)                 2.546408290696998E+05,      /* I = 26 */
(PID.TID 0000.0001)                 2.429464709770498E+05,      /* I = 27 */
(PID.TID 0000.0001)                 2.294195678257306E+05,      /* I = 28 */
(PID.TID 0000.0001)                 2.135964483342134E+05,      /* I = 29 */
(PID.TID 0000.0001)                 1.946503699269892E+05,      /* I = 30 */
(PID.TID 0000.0001)                 1.709574999026266E+05,      /* I = 31 */
(PID.TID 0000.0001)                 1.391343389937106E+05,      /* I = 32 */
(PID.TID 0000.0001)                 2.692787333338535E+05,      /* I = 33 */
(PID.TID 0000.0001)                 2.698316926768863E+05,      /* I = 34 */
(PID.TID 0000.0001)                 2.714713968328591E+05,      /* I = 35 */
(PID.TID 0000.0001)                 2.740607206150700E+05,      /* I = 36 */
(PID.TID 0000.0001)                 2.774139821809750E+05,      /* I = 37 */
(PID.TID 0000.0001)                 2.813178027434184E+05,      /* I = 38 */
(PID.TID 0000.0001)                 2.855567371326078E+05,      /* I = 39 */
(PID.TID 0000.0001)                 2.899302743931477E+05,      /* I = 40 */
(PID.TID 0000.0001)                 2.942613213681001E+05,      /* I = 41 */
(PID.TID 0000.0001)                 2.983985950890736E+05,      /* I = 42 */
(PID.TID 0000.0001)                 3.022156296499031E+05,      /* I = 43 */
(PID.TID 0000.0001)                 3.056084178247824E+05,      /* I = 44 */
(PID.TID 0000.0001)                 3.084928732605239E+05,      /* I = 45 */
(PID.TID 0000.0001)                 3.108026640008289E+05,      /* I = 46 */
(PID.TID 0000.0001)                 3.124875845707635E+05,      /* I = 47 */
(PID.TID 0000.0001)                 3.135124429988134E+05,      /* I = 48 */
(PID.TID 0000.0001)                 3.138564503561421E+05,      /* I = 49 */
(PID.TID 0000.0001)                 3.135124429988134E+05,      /* I = 50 */
(PID.TID 0000.0001)                 3.124875845707635E+05,      /* I = 51 */
(PID.TID 0000.0001)                 3.108026640008289E+05,      /* I = 52 */
(PID.TID 0000.0001)                 3.084928732605239E+05,      /* I = 53 */
(PID.TID 0000.0001)                 3.056084178247824E+05,      /* I = 54 */
(PID.TID 0000.0001)                 3.022156296499031E+05,      /* I = 55 */
(PID.TID 0000.0001)                 2.983985950890736E+05,      /* I = 56 */
(PID.TID 0000.0001)                 2.942613213681001E+05,      /* I = 57 */
(PID.TID 0000.0001)                 2.899302743931477E+05,      /* I = 58 */
(PID.TID 0000.0001)                 2.855567371326078E+05,      /* I = 59 */
(PID.TID 0000.0001)                 2.813178027434184E+05,      /* I = 60 */
(PID.TID 0000.0001)                 2.774139821809750E+05,      /* I = 61 */
(PID.TID 0000.0001)                 2.740607206150700E+05,      /* I = 62 */
(PID.TID 0000.0001)                 2.714713968328591E+05,      /* I = 63 */
(PID.TID 0000.0001)                 2.698316926768863E+05,      /* I = 64 */
(PID.TID 0000.0001)                 3.012281885409289E+05,      /* I = 65 */
(PID.TID 0000.0001)                 3.014528555318499E+05,      /* I = 66 */
(PID.TID 0000.0001)                 3.021172674809921E+05,      /* I = 67 */
(PID.TID 0000.0001)                 3.031928954490276E+05,      /* I = 68 */
(PID.TID 0000.0001)                 3.046340673197290E+05,      /* I = 69 */
(PID.TID 0000.0001)                 3.063804565966232E+05,      /* I = 70 */
(PID.TID 0000.0001)                 3.083602390447406E+05,      /* I = 71 */
(PID.TID 0000.0001)                 3.104936054761689E+05,      /* I = 72 */
(PID.TID 0000.0001)                 3.126963716684348E+05,      /* I = 73 */
(PID.TID 0000.0001)                 3.148834765567928E+05,      /* I = 74 */
(PID.TID 0000.0001)                 3.169722218029966E+05,      /* I = 75 */
(PID.TID 0000.0001)                 3.188851642086189E+05,      /* I = 76 */
(PID.TID 0000.0001)                 3.205526180491640E+05,      /* I = 77 */
(PID.TID 0000.0001)                 3.219147544224371E+05,      /* I = 78 */
(PID.TID 0000.0001)                 3.229233008154936E+05,      /* I = 79 */
(PID.TID 0000.0001)                 3.235428501703109E+05,      /* I = 80 */
(PID.TID 0000.0001)                 3.237518583690030E+05,      /* I = 81 */
(PID.TID 0000.0001)                 3.235428501703109E+05,      /* I = 82 */
(PID.TID 0000.0001)                 3.229233008154936E+05,      /* I = 83 */
(PID.TID 0000.0001)                 3.219147544224371E+05,      /* I = 84 */
(PID.TID 0000.0001)                 3.205526180491640E+05,      /* I = 85 */
(PID.TID 0000.0001)                 3.188851642086189E+05,      /* I = 86 */
(PID.TID 0000.0001)                 3.169722218029966E+05,      /* I = 87 */
(PID.TID 0000.0001)                 3.148834765567928E+05,      /* I = 88 */
(PID.TID 0000.0001)                 3.126963716684348E+05,      /* I = 89 */
(PID.TID 0000.0001)                 3.104936054761689E+05,      /* I = 90 */
(PID.TID 0000.0001)                 3.083602390447406E+05,      /* I = 91 */
(PID.TID 0000.0001)                 3.063804565966232E+05,      /* I = 92 */
(PID.TID 0000.0001)                 3.046340673197290E+05,      /* I = 93 */
(PID.TID 0000.0001)                 3.031928954490276E+05,      /* I = 94 */
(PID.TID 0000.0001)                 3.021172674809921E+05,      /* I = 95 */
(PID.TID 0000.0001)                 3.014528555318499E+05,      /* I = 96 */
(PID.TID 0000.0001)                 2.598293319150326E+05,      /* I = 97 */
(PID.TID 0000.0001)                 2.605247136571591E+05,      /* I = 98 */
(PID.TID 0000.0001)                 2.625781987034077E+05,      /* I = 99 */
(PID.TID 0000.0001)                 2.657864830834272E+05,      /* I =100 */
(PID.TID 0000.0001)                 2.698839526285321E+05,      /* I =101 */
(PID.TID 0000.0001)                 2.745812566278220E+05,      /* I =102 */
(PID.TID 0000.0001)                 2.796034826143155E+05,      /* I =103 */
(PID.TID 0000.0001)                 2.847102987256835E+05,      /* I =104 */
(PID.TID 0000.0001)                 2.897017600496954E+05,      /* I =105 */
(PID.TID 0000.0001)                 2.944159886434956E+05,      /* I =106 */
(PID.TID 0000.0001)                 2.987236876295224E+05,      /* I =107 */
(PID.TID 0000.0001)                 3.025223454914123E+05,      /* I =108 */
(PID.TID 0000.0001)                 3.057313676343125E+05,      /* I =109 */
(PID.TID 0000.0001)                 3.082884490394393E+05,      /* I =110 */
(PID.TID 0000.0001)                 3.101470823422900E+05,      /* I =111 */
(PID.TID 0000.0001)                 3.112749589313555E+05,      /* I =112 */
(PID.TID 0000.0001)                 3.116531025121516E+05,      /* I =113 */
(PID.TID 0000.0001)                 3.112749589313555E+05,      /* I =114 */
(PID.TID 0000.0001)                 3.101470823422900E+05,      /* I =115 */
(PID.TID 0000.0001)                 3.082884490394393E+05,      /* I =116 */
(PID.TID 0000.0001)                 3.057313676343125E+05,      /* I =117 */
(PID.TID 0000.0001)                 3.025223454914123E+05,      /* I =118 */
(PID.TID 0000.0001)                 2.987236876295224E+05,      /* I =119 */
(PID.TID 0000.0001)                 2.944159886434956E+05,      /* I =120 */
(PID.TID 0000.0001)                 2.897017600496954E+05,      /* I =121 */
(PID.TID 0000.0001)                 2.847102987256835E+05,      /* I =122 */
(PID.TID 0000.0001)                 2.796034826143155E+05,      /* I =123 */
(PID.TID 0000.0001)                 2.745812566278220E+05,      /* I =124 */
(PID.TID 0000.0001)                 2.698839526285321E+05,      /* I =125 */
(PID.TID 0000.0001)                 2.657864830834272E+05,      /* I =126 */
(PID.TID 0000.0001)                 2.625781987034077E+05,      /* I =127 */
(PID.TID 0000.0001)                 2.605247136571591E+05,      /* I =128 */
(PID.TID 0000.0001)                 1.114203141013064E+05,      /* I =129 */
(PID.TID 0000.0001)                 1.391343389937106E+05,      /* I =130 */
(PID.TID 0000.0001)                 1.709574999026266E+05,      /* I =131 */
(PID.TID 0000.0001)                 1.946503699269892E+05,      /* I =132 */
(PID.TID 0000.0001)                 2.135964483342134E+05,      /* I =133 */
(PID.TID 0000.0001)                 2.294195678257306E+05,      /* I =134 */
(PID.TID 0000.0001)                 2.429464709770498E+05,      /* I =135 */
(PID.TID 0000.0001)                 2.546408290696998E+05,      /* I =136 */
(PID.TID 0000.0001)                 2.647791839299727E+05,      /* I =137 */
(PID.TID 0000.0001)                 2.735321911346108E+05,      /* I =138 */
(PID.TID 0000.0001)                 2.810065951609633E+05,      /* I =139 */
(PID.TID 0000.0001)                 2.872689479506990E+05,      /* I =140 */
(PID.TID 0000.0001)                 2.923599955312932E+05,      /* I =141 */
(PID.TID 0000.0001)                 2.963038832565530E+05,      /* I =142 */
(PID.TID 0000.0001)                 2.991142470004740E+05,      /* I =143 */
(PID.TID 0000.0001)                 3.007982711627968E+05,      /* I =144 */
(PID.TID 0000.0001)                 3.013593857228136E+05,      /* I =145 */
(PID.TID 0000.0001)                 3.007982711627968E+05,      /* I =146 */
(PID.TID 0000.0001)                 2.991142470004740E+05,      /* I =147 */
(PID.TID 0000.0001)                 2.963038832565530E+05,      /* I =148 */
(PID.TID 0000.0001)                 2.923599955312932E+05,      /* I =149 */
(PID.TID 0000.0001)                 2.872689479506990E+05,      /* I =150 */
(PID.TID 0000.0001)                 2.810065951609633E+05,      /* I =151 */
(PID.TID 0000.0001)                 2.735321911346108E+05,      /* I =152 */
(PID.TID 0000.0001)                 2.647791839299727E+05,      /* I =153 */
(PID.TID 0000.0001)                 2.546408290696998E+05,      /* I =154 */
(PID.TID 0000.0001)                 2.429464709770498E+05,      /* I =155 */
(PID.TID 0000.0001)                 2.294195678257306E+05,      /* I =156 */
(PID.TID 0000.0001)                 2.135964483342134E+05,      /* I =157 */
(PID.TID 0000.0001)                 1.946503699269892E+05,      /* I =158 */
(PID.TID 0000.0001)                 1.709574999026266E+05,      /* I =159 */
(PID.TID 0000.0001)                 1.391343389937106E+05,      /* I =160 */
(PID.TID 0000.0001)                 2.692787333338535E+05,      /* I =161 */
(PID.TID 0000.0001)                 2.698316926768863E+05,      /* I =162 */
(PID.TID 0000.0001)                 2.714713968328591E+05,      /* I =163 */
(PID.TID 0000.0001)                 2.740607206150700E+05,      /* I =164 */
(PID.TID 0000.0001)                 2.774139821809750E+05,      /* I =165 */
(PID.TID 0000.0001)                 2.813178027434184E+05,      /* I =166 */
(PID.TID 0000.0001)                 2.855567371326078E+05,      /* I =167 */
(PID.TID 0000.0001)                 2.899302743931477E+05,      /* I =168 */
(PID.TID 0000.0001)                 2.942613213681001E+05,      /* I =169 */
(PID.TID 0000.0001)                 2.983985950890736E+05,      /* I =170 */
(PID.TID 0000.0001)                 3.022156296499031E+05,      /* I =171 */
(PID.TID 0000.0001)                 3.056084178247824E+05,      /* I =172 */
(PID.TID 0000.0001)                 3.084928732605239E+05,      /* I =173 */
(PID.TID 0000.0001)                 3.108026640008289E+05,      /* I =174 */
(PID.TID 0000.0001)                 3.124875845707635E+05,      /* I =175 */
(PID.TID 0000.0001)                 3.135124429988134E+05,      /* I =176 */
(PID.TID 0000.0001)                 3.138564503561421E+05,      /* I =177 */
(PID.TID 0000.0001)                 3.135124429988134E+05,      /* I =178 */
(PID.TID 0000.0001)                 3.124875845707635E+05,      /* I =179 */
(PID.TID 0000.0001)                 3.108026640008289E+05,      /* I =180 */
(PID.TID 0000.0001)                 3.084928732605239E+05,      /* I =181 */
(PID.TID 0000.0001)                 3.056084178247824E+05,      /* I =182 */
(PID.TID 0000.0001)                 3.022156296499031E+05,      /* I =183 */
(PID.TID 0000.0001)                 2.983985950890736E+05,      /* I =184 */
(PID.TID 0000.0001)                 2.942613213681001E+05,      /* I =185 */
(PID.TID 0000.0001)                 2.899302743931477E+05,      /* I =186 */
(PID.TID 0000.0001)                 2.855567371326078E+05,      /* I =187 */
(PID.TID 0000.0001)                 2.813178027434184E+05,      /* I =188 */
(PID.TID 0000.0001)                 2.774139821809750E+05,      /* I =189 */
(PID.TID 0000.0001)                 2.740607206150700E+05,      /* I =190 */
(PID.TID 0000.0001)                 2.714713968328591E+05,      /* I =191 */
(PID.TID 0000.0001)                 2.698316926768863E+05,      /* I =192 */
(PID.TID 0000.0001)                 3.012281885409289E+05,      /* I =193 */
(PID.TID 0000.0001)                 3.014528555318499E+05,      /* I =194 */
(PID.TID 0000.0001)                 3.021172674809921E+05,      /* I =195 */
(PID.TID 0000.0001)                 3.031928954490276E+05,      /* I =196 */
(PID.TID 0000.0001)                 3.046340673197290E+05,      /* I =197 */
(PID.TID 0000.0001)                 3.063804565966232E+05,      /* I =198 */
(PID.TID 0000.0001)                 3.083602390447406E+05,      /* I =199 */
(PID.TID 0000.0001)                 3.104936054761689E+05,      /* I =200 */
(PID.TID 0000.0001)                 3.126963716684348E+05,      /* I =201 */
(PID.TID 0000.0001)                 3.148834765567928E+05,      /* I =202 */
(PID.TID 0000.0001)                 3.169722218029966E+05,      /* I =203 */
(PID.TID 0000.0001)                 3.188851642086189E+05,      /* I =204 */
(PID.TID 0000.0001)                 3.205526180491640E+05,      /* I =205 */
(PID.TID 0000.0001)                 3.219147544224371E+05,      /* I =206 */
(PID.TID 0000.0001)                 3.229233008154936E+05,      /* I =207 */
(PID.TID 0000.0001)                 3.235428501703109E+05,      /* I =208 */
(PID.TID 0000.0001)                 3.237518583690030E+05,      /* I =209 */
(PID.TID 0000.0001)                 3.235428501703109E+05,      /* I =210 */
(PID.TID 0000.0001)                 3.229233008154936E+05,      /* I =211 */
(PID.TID 0000.0001)                 3.219147544224371E+05,      /* I =212 */
(PID.TID 0000.0001)                 3.205526180491640E+05,      /* I =213 */
(PID.TID 0000.0001)                 3.188851642086189E+05,      /* I =214 */
(PID.TID 0000.0001)                 3.169722218029966E+05,      /* I =215 */
(PID.TID 0000.0001)                 3.148834765567928E+05,      /* I =216 */
(PID.TID 0000.0001)                 3.126963716684348E+05,      /* I =217 */
(PID.TID 0000.0001)                 3.104936054761689E+05,      /* I =218 */
(PID.TID 0000.0001)                 3.083602390447406E+05,      /* I =219 */
(PID.TID 0000.0001)                 3.063804565966232E+05,      /* I =220 */
(PID.TID 0000.0001)                 3.046340673197290E+05,      /* I =221 */
(PID.TID 0000.0001)                 3.031928954490276E+05,      /* I =222 */
(PID.TID 0000.0001)                 3.021172674809921E+05,      /* I =223 */
(PID.TID 0000.0001)                 3.014528555318499E+05,      /* I =224 */
(PID.TID 0000.0001)                 2.598293319150326E+05,      /* I =225 */
(PID.TID 0000.0001)                 2.605247136571591E+05,      /* I =226 */
(PID.TID 0000.0001)                 2.625781987034077E+05,      /* I =227 */
(PID.TID 0000.0001)                 2.657864830834272E+05,      /* I =228 */
(PID.TID 0000.0001)                 2.698839526285321E+05,      /* I =229 */
(PID.TID 0000.0001)                 2.745812566278220E+05,      /* I =230 */
(PID.TID 0000.0001)                 2.796034826143155E+05,      /* I =231 */
(PID.TID 0000.0001)                 2.847102987256835E+05,      /* I =232 */
(PID.TID 0000.0001)                 2.897017600496954E+05,      /* I =233 */
(PID.TID 0000.0001)                 2.944159886434956E+05,      /* I =234 */
(PID.TID 0000.0001)                 2.987236876295224E+05,      /* I =235 */
(PID.TID 0000.0001)                 3.025223454914123E+05,      /* I =236 */
(PID.TID 0000.0001)                 3.057313676343125E+05,      /* I =237 */
(PID.TID 0000.0001)                 3.082884490394393E+05,      /* I =238 */
(PID.TID 0000.0001)                 3.101470823422900E+05,      /* I =239 */
(PID.TID 0000.0001)                 3.112749589313555E+05,      /* I =240 */
(PID.TID 0000.0001)                 3.116531025121516E+05,      /* I =241 */
(PID.TID 0000.0001)                 3.112749589313555E+05,      /* I =242 */
(PID.TID 0000.0001)                 3.101470823422900E+05,      /* I =243 */
(PID.TID 0000.0001)                 3.082884490394393E+05,      /* I =244 */
(PID.TID 0000.0001)                 3.057313676343125E+05,      /* I =245 */
(PID.TID 0000.0001)                 3.025223454914123E+05,      /* I =246 */
(PID.TID 0000.0001)                 2.987236876295224E+05,      /* I =247 */
(PID.TID 0000.0001)                 2.944159886434956E+05,      /* I =248 */
(PID.TID 0000.0001)                 2.897017600496954E+05,      /* I =249 */
(PID.TID 0000.0001)                 2.847102987256835E+05,      /* I =250 */
(PID.TID 0000.0001)                 2.796034826143155E+05,      /* I =251 */
(PID.TID 0000.0001)                 2.745812566278220E+05,      /* I =252 */
(PID.TID 0000.0001)                 2.698839526285321E+05,      /* I =253 */
(PID.TID 0000.0001)                 2.657864830834272E+05,      /* I =254 */
(PID.TID 0000.0001)                 2.625781987034077E+05,      /* I =255 */
(PID.TID 0000.0001)                 2.605247136571591E+05,      /* I =256 */
(PID.TID 0000.0001)                 1.114203141013064E+05,      /* I =257 */
(PID.TID 0000.0001)                 1.391343389937106E+05,      /* I =258 */
(PID.TID 0000.0001)                 1.709574999026266E+05,      /* I =259 */
(PID.TID 0000.0001)                 1.946503699269892E+05,      /* I =260 */
(PID.TID 0000.0001)                 2.135964483342134E+05,      /* I =261 */
(PID.TID 0000.0001)                 2.294195678257306E+05,      /* I =262 */
(PID.TID 0000.0001)                 2.429464709770498E+05,      /* I =263 */
(PID.TID 0000.0001)                 2.546408290696998E+05,      /* I =264 */
(PID.TID 0000.0001)                 2.647791839299727E+05,      /* I =265 */
(PID.TID 0000.0001)                 2.735321911346108E+05,      /* I =266 */
(PID.TID 0000.0001)                 2.810065951609633E+05,      /* I =267 */
(PID.TID 0000.0001)                 2.872689479506990E+05,      /* I =268 */
(PID.TID 0000.0001)                 2.923599955312932E+05,      /* I =269 */
(PID.TID 0000.0001)                 2.963038832565530E+05,      /* I =270 */
(PID.TID 0000.0001)                 2.991142470004740E+05,      /* I =271 */
(PID.TID 0000.0001)                 3.007982711627968E+05,      /* I =272 */
(PID.TID 0000.0001)                 3.013593857228136E+05,      /* I =273 */
(PID.TID 0000.0001)                 3.007982711627968E+05,      /* I =274 */
(PID.TID 0000.0001)                 2.991142470004740E+05,      /* I =275 */
(PID.TID 0000.0001)                 2.963038832565530E+05,      /* I =276 */
(PID.TID 0000.0001)                 2.923599955312932E+05,      /* I =277 */
(PID.TID 0000.0001)                 2.872689479506990E+05,      /* I =278 */
(PID.TID 0000.0001)                 2.810065951609633E+05,      /* I =279 */
(PID.TID 0000.0001)                 2.735321911346108E+05,      /* I =280 */
(PID.TID 0000.0001)                 2.647791839299727E+05,      /* I =281 */
(PID.TID 0000.0001)                 2.546408290696998E+05,      /* I =282 */
(PID.TID 0000.0001)                 2.429464709770498E+05,      /* I =283 */
(PID.TID 0000.0001)                 2.294195678257306E+05,      /* I =284 */
(PID.TID 0000.0001)                 2.135964483342134E+05,      /* I =285 */
(PID.TID 0000.0001)                 1.946503699269892E+05,      /* I =286 */
(PID.TID 0000.0001)                 1.709574999026266E+05,      /* I =287 */
(PID.TID 0000.0001)                 1.391343389937106E+05,      /* I =288 */
(PID.TID 0000.0001)                 2.692787333338535E+05,      /* I =289 */
(PID.TID 0000.0001)                 2.698316926768863E+05,      /* I =290 */
(PID.TID 0000.0001)                 2.714713968328591E+05,      /* I =291 */
(PID.TID 0000.0001)                 2.740607206150700E+05,      /* I =292 */
(PID.TID 0000.0001)                 2.774139821809750E+05,      /* I =293 */
(PID.TID 0000.0001)                 2.813178027434184E+05,      /* I =294 */
(PID.TID 0000.0001)                 2.855567371326078E+05,      /* I =295 */
(PID.TID 0000.0001)                 2.899302743931477E+05,      /* I =296 */
(PID.TID 0000.0001)                 2.942613213681001E+05,      /* I =297 */
(PID.TID 0000.0001)                 2.983985950890736E+05,      /* I =298 */
(PID.TID 0000.0001)                 3.022156296499031E+05,      /* I =299 */
(PID.TID 0000.0001)                 3.056084178247824E+05,      /* I =300 */
(PID.TID 0000.0001)                 3.084928732605239E+05,      /* I =301 */
(PID.TID 0000.0001)                 3.108026640008289E+05,      /* I =302 */
(PID.TID 0000.0001)                 3.124875845707635E+05,      /* I =303 */
(PID.TID 0000.0001)                 3.135124429988134E+05,      /* I =304 */
(PID.TID 0000.0001)                 3.138564503561421E+05,      /* I =305 */
(PID.TID 0000.0001)                 3.135124429988134E+05,      /* I =306 */
(PID.TID 0000.0001)                 3.124875845707635E+05,      /* I =307 */
(PID.TID 0000.0001)                 3.108026640008289E+05,      /* I =308 */
(PID.TID 0000.0001)                 3.084928732605239E+05,      /* I =309 */
(PID.TID 0000.0001)                 3.056084178247824E+05,      /* I =310 */
(PID.TID 0000.0001)                 3.022156296499031E+05,      /* I =311 */
(PID.TID 0000.0001)                 2.983985950890736E+05,      /* I =312 */
(PID.TID 0000.0001)                 2.942613213681001E+05,      /* I =313 */
(PID.TID 0000.0001)                 2.899302743931477E+05,      /* I =314 */
(PID.TID 0000.0001)                 2.855567371326078E+05,      /* I =315 */
(PID.TID 0000.0001)                 2.813178027434184E+05,      /* I =316 */
(PID.TID 0000.0001)                 2.774139821809750E+05,      /* I =317 */
(PID.TID 0000.0001)                 2.740607206150700E+05,      /* I =318 */
(PID.TID 0000.0001)                 2.714713968328591E+05,      /* I =319 */
(PID.TID 0000.0001)                 2.698316926768863E+05,      /* I =320 */
(PID.TID 0000.0001)                 3.012281885409289E+05,      /* I =321 */
(PID.TID 0000.0001)                 3.014528555318499E+05,      /* I =322 */
(PID.TID 0000.0001)                 3.021172674809921E+05,      /* I =323 */
(PID.TID 0000.0001)                 3.031928954490276E+05,      /* I =324 */
(PID.TID 0000.0001)                 3.046340673197290E+05,      /* I =325 */
(PID.TID 0000.0001)                 3.063804565966232E+05,      /* I =326 */
(PID.TID 0000.0001)                 3.083602390447406E+05,      /* I =327 */
(PID.TID 0000.0001)                 3.104936054761689E+05,      /* I =328 */
(PID.TID 0000.0001)                 3.126963716684348E+05,      /* I =329 */
(PID.TID 0000.0001)                 3.148834765567928E+05,      /* I =330 */
(PID.TID 0000.0001)                 3.169722218029966E+05,      /* I =331 */
(PID.TID 0000.0001)                 3.188851642086189E+05,      /* I =332 */
(PID.TID 0000.0001)                 3.205526180491640E+05,      /* I =333 */
(PID.TID 0000.0001)                 3.219147544224371E+05,      /* I =334 */
(PID.TID 0000.0001)                 3.229233008154936E+05,      /* I =335 */
(PID.TID 0000.0001)                 3.235428501703109E+05,      /* I =336 */
(PID.TID 0000.0001)                 3.237518583690030E+05,      /* I =337 */
(PID.TID 0000.0001)                 3.235428501703109E+05,      /* I =338 */
(PID.TID 0000.0001)                 3.229233008154936E+05,      /* I =339 */
(PID.TID 0000.0001)                 3.219147544224371E+05,      /* I =340 */
(PID.TID 0000.0001)                 3.205526180491640E+05,      /* I =341 */
(PID.TID 0000.0001)                 3.188851642086189E+05,      /* I =342 */
(PID.TID 0000.0001)                 3.169722218029966E+05,      /* I =343 */
(PID.TID 0000.0001)                 3.148834765567928E+05,      /* I =344 */
(PID.TID 0000.0001)                 3.126963716684348E+05,      /* I =345 */
(PID.TID 0000.0001)                 3.104936054761689E+05,      /* I =346 */
(PID.TID 0000.0001)                 3.083602390447406E+05,      /* I =347 */
(PID.TID 0000.0001)                 3.063804565966232E+05,      /* I =348 */
(PID.TID 0000.0001)                 3.046340673197290E+05,      /* I =349 */
(PID.TID 0000.0001)                 3.031928954490276E+05,      /* I =350 */
(PID.TID 0000.0001)                 3.021172674809921E+05,      /* I =351 */
(PID.TID 0000.0001)                 3.014528555318499E+05,      /* I =352 */
(PID.TID 0000.0001)                 2.598293319150326E+05,      /* I =353 */
(PID.TID 0000.0001)                 2.605247136571591E+05,      /* I =354 */
(PID.TID 0000.0001)                 2.625781987034077E+05,      /* I =355 */
(PID.TID 0000.0001)                 2.657864830834272E+05,      /* I =356 */
(PID.TID 0000.0001)                 2.698839526285321E+05,      /* I =357 */
(PID.TID 0000.0001)                 2.745812566278220E+05,      /* I =358 */
(PID.TID 0000.0001)                 2.796034826143155E+05,      /* I =359 */
(PID.TID 0000.0001)                 2.847102987256835E+05,      /* I =360 */
(PID.TID 0000.0001)                 2.897017600496954E+05,      /* I =361 */
(PID.TID 0000.0001)                 2.944159886434956E+05,      /* I =362 */
(PID.TID 0000.0001)                 2.987236876295224E+05,      /* I =363 */
(PID.TID 0000.0001)                 3.025223454914123E+05,      /* I =364 */
(PID.TID 0000.0001)                 3.057313676343125E+05,      /* I =365 */
(PID.TID 0000.0001)                 3.082884490394393E+05,      /* I =366 */
(PID.TID 0000.0001)                 3.101470823422900E+05,      /* I =367 */
(PID.TID 0000.0001)                 3.112749589313555E+05,      /* I =368 */
(PID.TID 0000.0001)                 3.116531025121516E+05,      /* I =369 */
(PID.TID 0000.0001)                 3.112749589313555E+05,      /* I =370 */
(PID.TID 0000.0001)                 3.101470823422900E+05,      /* I =371 */
(PID.TID 0000.0001)                 3.082884490394393E+05,      /* I =372 */
(PID.TID 0000.0001)                 3.057313676343125E+05,      /* I =373 */
(PID.TID 0000.0001)                 3.025223454914123E+05,      /* I =374 */
(PID.TID 0000.0001)                 2.987236876295224E+05,      /* I =375 */
(PID.TID 0000.0001)                 2.944159886434956E+05,      /* I =376 */
(PID.TID 0000.0001)                 2.897017600496954E+05,      /* I =377 */
(PID.TID 0000.0001)                 2.847102987256835E+05,      /* I =378 */
(PID.TID 0000.0001)                 2.796034826143155E+05,      /* I =379 */
(PID.TID 0000.0001)                 2.745812566278220E+05,      /* I =380 */
(PID.TID 0000.0001)                 2.698839526285321E+05,      /* I =381 */
(PID.TID 0000.0001)                 2.657864830834272E+05,      /* I =382 */
(PID.TID 0000.0001)                 2.625781987034077E+05,      /* I =383 */
(PID.TID 0000.0001)                 2.605247136571591E+05,      /* I =384 */
(PID.TID 0000.0001)                 1.114203141013064E+05,      /* I =385 */
(PID.TID 0000.0001)                 1.391343389937106E+05,      /* I =386 */
(PID.TID 0000.0001)                 1.709574999026266E+05,      /* I =387 */
(PID.TID 0000.0001)                 1.946503699269892E+05,      /* I =388 */
(PID.TID 0000.0001)                 2.135964483342134E+05,      /* I =389 */
(PID.TID 0000.0001)                 2.294195678257306E+05,      /* I =390 */
(PID.TID 0000.0001)                 2.429464709770498E+05,      /* I =391 */
(PID.TID 0000.0001)                 2.546408290696998E+05,      /* I =392 */
(PID.TID 0000.0001)                 2.647791839299727E+05,      /* I =393 */
(PID.TID 0000.0001)                 2.735321911346108E+05,      /* I =394 */
(PID.TID 0000.0001)                 2.810065951609633E+05,      /* I =395 */
(PID.TID 0000.0001)                 2.872689479506990E+05,      /* I =396 */
(PID.TID 0000.0001)                 2.923599955312932E+05,      /* I =397 */
(PID.TID 0000.0001)                 2.963038832565530E+05,      /* I =398 */
(PID.TID 0000.0001)                 2.991142470004740E+05,      /* I =399 */
(PID.TID 0000.0001)                 3.007982711627968E+05,      /* I =400 */
(PID.TID 0000.0001)                 3.013593857228136E+05,      /* I =401 */
(PID.TID 0000.0001)                 3.007982711627968E+05,      /* I =402 */
(PID.TID 0000.0001)                 2.991142470004740E+05,      /* I =403 */
(PID.TID 0000.0001)                 2.963038832565530E+05,      /* I =404 */
(PID.TID 0000.0001)                 2.923599955312932E+05,      /* I =405 */
(PID.TID 0000.0001)                 2.872689479506990E+05,      /* I =406 */
(PID.TID 0000.0001)                 2.810065951609633E+05,      /* I =407 */
(PID.TID 0000.0001)                 2.735321911346108E+05,      /* I =408 */
(PID.TID 0000.0001)                 2.647791839299727E+05,      /* I =409 */
(PID.TID 0000.0001)                 2.546408290696998E+05,      /* I =410 */
(PID.TID 0000.0001)                 2.429464709770498E+05,      /* I =411 */
(PID.TID 0000.0001)                 2.294195678257306E+05,      /* I =412 */
(PID.TID 0000.0001)                 2.135964483342134E+05,      /* I =413 */
(PID.TID 0000.0001)                 1.946503699269892E+05,      /* I =414 */
(PID.TID 0000.0001)                 1.709574999026266E+05,      /* I =415 */
(PID.TID 0000.0001)                 1.391343389937106E+05,      /* I =416 */
(PID.TID 0000.0001)                 2.692787333338535E+05,      /* I =417 */
(PID.TID 0000.0001)                 2.698316926768863E+05,      /* I =418 */
(PID.TID 0000.0001)                 2.714713968328591E+05,      /* I =419 */
(PID.TID 0000.0001)                 2.740607206150700E+05,      /* I =420 */
(PID.TID 0000.0001)                 2.774139821809750E+05,      /* I =421 */
(PID.TID 0000.0001)                 2.813178027434184E+05,      /* I =422 */
(PID.TID 0000.0001)                 2.855567371326078E+05,      /* I =423 */
(PID.TID 0000.0001)                 2.899302743931477E+05,      /* I =424 */
(PID.TID 0000.0001)                 2.942613213681001E+05,      /* I =425 */
(PID.TID 0000.0001)                 2.983985950890736E+05,      /* I =426 */
(PID.TID 0000.0001)                 3.022156296499031E+05,      /* I =427 */
(PID.TID 0000.0001)                 3.056084178247824E+05,      /* I =428 */
(PID.TID 0000.0001)                 3.084928732605239E+05,      /* I =429 */
(PID.TID 0000.0001)                 3.108026640008289E+05,      /* I =430 */
(PID.TID 0000.0001)                 3.124875845707635E+05,      /* I =431 */
(PID.TID 0000.0001)                 3.135124429988134E+05,      /* I =432 */
(PID.TID 0000.0001)                 3.138564503561421E+05,      /* I =433 */
(PID.TID 0000.0001)                 3.135124429988134E+05,      /* I =434 */
(PID.TID 0000.0001)                 3.124875845707635E+05,      /* I =435 */
(PID.TID 0000.0001)                 3.108026640008289E+05,      /* I =436 */
(PID.TID 0000.0001)                 3.084928732605239E+05,      /* I =437 */
(PID.TID 0000.0001)                 3.056084178247824E+05,      /* I =438 */
(PID.TID 0000.0001)                 3.022156296499031E+05,      /* I =439 */
(PID.TID 0000.0001)                 2.983985950890736E+05,      /* I =440 */
(PID.TID 0000.0001)                 2.942613213681001E+05,      /* I =441 */
(PID.TID 0000.0001)                 2.899302743931477E+05,      /* I =442 */
(PID.TID 0000.0001)                 2.855567371326078E+05,      /* I =443 */
(PID.TID 0000.0001)                 2.813178027434184E+05,      /* I =444 */
(PID.TID 0000.0001)                 2.774139821809750E+05,      /* I =445 */
(PID.TID 0000.0001)                 2.740607206150700E+05,      /* I =446 */
(PID.TID 0000.0001)                 2.714713968328591E+05,      /* I =447 */
(PID.TID 0000.0001)                 2.698316926768863E+05,      /* I =448 */
(PID.TID 0000.0001)                 3.012281885409289E+05,      /* I =449 */
(PID.TID 0000.0001)                 3.014528555318499E+05,      /* I =450 */
(PID.TID 0000.0001)                 3.021172674809921E+05,      /* I =451 */
(PID.TID 0000.0001)                 3.031928954490276E+05,      /* I =452 */
(PID.TID 0000.0001)                 3.046340673197290E+05,      /* I =453 */
(PID.TID 0000.0001)                 3.063804565966232E+05,      /* I =454 */
(PID.TID 0000.0001)                 3.083602390447406E+05,      /* I =455 */
(PID.TID 0000.0001)                 3.104936054761689E+05,      /* I =456 */
(PID.TID 0000.0001)                 3.126963716684348E+05,      /* I =457 */
(PID.TID 0000.0001)                 3.148834765567928E+05,      /* I =458 */
(PID.TID 0000.0001)                 3.169722218029966E+05,      /* I =459 */
(PID.TID 0000.0001)                 3.188851642086189E+05,      /* I =460 */
(PID.TID 0000.0001)                 3.205526180491640E+05,      /* I =461 */
(PID.TID 0000.0001)                 3.219147544224371E+05,      /* I =462 */
(PID.TID 0000.0001)                 3.229233008154936E+05,      /* I =463 */
(PID.TID 0000.0001)                 3.235428501703109E+05,      /* I =464 */
(PID.TID 0000.0001)                 3.237518583690030E+05,      /* I =465 */
(PID.TID 0000.0001)                 3.235428501703109E+05,      /* I =466 */
(PID.TID 0000.0001)                 3.229233008154936E+05,      /* I =467 */
(PID.TID 0000.0001)                 3.219147544224371E+05,      /* I =468 */
(PID.TID 0000.0001)                 3.205526180491640E+05,      /* I =469 */
(PID.TID 0000.0001)                 3.188851642086189E+05,      /* I =470 */
(PID.TID 0000.0001)                 3.169722218029966E+05,      /* I =471 */
(PID.TID 0000.0001)                 3.148834765567928E+05,      /* I =472 */
(PID.TID 0000.0001)                 3.126963716684348E+05,      /* I =473 */
(PID.TID 0000.0001)                 3.104936054761689E+05,      /* I =474 */
(PID.TID 0000.0001)                 3.083602390447406E+05,      /* I =475 */
(PID.TID 0000.0001)                 3.063804565966232E+05,      /* I =476 */
(PID.TID 0000.0001)                 3.046340673197290E+05,      /* I =477 */
(PID.TID 0000.0001)                 3.031928954490276E+05,      /* I =478 */
(PID.TID 0000.0001)                 3.021172674809921E+05,      /* I =479 */
(PID.TID 0000.0001)                 3.014528555318499E+05,      /* I =480 */
(PID.TID 0000.0001)                 2.598293319150326E+05,      /* I =481 */
(PID.TID 0000.0001)                 2.605247136571591E+05,      /* I =482 */
(PID.TID 0000.0001)                 2.625781987034077E+05,      /* I =483 */
(PID.TID 0000.0001)                 2.657864830834272E+05,      /* I =484 */
(PID.TID 0000.0001)                 2.698839526285321E+05,      /* I =485 */
(PID.TID 0000.0001)                 2.745812566278220E+05,      /* I =486 */
(PID.TID 0000.0001)                 2.796034826143155E+05,      /* I =487 */
(PID.TID 0000.0001)                 2.847102987256835E+05,      /* I =488 */
(PID.TID 0000.0001)                 2.897017600496954E+05,      /* I =489 */
(PID.TID 0000.0001)                 2.944159886434956E+05,      /* I =490 */
(PID.TID 0000.0001)                 2.987236876295224E+05,      /* I =491 */
(PID.TID 0000.0001)                 3.025223454914123E+05,      /* I =492 */
(PID.TID 0000.0001)                 3.057313676343125E+05,      /* I =493 */
(PID.TID 0000.0001)                 3.082884490394393E+05,      /* I =494 */
(PID.TID 0000.0001)                 3.101470823422900E+05,      /* I =495 */
(PID.TID 0000.0001)                 3.112749589313555E+05,      /* I =496 */
(PID.TID 0000.0001)                 3.116531025121516E+05,      /* I =497 */
(PID.TID 0000.0001)                 3.112749589313555E+05,      /* I =498 */
(PID.TID 0000.0001)                 3.101470823422900E+05,      /* I =499 */
(PID.TID 0000.0001)                 3.082884490394393E+05,      /* I =500 */
(PID.TID 0000.0001)                 3.057313676343125E+05,      /* I =501 */
(PID.TID 0000.0001)                 3.025223454914123E+05,      /* I =502 */
(PID.TID 0000.0001)                 2.987236876295224E+05,      /* I =503 */
(PID.TID 0000.0001)                 2.944159886434956E+05,      /* I =504 */
(PID.TID 0000.0001)                 2.897017600496954E+05,      /* I =505 */
(PID.TID 0000.0001)                 2.847102987256835E+05,      /* I =506 */
(PID.TID 0000.0001)                 2.796034826143155E+05,      /* I =507 */
(PID.TID 0000.0001)                 2.745812566278220E+05,      /* I =508 */
(PID.TID 0000.0001)                 2.698839526285321E+05,      /* I =509 */
(PID.TID 0000.0001)                 2.657864830834272E+05,      /* I =510 */
(PID.TID 0000.0001)                 2.625781987034077E+05,      /* I =511 */
(PID.TID 0000.0001)                 2.605247136571591E+05,      /* I =512 */
(PID.TID 0000.0001)                 1.114203141013064E+05,      /* I =513 */
(PID.TID 0000.0001)                 1.391343389937106E+05,      /* I =514 */
(PID.TID 0000.0001)                 1.709574999026266E+05,      /* I =515 */
(PID.TID 0000.0001)                 1.946503699269892E+05,      /* I =516 */
(PID.TID 0000.0001)                 2.135964483342134E+05,      /* I =517 */
(PID.TID 0000.0001)                 2.294195678257306E+05,      /* I =518 */
(PID.TID 0000.0001)                 2.429464709770498E+05,      /* I =519 */
(PID.TID 0000.0001)                 2.546408290696998E+05,      /* I =520 */
(PID.TID 0000.0001)                 2.647791839299727E+05,      /* I =521 */
(PID.TID 0000.0001)                 2.735321911346108E+05,      /* I =522 */
(PID.TID 0000.0001)                 2.810065951609633E+05,      /* I =523 */
(PID.TID 0000.0001)                 2.872689479506990E+05,      /* I =524 */
(PID.TID 0000.0001)                 2.923599955312932E+05,      /* I =525 */
(PID.TID 0000.0001)                 2.963038832565530E+05,      /* I =526 */
(PID.TID 0000.0001)                 2.991142470004740E+05,      /* I =527 */
(PID.TID 0000.0001)                 3.007982711627968E+05,      /* I =528 */
(PID.TID 0000.0001)                 3.013593857228136E+05,      /* I =529 */
(PID.TID 0000.0001)                 3.007982711627968E+05,      /* I =530 */
(PID.TID 0000.0001)                 2.991142470004740E+05,      /* I =531 */
(PID.TID 0000.0001)                 2.963038832565530E+05,      /* I =532 */
(PID.TID 0000.0001)                 2.923599955312932E+05,      /* I =533 */
(PID.TID 0000.0001)                 2.872689479506990E+05,      /* I =534 */
(PID.TID 0000.0001)                 2.810065951609633E+05,      /* I =535 */
(PID.TID 0000.0001)                 2.735321911346108E+05,      /* I =536 */
(PID.TID 0000.0001)                 2.647791839299727E+05,      /* I =537 */
(PID.TID 0000.0001)                 2.546408290696998E+05,      /* I =538 */
(PID.TID 0000.0001)                 2.429464709770498E+05,      /* I =539 */
(PID.TID 0000.0001)                 2.294195678257306E+05,      /* I =540 */
(PID.TID 0000.0001)                 2.135964483342134E+05,      /* I =541 */
(PID.TID 0000.0001)                 1.946503699269892E+05,      /* I =542 */
(PID.TID 0000.0001)                 1.709574999026266E+05,      /* I =543 */
(PID.TID 0000.0001)                 1.391343389937106E+05,      /* I =544 */
(PID.TID 0000.0001)                 2.692787333338535E+05,      /* I =545 */
(PID.TID 0000.0001)                 2.698316926768863E+05,      /* I =546 */
(PID.TID 0000.0001)                 2.714713968328591E+05,      /* I =547 */
(PID.TID 0000.0001)                 2.740607206150700E+05,      /* I =548 */
(PID.TID 0000.0001)                 2.774139821809750E+05,      /* I =549 */
(PID.TID 0000.0001)                 2.813178027434184E+05,      /* I =550 */
(PID.TID 0000.0001)                 2.855567371326078E+05,      /* I =551 */
(PID.TID 0000.0001)                 2.899302743931477E+05,      /* I =552 */
(PID.TID 0000.0001)                 2.942613213681001E+05,      /* I =553 */
(PID.TID 0000.0001)                 2.983985950890736E+05,      /* I =554 */
(PID.TID 0000.0001)                 3.022156296499031E+05,      /* I =555 */
(PID.TID 0000.0001)                 3.056084178247824E+05,      /* I =556 */
(PID.TID 0000.0001)                 3.084928732605239E+05,      /* I =557 */
(PID.TID 0000.0001)                 3.108026640008289E+05,      /* I =558 */
(PID.TID 0000.0001)                 3.124875845707635E+05,      /* I =559 */
(PID.TID 0000.0001)                 3.135124429988134E+05,      /* I =560 */
(PID.TID 0000.0001)                 3.138564503561421E+05,      /* I =561 */
(PID.TID 0000.0001)                 3.135124429988134E+05,      /* I =562 */
(PID.TID 0000.0001)                 3.124875845707635E+05,      /* I =563 */
(PID.TID 0000.0001)                 3.108026640008289E+05,      /* I =564 */
(PID.TID 0000.0001)                 3.084928732605239E+05,      /* I =565 */
(PID.TID 0000.0001)                 3.056084178247824E+05,      /* I =566 */
(PID.TID 0000.0001)                 3.022156296499031E+05,      /* I =567 */
(PID.TID 0000.0001)                 2.983985950890736E+05,      /* I =568 */
(PID.TID 0000.0001)                 2.942613213681001E+05,      /* I =569 */
(PID.TID 0000.0001)                 2.899302743931477E+05,      /* I =570 */
(PID.TID 0000.0001)                 2.855567371326078E+05,      /* I =571 */
(PID.TID 0000.0001)                 2.813178027434184E+05,      /* I =572 */
(PID.TID 0000.0001)                 2.774139821809750E+05,      /* I =573 */
(PID.TID 0000.0001)                 2.740607206150700E+05,      /* I =574 */
(PID.TID 0000.0001)                 2.714713968328591E+05,      /* I =575 */
(PID.TID 0000.0001)                 2.698316926768863E+05,      /* I =576 */
(PID.TID 0000.0001)                 3.012281885409289E+05,      /* I =577 */
(PID.TID 0000.0001)                 3.014528555318499E+05,      /* I =578 */
(PID.TID 0000.0001)                 3.021172674809921E+05,      /* I =579 */
(PID.TID 0000.0001)                 3.031928954490276E+05,      /* I =580 */
(PID.TID 0000.0001)                 3.046340673197290E+05,      /* I =581 */
(PID.TID 0000.0001)                 3.063804565966232E+05,      /* I =582 */
(PID.TID 0000.0001)                 3.083602390447406E+05,      /* I =583 */
(PID.TID 0000.0001)                 3.104936054761689E+05,      /* I =584 */
(PID.TID 0000.0001)                 3.126963716684348E+05,      /* I =585 */
(PID.TID 0000.0001)                 3.148834765567928E+05,      /* I =586 */
(PID.TID 0000.0001)                 3.169722218029966E+05,      /* I =587 */
(PID.TID 0000.0001)                 3.188851642086189E+05,      /* I =588 */
(PID.TID 0000.0001)                 3.205526180491640E+05,      /* I =589 */
(PID.TID 0000.0001)                 3.219147544224371E+05,      /* I =590 */
(PID.TID 0000.0001)                 3.229233008154936E+05,      /* I =591 */
(PID.TID 0000.0001)                 3.235428501703109E+05,      /* I =592 */
(PID.TID 0000.0001)                 3.237518583690030E+05,      /* I =593 */
(PID.TID 0000.0001)                 3.235428501703109E+05,      /* I =594 */
(PID.TID 0000.0001)                 3.229233008154936E+05,      /* I =595 */
(PID.TID 0000.0001)                 3.219147544224371E+05,      /* I =596 */
(PID.TID 0000.0001)                 3.205526180491640E+05,      /* I =597 */
(PID.TID 0000.0001)                 3.188851642086189E+05,      /* I =598 */
(PID.TID 0000.0001)                 3.169722218029966E+05,      /* I =599 */
(PID.TID 0000.0001)                 3.148834765567928E+05,      /* I =600 */
(PID.TID 0000.0001)                 3.126963716684348E+05,      /* I =601 */
(PID.TID 0000.0001)                 3.104936054761689E+05,      /* I =602 */
(PID.TID 0000.0001)                 3.083602390447406E+05,      /* I =603 */
(PID.TID 0000.0001)                 3.063804565966232E+05,      /* I =604 */
(PID.TID 0000.0001)                 3.046340673197290E+05,      /* I =605 */
(PID.TID 0000.0001)                 3.031928954490276E+05,      /* I =606 */
(PID.TID 0000.0001)                 3.021172674809921E+05,      /* I =607 */
(PID.TID 0000.0001)                 3.014528555318499E+05,      /* I =608 */
(PID.TID 0000.0001)                 2.598293319150326E+05,      /* I =609 */
(PID.TID 0000.0001)                 2.605247136571591E+05,      /* I =610 */
(PID.TID 0000.0001)                 2.625781987034077E+05,      /* I =611 */
(PID.TID 0000.0001)                 2.657864830834272E+05,      /* I =612 */
(PID.TID 0000.0001)                 2.698839526285321E+05,      /* I =613 */
(PID.TID 0000.0001)                 2.745812566278220E+05,      /* I =614 */
(PID.TID 0000.0001)                 2.796034826143155E+05,      /* I =615 */
(PID.TID 0000.0001)                 2.847102987256835E+05,      /* I =616 */
(PID.TID 0000.0001)                 2.897017600496954E+05,      /* I =617 */
(PID.TID 0000.0001)                 2.944159886434956E+05,      /* I =618 */
(PID.TID 0000.0001)                 2.987236876295224E+05,      /* I =619 */
(PID.TID 0000.0001)                 3.025223454914123E+05,      /* I =620 */
(PID.TID 0000.0001)                 3.057313676343125E+05,      /* I =621 */
(PID.TID 0000.0001)                 3.082884490394393E+05,      /* I =622 */
(PID.TID 0000.0001)                 3.101470823422900E+05,      /* I =623 */
(PID.TID 0000.0001)                 3.112749589313555E+05,      /* I =624 */
(PID.TID 0000.0001)                 3.116531025121516E+05,      /* I =625 */
(PID.TID 0000.0001)                 3.112749589313555E+05,      /* I =626 */
(PID.TID 0000.0001)                 3.101470823422900E+05,      /* I =627 */
(PID.TID 0000.0001)                 3.082884490394393E+05,      /* I =628 */
(PID.TID 0000.0001)                 3.057313676343125E+05,      /* I =629 */
(PID.TID 0000.0001)                 3.025223454914123E+05,      /* I =630 */
(PID.TID 0000.0001)                 2.987236876295224E+05,      /* I =631 */
(PID.TID 0000.0001)                 2.944159886434956E+05,      /* I =632 */
(PID.TID 0000.0001)                 2.897017600496954E+05,      /* I =633 */
(PID.TID 0000.0001)                 2.847102987256835E+05,      /* I =634 */
(PID.TID 0000.0001)                 2.796034826143155E+05,      /* I =635 */
(PID.TID 0000.0001)                 2.745812566278220E+05,      /* I =636 */
(PID.TID 0000.0001)                 2.698839526285321E+05,      /* I =637 */
(PID.TID 0000.0001)                 2.657864830834272E+05,      /* I =638 */
(PID.TID 0000.0001)                 2.625781987034077E+05,      /* I =639 */
(PID.TID 0000.0001)                 2.605247136571591E+05,      /* I =640 */
(PID.TID 0000.0001)                 1.114203141013064E+05,      /* I =641 */
(PID.TID 0000.0001)                 1.391343389937106E+05,      /* I =642 */
(PID.TID 0000.0001)                 1.709574999026266E+05,      /* I =643 */
(PID.TID 0000.0001)                 1.946503699269892E+05,      /* I =644 */
(PID.TID 0000.0001)                 2.135964483342134E+05,      /* I =645 */
(PID.TID 0000.0001)                 2.294195678257306E+05,      /* I =646 */
(PID.TID 0000.0001)                 2.429464709770498E+05,      /* I =647 */
(PID.TID 0000.0001)                 2.546408290696998E+05,      /* I =648 */
(PID.TID 0000.0001)                 2.647791839299727E+05,      /* I =649 */
(PID.TID 0000.0001)                 2.735321911346108E+05,      /* I =650 */
(PID.TID 0000.0001)                 2.810065951609633E+05,      /* I =651 */
(PID.TID 0000.0001)                 2.872689479506990E+05,      /* I =652 */
(PID.TID 0000.0001)                 2.923599955312932E+05,      /* I =653 */
(PID.TID 0000.0001)                 2.963038832565530E+05,      /* I =654 */
(PID.TID 0000.0001)                 2.991142470004740E+05,      /* I =655 */
(PID.TID 0000.0001)                 3.007982711627968E+05,      /* I =656 */
(PID.TID 0000.0001)                 3.013593857228136E+05,      /* I =657 */
(PID.TID 0000.0001)                 3.007982711627968E+05,      /* I =658 */
(PID.TID 0000.0001)                 2.991142470004740E+05,      /* I =659 */
(PID.TID 0000.0001)                 2.963038832565530E+05,      /* I =660 */
(PID.TID 0000.0001)                 2.923599955312932E+05,      /* I =661 */
(PID.TID 0000.0001)                 2.872689479506990E+05,      /* I =662 */
(PID.TID 0000.0001)                 2.810065951609633E+05,      /* I =663 */
(PID.TID 0000.0001)                 2.735321911346108E+05,      /* I =664 */
(PID.TID 0000.0001)                 2.647791839299727E+05,      /* I =665 */
(PID.TID 0000.0001)                 2.546408290696998E+05,      /* I =666 */
(PID.TID 0000.0001)                 2.429464709770498E+05,      /* I =667 */
(PID.TID 0000.0001)                 2.294195678257306E+05,      /* I =668 */
(PID.TID 0000.0001)                 2.135964483342134E+05,      /* I =669 */
(PID.TID 0000.0001)                 1.946503699269892E+05,      /* I =670 */
(PID.TID 0000.0001)                 1.709574999026266E+05,      /* I =671 */
(PID.TID 0000.0001)                 1.391343389937106E+05,      /* I =672 */
(PID.TID 0000.0001)                 2.692787333338535E+05,      /* I =673 */
(PID.TID 0000.0001)                 2.698316926768863E+05,      /* I =674 */
(PID.TID 0000.0001)                 2.714713968328591E+05,      /* I =675 */
(PID.TID 0000.0001)                 2.740607206150700E+05,      /* I =676 */
(PID.TID 0000.0001)                 2.774139821809750E+05,      /* I =677 */
(PID.TID 0000.0001)                 2.813178027434184E+05,      /* I =678 */
(PID.TID 0000.0001)                 2.855567371326078E+05,      /* I =679 */
(PID.TID 0000.0001)                 2.899302743931477E+05,      /* I =680 */
(PID.TID 0000.0001)                 2.942613213681001E+05,      /* I =681 */
(PID.TID 0000.0001)                 2.983985950890736E+05,      /* I =682 */
(PID.TID 0000.0001)                 3.022156296499031E+05,      /* I =683 */
(PID.TID 0000.0001)                 3.056084178247824E+05,      /* I =684 */
(PID.TID 0000.0001)                 3.084928732605239E+05,      /* I =685 */
(PID.TID 0000.0001)                 3.108026640008289E+05,      /* I =686 */
(PID.TID 0000.0001)                 3.124875845707635E+05,      /* I =687 */
(PID.TID 0000.0001)                 3.135124429988134E+05,      /* I =688 */
(PID.TID 0000.0001)                 3.138564503561421E+05,      /* I =689 */
(PID.TID 0000.0001)                 3.135124429988134E+05,      /* I =690 */
(PID.TID 0000.0001)                 3.124875845707635E+05,      /* I =691 */
(PID.TID 0000.0001)                 3.108026640008289E+05,      /* I =692 */
(PID.TID 0000.0001)                 3.084928732605239E+05,      /* I =693 */
(PID.TID 0000.0001)                 3.056084178247824E+05,      /* I =694 */
(PID.TID 0000.0001)                 3.022156296499031E+05,      /* I =695 */
(PID.TID 0000.0001)                 2.983985950890736E+05,      /* I =696 */
(PID.TID 0000.0001)                 2.942613213681001E+05,      /* I =697 */
(PID.TID 0000.0001)                 2.899302743931477E+05,      /* I =698 */
(PID.TID 0000.0001)                 2.855567371326078E+05,      /* I =699 */
(PID.TID 0000.0001)                 2.813178027434184E+05,      /* I =700 */
(PID.TID 0000.0001)                 2.774139821809750E+05,      /* I =701 */
(PID.TID 0000.0001)                 2.740607206150700E+05,      /* I =702 */
(PID.TID 0000.0001)                 2.714713968328591E+05,      /* I =703 */
(PID.TID 0000.0001)                 2.698316926768863E+05,      /* I =704 */
(PID.TID 0000.0001)                 3.012281885409289E+05,      /* I =705 */
(PID.TID 0000.0001)                 3.014528555318499E+05,      /* I =706 */
(PID.TID 0000.0001)                 3.021172674809921E+05,      /* I =707 */
(PID.TID 0000.0001)                 3.031928954490276E+05,      /* I =708 */
(PID.TID 0000.0001)                 3.046340673197290E+05,      /* I =709 */
(PID.TID 0000.0001)                 3.063804565966232E+05,      /* I =710 */
(PID.TID 0000.0001)                 3.083602390447406E+05,      /* I =711 */
(PID.TID 0000.0001)                 3.104936054761689E+05,      /* I =712 */
(PID.TID 0000.0001)                 3.126963716684348E+05,      /* I =713 */
(PID.TID 0000.0001)                 3.148834765567928E+05,      /* I =714 */
(PID.TID 0000.0001)                 3.169722218029966E+05,      /* I =715 */
(PID.TID 0000.0001)                 3.188851642086189E+05,      /* I =716 */
(PID.TID 0000.0001)                 3.205526180491640E+05,      /* I =717 */
(PID.TID 0000.0001)                 3.219147544224371E+05,      /* I =718 */
(PID.TID 0000.0001)                 3.229233008154936E+05,      /* I =719 */
(PID.TID 0000.0001)                 3.235428501703109E+05,      /* I =720 */
(PID.TID 0000.0001)                 3.237518583690030E+05,      /* I =721 */
(PID.TID 0000.0001)                 3.235428501703109E+05,      /* I =722 */
(PID.TID 0000.0001)                 3.229233008154936E+05,      /* I =723 */
(PID.TID 0000.0001)                 3.219147544224371E+05,      /* I =724 */
(PID.TID 0000.0001)                 3.205526180491640E+05,      /* I =725 */
(PID.TID 0000.0001)                 3.188851642086189E+05,      /* I =726 */
(PID.TID 0000.0001)                 3.169722218029966E+05,      /* I =727 */
(PID.TID 0000.0001)                 3.148834765567928E+05,      /* I =728 */
(PID.TID 0000.0001)                 3.126963716684348E+05,      /* I =729 */
(PID.TID 0000.0001)                 3.104936054761689E+05,      /* I =730 */
(PID.TID 0000.0001)                 3.083602390447406E+05,      /* I =731 */
(PID.TID 0000.0001)                 3.063804565966232E+05,      /* I =732 */
(PID.TID 0000.0001)                 3.046340673197290E+05,      /* I =733 */
(PID.TID 0000.0001)                 3.031928954490276E+05,      /* I =734 */
(PID.TID 0000.0001)                 3.021172674809921E+05,      /* I =735 */
(PID.TID 0000.0001)                 3.014528555318499E+05,      /* I =736 */
(PID.TID 0000.0001)                 2.598293319150326E+05,      /* I =737 */
(PID.TID 0000.0001)                 2.605247136571591E+05,      /* I =738 */
(PID.TID 0000.0001)                 2.625781987034077E+05,      /* I =739 */
(PID.TID 0000.0001)                 2.657864830834272E+05,      /* I =740 */
(PID.TID 0000.0001)                 2.698839526285321E+05,      /* I =741 */
(PID.TID 0000.0001)                 2.745812566278220E+05,      /* I =742 */
(PID.TID 0000.0001)                 2.796034826143155E+05,      /* I =743 */
(PID.TID 0000.0001)                 2.847102987256835E+05,      /* I =744 */
(PID.TID 0000.0001)                 2.897017600496954E+05,      /* I =745 */
(PID.TID 0000.0001)                 2.944159886434956E+05,      /* I =746 */
(PID.TID 0000.0001)                 2.987236876295224E+05,      /* I =747 */
(PID.TID 0000.0001)                 3.025223454914123E+05,      /* I =748 */
(PID.TID 0000.0001)                 3.057313676343125E+05,      /* I =749 */
(PID.TID 0000.0001)                 3.082884490394393E+05,      /* I =750 */
(PID.TID 0000.0001)                 3.101470823422900E+05,      /* I =751 */
(PID.TID 0000.0001)                 3.112749589313555E+05,      /* I =752 */
(PID.TID 0000.0001)                 3.116531025121516E+05,      /* I =753 */
(PID.TID 0000.0001)                 3.112749589313555E+05,      /* I =754 */
(PID.TID 0000.0001)                 3.101470823422900E+05,      /* I =755 */
(PID.TID 0000.0001)                 3.082884490394393E+05,      /* I =756 */
(PID.TID 0000.0001)                 3.057313676343125E+05,      /* I =757 */
(PID.TID 0000.0001)                 3.025223454914123E+05,      /* I =758 */
(PID.TID 0000.0001)                 2.987236876295224E+05,      /* I =759 */
(PID.TID 0000.0001)                 2.944159886434956E+05,      /* I =760 */
(PID.TID 0000.0001)                 2.897017600496954E+05,      /* I =761 */
(PID.TID 0000.0001)                 2.847102987256835E+05,      /* I =762 */
(PID.TID 0000.0001)                 2.796034826143155E+05,      /* I =763 */
(PID.TID 0000.0001)                 2.745812566278220E+05,      /* I =764 */
(PID.TID 0000.0001)                 2.698839526285321E+05,      /* I =765 */
(PID.TID 0000.0001)                 2.657864830834272E+05,      /* I =766 */
(PID.TID 0000.0001)                 2.625781987034077E+05,      /* I =767 */
(PID.TID 0000.0001)                 2.605247136571591E+05       /* I =768 */
(PID.TID 0000.0001)     ;
(PID.TID 0000.0001) dxC =  /* dxC(1,:,1,:) ( units: m ) */
(PID.TID 0000.0001)                 1.114203141013064E+05,      /* J =  1 */
(PID.TID 0000.0001)                 1.549545757850771E+05,      /* J =  2 */
(PID.TID 0000.0001)                 1.829777599966776E+05,      /* J =  3 */
(PID.TID 0000.0001)                 2.042717761866506E+05,      /* J =  4 */
(PID.TID 0000.0001)                 2.216367828252819E+05,      /* J =  5 */
(PID.TID 0000.0001)                 2.363029564123586E+05,      /* J =  6 */
(PID.TID 0000.0001)                 2.489113743322025E+05,      /* J =  7 */
(PID.TID 0000.0001)                 2.598293319150326E+05       /* J =  8 */
(PID.TID 0000.0001)     ;
(PID.TID 0000.0001) dyC =  /* dyC(:,1,:,1) ( units: m ) */
(PID.TID 0000.0001)                 1.114203141013064E+05,      /* I =  1 */
(PID.TID 0000.0001)                 1.549545757850771E+05,      /* I =  2 */
(PID.TID 0000.0001)                 1.829777599966776E+05,      /* I =  3 */
(PID.TID 0000.0001)                 2.042717761866506E+05,      /* I =  4 */
(PID.TID 0000.0001)                 2.216367828252819E+05,      /* I =  5 */
(PID.TID 0000.0001)                 2.363029564123586E+05,      /* I =  6 */
(PID.TID 0000.0001)                 2.489113743322025E+05,      /* I =  7 */
(PID.TID 0000.0001)                 2.598293319150326E+05,      /* I =  8 */
(PID.TID 0000.0001)                 2.692787333338535E+05,      /* I =  9 */
(PID.TID 0000.0001)                 2.773972106720365E+05,      /* I = 10 */
(PID.TID 0000.0001)                 2.842706922224557E+05,      /* I = 11 */
(PID.TID 0000.0001)                 2.899523122489403E+05,      /* I = 12 */
(PID.TID 0000.0001)                 2.944741346384699E+05,      /* I = 13 */
(PID.TID 0000.0001)                 2.978547649292580E+05,      /* I = 14 */
(PID.TID 0000.0001)                 3.001044073506459E+05,      /* I = 15 */
(PID.TID 0000.0001)     2 @  3.012281885409289E+05,             /* I = 16: 17 */
(PID.TID 0000.0001)                 3.001044073506459E+05,      /* I = 18 */
(PID.TID 0000.0001)                 2.978547649292580E+05,      /* I = 19 */
(PID.TID 0000.0001)                 2.944741346384699E+05,      /* I = 20 */
(PID.TID 0000.0001)                 2.899523122489403E+05,      /* I = 21 */
(PID.TID 0000.0001)                 2.842706922224557E+05,      /* I = 22 */
(PID.TID 0000.0001)                 2.773972106720365E+05,      /* I = 23 */
(PID.TID 0000.0001)                 2.692787333338535E+05,      /* I = 24 */
(PID.TID 0000.0001)                 2.598293319150326E+05,      /* I = 25 */
(PID.TID 0000.0001)                 2.489113743322025E+05,      /* I = 26 */
(PID.TID 0000.0001)                 2.363029564123586E+05,      /* I = 27 */
(PID.TID 0000.0001)                 2.216367828252819E+05,      /* I = 28 */
(PID.TID 0000.0001)                 2.042717761866506E+05,      /* I = 29 */
(PID.TID 0000.0001)                 1.829777599966776E+05,      /* I = 30 */
(PID.TID 0000.0001)                 1.549545757850771E+05,      /* I = 31 */
(PID.TID 0000.0001)                 1.114203141013064E+05,      /* I = 32 */
(PID.TID 0000.0001)                 2.647791839299727E+05,      /* I = 33 */
(PID.TID 0000.0001)                 2.660295500376044E+05,      /* I = 34 */
(PID.TID 0000.0001)                 2.684194260377608E+05,      /* I = 35 */
(PID.TID 0000.0001)                 2.717530548984243E+05,      /* I = 36 */
(PID.TID 0000.0001)                 2.757889673278915E+05,      /* I = 37 */
(PID.TID 0000.0001)                 2.802768275386160E+05,      /* I = 38 */
(PID.TID 0000.0001)                 2.849827251709129E+05,      /* I = 39 */
(PID.TID 0000.0001)                 2.897017600496954E+05,      /* I = 40 */
(PID.TID 0000.0001)                 2.942613213681001E+05,      /* I = 41 */
(PID.TID 0000.0001)                 2.985192628631004E+05,      /* I = 42 */
(PID.TID 0000.0001)                 3.023601215446892E+05,      /* I = 43 */
(PID.TID 0000.0001)                 3.056911758960931E+05,      /* I = 44 */
(PID.TID 0000.0001)                 3.084391345892176E+05,      /* I = 45 */
(PID.TID 0000.0001)                 3.105476657588797E+05,      /* I = 46 */
(PID.TID 0000.0001)                 3.119757031822313E+05,      /* I = 47 */
(PID.TID 0000.0001)     2 @  3.126963716684348E+05,             /* I = 48: 49 */
(PID.TID 0000.0001)                 3.119757031822313E+05,      /* I = 50 */
(PID.TID 0000.0001)                 3.105476657588797E+05,      /* I = 51 */
(PID.TID 0000.0001)                 3.084391345892176E+05,      /* I = 52 */
(PID.TID 0000.0001)                 3.056911758960931E+05,      /* I = 53 */
(PID.TID 0000.0001)                 3.023601215446892E+05,      /* I = 54 */
(PID.TID 0000.0001)                 2.985192628631004E+05,      /* I = 55 */
(PID.TID 0000.0001)                 2.942613213681001E+05,      /* I = 56 */
(PID.TID 0000.0001)                 2.897017600496954E+05,      /* I = 57 */
(PID.TID 0000.0001)                 2.849827251709129E+05,      /* I = 58 */
(PID.TID 0000.0001)                 2.802768275386160E+05,      /* I = 59 */
(PID.TID 0000.0001)                 2.757889673278915E+05,      /* I = 60 */
(PID.TID 0000.0001)                 2.717530548984243E+05,      /* I = 61 */
(PID.TID 0000.0001)                 2.684194260377608E+05,      /* I = 62 */
(PID.TID 0000.0001)                 2.660295500376044E+05,      /* I = 63 */
(PID.TID 0000.0001)                 2.647791839299727E+05,      /* I = 64 */
(PID.TID 0000.0001)                 3.013593857228136E+05,      /* I = 65 */
(PID.TID 0000.0001)                 3.018056440786431E+05,      /* I = 66 */
(PID.TID 0000.0001)                 3.026789946729719E+05,      /* I = 67 */
(PID.TID 0000.0001)                 3.039422096857757E+05,      /* I = 68 */
(PID.TID 0000.0001)                 3.055420860601236E+05,      /* I = 69 */
(PID.TID 0000.0001)                 3.074122965148668E+05,      /* I = 70 */
(PID.TID 0000.0001)                 3.094767373001940E+05,      /* I = 71 */
(PID.TID 0000.0001)                 3.116531025121516E+05,      /* I = 72 */
(PID.TID 0000.0001)                 3.138564503561421E+05,      /* I = 73 */
(PID.TID 0000.0001)                 3.160025832904765E+05,      /* I = 74 */
(PID.TID 0000.0001)                 3.180111244362097E+05,      /* I = 75 */
(PID.TID 0000.0001)                 3.198082246942282E+05,      /* I = 76 */
(PID.TID 0000.0001)                 3.213288727261454E+05,      /* I = 77 */
(PID.TID 0000.0001)                 3.225188028454169E+05,      /* I = 78 */
(PID.TID 0000.0001)                 3.233360067886980E+05,      /* I = 79 */
(PID.TID 0000.0001)     2 @  3.237518583690030E+05,             /* I = 80: 81 */
(PID.TID 0000.0001)                 3.233360067886980E+05,      /* I = 82 */
(PID.TID 0000.0001)                 3.225188028454169E+05,      /* I = 83 */
(PID.TID 0000.0001)                 3.213288727261454E+05,      /* I = 84 */
(PID.TID 0000.0001)                 3.198082246942282E+05,      /* I = 85 */
(PID.TID 0000.0001)                 3.180111244362097E+05,      /* I = 86 */
(PID.TID 0000.0001)                 3.160025832904765E+05,      /* I = 87 */
(PID.TID 0000.0001)                 3.138564503561421E+05,      /* I = 88 */
(PID.TID 0000.0001)                 3.116531025121516E+05,      /* I = 89 */
(PID.TID 0000.0001)                 3.094767373001940E+05,      /* I = 90 */
(PID.TID 0000.0001)                 3.074122965148668E+05,      /* I = 91 */
(PID.TID 0000.0001)                 3.055420860601236E+05,      /* I = 92 */
(PID.TID 0000.0001)                 3.039422096857757E+05,      /* I = 93 */
(PID.TID 0000.0001)                 3.026789946729719E+05,      /* I = 94 */
(PID.TID 0000.0001)                 3.018056440786431E+05,      /* I = 95 */
(PID.TID 0000.0001)                 3.013593857228136E+05,      /* I = 96 */
(PID.TID 0000.0001)                 2.647791839299727E+05,      /* I = 97 */
(PID.TID 0000.0001)                 2.660295500376044E+05,      /* I = 98 */
(PID.TID 0000.0001)                 2.684194260377608E+05,      /* I = 99 */
(PID.TID 0000.0001)                 2.717530548984243E+05,      /* I =100 */
(PID.TID 0000.0001)                 2.757889673278915E+05,      /* I =101 */
(PID.TID 0000.0001)                 2.802768275386160E+05,      /* I =102 */
(PID.TID 0000.0001)                 2.849827251709129E+05,      /* I =103 */
(PID.TID 0000.0001)                 2.897017600496954E+05,      /* I =104 */
(PID.TID 0000.0001)                 2.942613213681001E+05,      /* I =105 */
(PID.TID 0000.0001)                 2.985192628631004E+05,      /* I =106 */
(PID.TID 0000.0001)                 3.023601215446892E+05,      /* I =107 */
(PID.TID 0000.0001)                 3.056911758960931E+05,      /* I =108 */
(PID.TID 0000.0001)                 3.084391345892176E+05,      /* I =109 */
(PID.TID 0000.0001)                 3.105476657588797E+05,      /* I =110 */
(PID.TID 0000.0001)                 3.119757031822313E+05,      /* I =111 */
(PID.TID 0000.0001)     2 @  3.126963716684348E+05,             /* I =112:113 */
(PID.TID 0000.0001)                 3.119757031822313E+05,      /* I =114 */
(PID.TID 0000.0001)                 3.105476657588797E+05,      /* I =115 */
(PID.TID 0000.0001)                 3.084391345892176E+05,      /* I =116 */
(PID.TID 0000.0001)                 3.056911758960931E+05,      /* I =117 */
(PID.TID 0000.0001)                 3.023601215446892E+05,      /* I =118 */
(PID.TID 0000.0001)                 2.985192628631004E+05,      /* I =119 */
(PID.TID 0000.0001)                 2.942613213681001E+05,      /* I =120 */
(PID.TID 0000.0001)                 2.897017600496954E+05,      /* I =121 */
(PID.TID 0000.0001)                 2.849827251709129E+05,      /* I =122 */
(PID.TID 0000.0001)                 2.802768275386160E+05,      /* I =123 */
(PID.TID 0000.0001)                 2.757889673278915E+05,      /* I =124 */
(PID.TID 0000.0001)                 2.717530548984243E+05,      /* I =125 */
(PID.TID 0000.0001)                 2.684194260377608E+05,      /* I =126 */
(PID.TID 0000.0001)                 2.660295500376044E+05,      /* I =127 */
(PID.TID 0000.0001)                 2.647791839299727E+05,      /* I =128 */
(PID.TID 0000.0001)                 1.114203141013064E+05,      /* I =129 */
(PID.TID 0000.0001)                 1.549545757850771E+05,      /* I =130 */
(PID.TID 0000.0001)                 1.829777599966776E+05,      /* I =131 */
(PID.TID 0000.0001)                 2.042717761866506E+05,      /* I =132 */
(PID.TID 0000.0001)                 2.216367828252819E+05,      /* I =133 */
(PID.TID 0000.0001)                 2.363029564123586E+05,      /* I =134 */
(PID.TID 0000.0001)                 2.489113743322025E+05,      /* I =135 */
(PID.TID 0000.0001)                 2.598293319150326E+05,      /* I =136 */
(PID.TID 0000.0001)                 2.692787333338535E+05,      /* I =137 */
(PID.TID 0000.0001)                 2.773972106720365E+05,      /* I =138 */
(PID.TID 0000.0001)                 2.842706922224557E+05,      /* I =139 */
(PID.TID 0000.0001)                 2.899523122489403E+05,      /* I =140 */
(PID.TID 0000.0001)                 2.944741346384699E+05,      /* I =141 */
(PID.TID 0000.0001)                 2.978547649292580E+05,      /* I =142 */
(PID.TID 0000.0001)                 3.001044073506459E+05,      /* I =143 */
(PID.TID 0000.0001)     2 @  3.012281885409289E+05,             /* I =144:145 */
(PID.TID 0000.0001)                 3.001044073506459E+05,      /* I =146 */
(PID.TID 0000.0001)                 2.978547649292580E+05,      /* I =147 */
(PID.TID 0000.0001)                 2.944741346384699E+05,      /* I =148 */
(PID.TID 0000.0001)                 2.899523122489403E+05,      /* I =149 */
(PID.TID 0000.0001)                 2.842706922224557E+05,      /* I =150 */
(PID.TID 0000.0001)                 2.773972106720365E+05,      /* I =151 */
(PID.TID 0000.0001)                 2.692787333338535E+05,      /* I =152 */
(PID.TID 0000.0001)                 2.598293319150326E+05,      /* I =153 */
(PID.TID 0000.0001)                 2.489113743322025E+05,      /* I =154 */
(PID.TID 0000.0001)                 2.363029564123586E+05,      /* I =155 */
(PID.TID 0000.0001)                 2.216367828252819E+05,      /* I =156 */
(PID.TID 0000.0001)                 2.042717761866506E+05,      /* I =157 */
(PID.TID 0000.0001)                 1.829777599966776E+05,      /* I =158 */
(PID.TID 0000.0001)                 1.549545757850771E+05,      /* I =159 */
(PID.TID 0000.0001)                 1.114203141013064E+05,      /* I =160 */
(PID.TID 0000.0001)                 2.647791839299727E+05,      /* I =161 */
(PID.TID 0000.0001)                 2.660295500376044E+05,      /* I =162 */
(PID.TID 0000.0001)                 2.684194260377608E+05,      /* I =163 */
(PID.TID 0000.0001)                 2.717530548984243E+05,      /* I =164 */
(PID.TID 0000.0001)                 2.757889673278915E+05,      /* I =165 */
(PID.TID 0000.0001)                 2.802768275386160E+05,      /* I =166 */
(PID.TID 0000.0001)                 2.849827251709129E+05,      /* I =167 */
(PID.TID 0000.0001)                 2.897017600496954E+05,      /* I =168 */
(PID.TID 0000.0001)                 2.942613213681001E+05,      /* I =169 */
(PID.TID 0000.0001)                 2.985192628631004E+05,      /* I =170 */
(PID.TID 0000.0001)                 3.023601215446892E+05,      /* I =171 */
(PID.TID 0000.0001)                 3.056911758960931E+05,      /* I =172 */
(PID.TID 0000.0001)                 3.084391345892176E+05,      /* I =173 */
(PID.TID 0000.0001)                 3.105476657588797E+05,      /* I =174 */
(PID.TID 0000.0001)                 3.119757031822313E+05,      /* I =175 */
(PID.TID 0000.0001)     2 @  3.126963716684348E+05,             /* I =176:177 */
(PID.TID 0000.0001)                 3.119757031822313E+05,      /* I =178 */
(PID.TID 0000.0001)                 3.105476657588797E+05,      /* I =179 */
(PID.TID 0000.0001)                 3.084391345892176E+05,      /* I =180 */
(PID.TID 0000.0001)                 3.056911758960931E+05,      /* I =181 */
(PID.TID 0000.0001)                 3.023601215446892E+05,      /* I =182 */
(PID.TID 0000.0001)                 2.985192628631004E+05,      /* I =183 */
(PID.TID 0000.0001)                 2.942613213681001E+05,      /* I =184 */
(PID.TID 0000.0001)                 2.897017600496954E+05,      /* I =185 */
(PID.TID 0000.0001)                 2.849827251709129E+05,      /* I =186 */
(PID.TID 0000.0001)                 2.802768275386160E+05,      /* I =187 */
(PID.TID 0000.0001)                 2.757889673278915E+05,      /* I =188 */
(PID.TID 0000.0001)                 2.717530548984243E+05,      /* I =189 */
(PID.TID 0000.0001)                 2.684194260377608E+05,      /* I =190 */
(PID.TID 0000.0001)                 2.660295500376044E+05,      /* I =191 */
(PID.TID 0000.0001)                 2.647791839299727E+05,      /* I =192 */
(PID.TID 0000.0001)                 3.013593857228136E+05,      /* I =193 */
(PID.TID 0000.0001)                 3.018056440786431E+05,      /* I =194 */
(PID.TID 0000.0001)                 3.026789946729719E+05,      /* I =195 */
(PID.TID 0000.0001)                 3.039422096857757E+05,      /* I =196 */
(PID.TID 0000.0001)                 3.055420860601236E+05,      /* I =197 */
(PID.TID 0000.0001)                 3.074122965148668E+05,      /* I =198 */
(PID.TID 0000.0001)                 3.094767373001940E+05,      /* I =199 */
(PID.TID 0000.0001)                 3.116531025121516E+05,      /* I =200 */
(PID.TID 0000.0001)                 3.138564503561421E+05,      /* I =201 */
(PID.TID 0000.0001)                 3.160025832904765E+05,      /* I =202 */
(PID.TID 0000.0001)                 3.180111244362097E+05,      /* I =203 */
(PID.TID 0000.0001)                 3.198082246942282E+05,      /* I =204 */
(PID.TID 0000.0001)                 3.213288727261454E+05,      /* I =205 */
(PID.TID 0000.0001)                 3.225188028454169E+05,      /* I =206 */
(PID.TID 0000.0001)                 3.233360067886980E+05,      /* I =207 */
(PID.TID 0000.0001)     2 @  3.237518583690030E+05,             /* I =208:209 */
(PID.TID 0000.0001)                 3.233360067886980E+05,      /* I =210 */
(PID.TID 0000.0001)                 3.225188028454169E+05,      /* I =211 */
(PID.TID 0000.0001)                 3.213288727261454E+05,      /* I =212 */
(PID.TID 0000.0001)                 3.198082246942282E+05,      /* I =213 */
(PID.TID 0000.0001)                 3.180111244362097E+05,      /* I =214 */
(PID.TID 0000.0001)                 3.160025832904765E+05,      /* I =215 */
(PID.TID 0000.0001)                 3.138564503561421E+05,      /* I =216 */
(PID.TID 0000.0001)                 3.116531025121516E+05,      /* I =217 */
(PID.TID 0000.0001)                 3.094767373001940E+05,      /* I =218 */
(PID.TID 0000.0001)                 3.074122965148668E+05,      /* I =219 */
(PID.TID 0000.0001)                 3.055420860601236E+05,      /* I =220 */
(PID.TID 0000.0001)                 3.039422096857757E+05,      /* I =221 */
(PID.TID 0000.0001)                 3.026789946729719E+05,      /* I =222 */
(PID.TID 0000.0001)                 3.018056440786431E+05,      /* I =223 */
(PID.TID 0000.0001)                 3.013593857228136E+05,      /* I =224 */
(PID.TID 0000.0001)                 2.647791839299727E+05,      /* I =225 */
(PID.TID 0000.0001)                 2.660295500376044E+05,      /* I =226 */
(PID.TID 0000.0001)                 2.684194260377608E+05,      /* I =227 */
(PID.TID 0000.0001)                 2.717530548984243E+05,      /* I =228 */
(PID.TID 0000.0001)                 2.757889673278915E+05,      /* I =229 */
(PID.TID 0000.0001)                 2.802768275386160E+05,      /* I =230 */
(PID.TID 0000.0001)                 2.849827251709129E+05,      /* I =231 */
(PID.TID 0000.0001)                 2.897017600496954E+05,      /* I =232 */
(PID.TID 0000.0001)                 2.942613213681001E+05,      /* I =233 */
(PID.TID 0000.0001)                 2.985192628631004E+05,      /* I =234 */
(PID.TID 0000.0001)                 3.023601215446892E+05,      /* I =235 */
(PID.TID 0000.0001)                 3.056911758960931E+05,      /* I =236 */
(PID.TID 0000.0001)                 3.084391345892176E+05,      /* I =237 */
(PID.TID 0000.0001)                 3.105476657588797E+05,      /* I =238 */
(PID.TID 0000.0001)                 3.119757031822313E+05,      /* I =239 */
(PID.TID 0000.0001)     2 @  3.126963716684348E+05,             /* I =240:241 */
(PID.TID 0000.0001)                 3.119757031822313E+05,      /* I =242 */
(PID.TID 0000.0001)                 3.105476657588797E+05,      /* I =243 */
(PID.TID 0000.0001)                 3.084391345892176E+05,      /* I =244 */
(PID.TID 0000.0001)                 3.056911758960931E+05,      /* I =245 */
(PID.TID 0000.0001)                 3.023601215446892E+05,      /* I =246 */
(PID.TID 0000.0001)                 2.985192628631004E+05,      /* I =247 */
(PID.TID 0000.0001)                 2.942613213681001E+05,      /* I =248 */
(PID.TID 0000.0001)                 2.897017600496954E+05,      /* I =249 */
(PID.TID 0000.0001)                 2.849827251709129E+05,      /* I =250 */
(PID.TID 0000.0001)                 2.802768275386160E+05,      /* I =251 */
(PID.TID 0000.0001)                 2.757889673278915E+05,      /* I =252 */
(PID.TID 0000.0001)                 2.717530548984243E+05,      /* I =253 */
(PID.TID 0000.0001)                 2.684194260377608E+05,      /* I =254 */
(PID.TID 0000.0001)                 2.660295500376044E+05,      /* I =255 */
(PID.TID 0000.0001)                 2.647791839299727E+05,      /* I =256 */
(PID.TID 0000.0001)                 1.114203141013064E+05,      /* I =257 */
(PID.TID 0000.0001)                 1.549545757850771E+05,      /* I =258 */
(PID.TID 0000.0001)                 1.829777599966776E+05,      /* I =259 */
(PID.TID 0000.0001)                 2.042717761866506E+05,      /* I =260 */
(PID.TID 0000.0001)                 2.216367828252819E+05,      /* I =261 */
(PID.TID 0000.0001)                 2.363029564123586E+05,      /* I =262 */
(PID.TID 0000.0001)                 2.489113743322025E+05,      /* I =263 */
(PID.TID 0000.0001)                 2.598293319150326E+05,      /* I =264 */
(PID.TID 0000.0001)                 2.692787333338535E+05,      /* I =265 */
(PID.TID 0000.0001)                 2.773972106720365E+05,      /* I =266 */
(PID.TID 0000.0001)                 2.842706922224557E+05,      /* I =267 */
(PID.TID 0000.0001)                 2.899523122489403E+05,      /* I =268 */
(PID.TID 0000.0001)                 2.944741346384699E+05,      /* I =269 */
(PID.TID 0000.0001)                 2.978547649292580E+05,      /* I =270 */
(PID.TID 0000.0001)                 3.001044073506459E+05,      /* I =271 */
(PID.TID 0000.0001)     2 @  3.012281885409289E+05,             /* I =272:273 */
(PID.TID 0000.0001)                 3.001044073506459E+05,      /* I =274 */
(PID.TID 0000.0001)                 2.978547649292580E+05,      /* I =275 */
(PID.TID 0000.0001)                 2.944741346384699E+05,      /* I =276 */
(PID.TID 0000.0001)                 2.899523122489403E+05,      /* I =277 */
(PID.TID 0000.0001)                 2.842706922224557E+05,      /* I =278 */
(PID.TID 0000.0001)                 2.773972106720365E+05,      /* I =279 */
(PID.TID 0000.0001)                 2.692787333338535E+05,      /* I =280 */
(PID.TID 0000.0001)                 2.598293319150326E+05,      /* I =281 */
(PID.TID 0000.0001)                 2.489113743322025E+05,      /* I =282 */
(PID.TID 0000.0001)                 2.363029564123586E+05,      /* I =283 */
(PID.TID 0000.0001)                 2.216367828252819E+05,      /* I =284 */
(PID.TID 0000.0001)                 2.042717761866506E+05,      /* I =285 */
(PID.TID 0000.0001)                 1.829777599966776E+05,      /* I =286 */
(PID.TID 0000.0001)                 1.549545757850771E+05,      /* I =287 */
(PID.TID 0000.0001)                 1.114203141013064E+05,      /* I =288 */
(PID.TID 0000.0001)                 2.647791839299727E+05,      /* I =289 */
(PID.TID 0000.0001)                 2.660295500376044E+05,      /* I =290 */
(PID.TID 0000.0001)                 2.684194260377608E+05,      /* I =291 */
(PID.TID 0000.0001)                 2.717530548984243E+05,      /* I =292 */
(PID.TID 0000.0001)                 2.757889673278915E+05,      /* I =293 */
(PID.TID 0000.0001)                 2.802768275386160E+05,      /* I =294 */
(PID.TID 0000.0001)                 2.849827251709129E+05,      /* I =295 */
(PID.TID 0000.0001)                 2.897017600496954E+05,      /* I =296 */
(PID.TID 0000.0001)                 2.942613213681001E+05,      /* I =297 */
(PID.TID 0000.0001)                 2.985192628631004E+05,      /* I =298 */
(PID.TID 0000.0001)                 3.023601215446892E+05,      /* I =299 */
(PID.TID 0000.0001)                 3.056911758960931E+05,      /* I =300 */
(PID.TID 0000.0001)                 3.084391345892176E+05,      /* I =301 */
(PID.TID 0000.0001)                 3.105476657588797E+05,      /* I =302 */
(PID.TID 0000.0001)                 3.119757031822313E+05,      /* I =303 */
(PID.TID 0000.0001)     2 @  3.126963716684348E+05,             /* I =304:305 */
(PID.TID 0000.0001)                 3.119757031822313E+05,      /* I =306 */
(PID.TID 0000.0001)                 3.105476657588797E+05,      /* I =307 */
(PID.TID 0000.0001)                 3.084391345892176E+05,      /* I =308 */
(PID.TID 0000.0001)                 3.056911758960931E+05,      /* I =309 */
(PID.TID 0000.0001)                 3.023601215446892E+05,      /* I =310 */
(PID.TID 0000.0001)                 2.985192628631004E+05,      /* I =311 */
(PID.TID 0000.0001)                 2.942613213681001E+05,      /* I =312 */
(PID.TID 0000.0001)                 2.897017600496954E+05,      /* I =313 */
(PID.TID 0000.0001)                 2.849827251709129E+05,      /* I =314 */
(PID.TID 0000.0001)                 2.802768275386160E+05,      /* I =315 */
(PID.TID 0000.0001)                 2.757889673278915E+05,      /* I =316 */
(PID.TID 0000.0001)                 2.717530548984243E+05,      /* I =317 */
(PID.TID 0000.0001)                 2.684194260377608E+05,      /* I =318 */
(PID.TID 0000.0001)                 2.660295500376044E+05,      /* I =319 */
(PID.TID 0000.0001)                 2.647791839299727E+05,      /* I =320 */
(PID.TID 0000.0001)                 3.013593857228136E+05,      /* I =321 */
(PID.TID 0000.0001)                 3.018056440786431E+05,      /* I =322 */
(PID.TID 0000.0001)                 3.026789946729719E+05,      /* I =323 */
(PID.TID 0000.0001)                 3.039422096857757E+05,      /* I =324 */
(PID.TID 0000.0001)                 3.055420860601236E+05,      /* I =325 */
(PID.TID 0000.0001)                 3.074122965148668E+05,      /* I =326 */
(PID.TID 0000.0001)                 3.094767373001940E+05,      /* I =327 */
(PID.TID 0000.0001)                 3.116531025121516E+05,      /* I =328 */
(PID.TID 0000.0001)                 3.138564503561421E+05,      /* I =329 */
(PID.TID 0000.0001)                 3.160025832904765E+05,      /* I =330 */
(PID.TID 0000.0001)                 3.180111244362097E+05,      /* I =331 */
(PID.TID 0000.0001)                 3.198082246942282E+05,      /* I =332 */
(PID.TID 0000.0001)                 3.213288727261454E+05,      /* I =333 */
(PID.TID 0000.0001)                 3.225188028454169E+05,      /* I =334 */
(PID.TID 0000.0001)                 3.233360067886980E+05,      /* I =335 */
(PID.TID 0000.0001)     2 @  3.237518583690030E+05,             /* I =336:337 */
(PID.TID 0000.0001)                 3.233360067886980E+05,      /* I =338 */
(PID.TID 0000.0001)                 3.225188028454169E+05,      /* I =339 */
(PID.TID 0000.0001)                 3.213288727261454E+05,      /* I =340 */
(PID.TID 0000.0001)                 3.198082246942282E+05,      /* I =341 */
(PID.TID 0000.0001)                 3.180111244362097E+05,      /* I =342 */
(PID.TID 0000.0001)                 3.160025832904765E+05,      /* I =343 */
(PID.TID 0000.0001)                 3.138564503561421E+05,      /* I =344 */
(PID.TID 0000.0001)                 3.116531025121516E+05,      /* I =345 */
(PID.TID 0000.0001)                 3.094767373001940E+05,      /* I =346 */
(PID.TID 0000.0001)                 3.074122965148668E+05,      /* I =347 */
(PID.TID 0000.0001)                 3.055420860601236E+05,      /* I =348 */
(PID.TID 0000.0001)                 3.039422096857757E+05,      /* I =349 */
(PID.TID 0000.0001)                 3.026789946729719E+05,      /* I =350 */
(PID.TID 0000.0001)                 3.018056440786431E+05,      /* I =351 */
(PID.TID 0000.0001)                 3.013593857228136E+05,      /* I =352 */
(PID.TID 0000.0001)                 2.647791839299727E+05,      /* I =353 */
(PID.TID 0000.0001)                 2.660295500376044E+05,      /* I =354 */
(PID.TID 0000.0001)                 2.684194260377608E+05,      /* I =355 */
(PID.TID 0000.0001)                 2.717530548984243E+05,      /* I =356 */
(PID.TID 0000.0001)                 2.757889673278915E+05,      /* I =357 */
(PID.TID 0000.0001)                 2.802768275386160E+05,      /* I =358 */
(PID.TID 0000.0001)                 2.849827251709129E+05,      /* I =359 */
(PID.TID 0000.0001)                 2.897017600496954E+05,      /* I =360 */
(PID.TID 0000.0001)                 2.942613213681001E+05,      /* I =361 */
(PID.TID 0000.0001)                 2.985192628631004E+05,      /* I =362 */
(PID.TID 0000.0001)                 3.023601215446892E+05,      /* I =363 */
(PID.TID 0000.0001)                 3.056911758960931E+05,      /* I =364 */
(PID.TID 0000.0001)                 3.084391345892176E+05,      /* I =365 */
(PID.TID 0000.0001)                 3.105476657588797E+05,      /* I =366 */
(PID.TID 0000.0001)                 3.119757031822313E+05,      /* I =367 */
(PID.TID 0000.0001)     2 @  3.126963716684348E+05,             /* I =368:369 */
(PID.TID 0000.0001)                 3.119757031822313E+05,      /* I =370 */
(PID.TID 0000.0001)                 3.105476657588797E+05,      /* I =371 */
(PID.TID 0000.0001)                 3.084391345892176E+05,      /* I =372 */
(PID.TID 0000.0001)                 3.056911758960931E+05,      /* I =373 */
(PID.TID 0000.0001)                 3.023601215446892E+05,      /* I =374 */
(PID.TID 0000.0001)                 2.985192628631004E+05,      /* I =375 */
(PID.TID 0000.0001)                 2.942613213681001E+05,      /* I =376 */
(PID.TID 0000.0001)                 2.897017600496954E+05,      /* I =377 */
(PID.TID 0000.0001)                 2.849827251709129E+05,      /* I =378 */
(PID.TID 0000.0001)                 2.802768275386160E+05,      /* I =379 */
(PID.TID 0000.0001)                 2.757889673278915E+05,      /* I =380 */
(PID.TID 0000.0001)                 2.717530548984243E+05,      /* I =381 */
(PID.TID 0000.0001)                 2.684194260377608E+05,      /* I =382 */
(PID.TID 0000.0001)                 2.660295500376044E+05,      /* I =383 */
(PID.TID 0000.0001)                 2.647791839299727E+05,      /* I =384 */
(PID.TID 0000.0001)                 1.114203141013064E+05,      /* I =385 */
(PID.TID 0000.0001)                 1.549545757850771E+05,      /* I =386 */
(PID.TID 0000.0001)                 1.829777599966776E+05,      /* I =387 */
(PID.TID 0000.0001)                 2.042717761866506E+05,      /* I =388 */
(PID.TID 0000.0001)                 2.216367828252819E+05,      /* I =389 */
(PID.TID 0000.0001)                 2.363029564123586E+05,      /* I =390 */
(PID.TID 0000.0001)                 2.489113743322025E+05,      /* I =391 */
(PID.TID 0000.0001)                 2.598293319150326E+05,      /* I =392 */
(PID.TID 0000.0001)                 2.692787333338535E+05,      /* I =393 */
(PID.TID 0000.0001)                 2.773972106720365E+05,      /* I =394 */
(PID.TID 0000.0001)                 2.842706922224557E+05,      /* I =395 */
(PID.TID 0000.0001)                 2.899523122489403E+05,      /* I =396 */
(PID.TID 0000.0001)                 2.944741346384699E+05,      /* I =397 */
(PID.TID 0000.0001)                 2.978547649292580E+05,      /* I =398 */
(PID.TID 0000.0001)                 3.001044073506459E+05,      /* I =399 */
(PID.TID 0000.0001)     2 @  3.012281885409289E+05,             /* I =400:401 */
(PID.TID 0000.0001)                 3.001044073506459E+05,      /* I =402 */
(PID.TID 0000.0001)                 2.978547649292580E+05,      /* I =403 */
(PID.TID 0000.0001)                 2.944741346384699E+05,      /* I =404 */
(PID.TID 0000.0001)                 2.899523122489403E+05,      /* I =405 */
(PID.TID 0000.0001)                 2.842706922224557E+05,      /* I =406 */
(PID.TID 0000.0001)                 2.773972106720365E+05,      /* I =407 */
(PID.TID 0000.0001)                 2.692787333338535E+05,      /* I =408 */
(PID.TID 0000.0001)                 2.598293319150326E+05,      /* I =409 */
(PID.TID 0000.0001)                 2.489113743322025E+05,      /* I =410 */
(PID.TID 0000.0001)                 2.363029564123586E+05,      /* I =411 */
(PID.TID 0000.0001)                 2.216367828252819E+05,      /* I =412 */
(PID.TID 0000.0001)                 2.042717761866506E+05,      /* I =413 */
(PID.TID 0000.0001)                 1.829777599966776E+05,      /* I =414 */
(PID.TID 0000.0001)                 1.549545757850771E+05,      /* I =415 */
(PID.TID 0000.0001)                 1.114203141013064E+05,      /* I =416 */
(PID.TID 0000.0001)                 2.647791839299727E+05,      /* I =417 */
(PID.TID 0000.0001)                 2.660295500376044E+05,      /* I =418 */
(PID.TID 0000.0001)                 2.684194260377608E+05,      /* I =419 */
(PID.TID 0000.0001)                 2.717530548984243E+05,      /* I =420 */
(PID.TID 0000.0001)                 2.757889673278915E+05,      /* I =421 */
(PID.TID 0000.0001)                 2.802768275386160E+05,      /* I =422 */
(PID.TID 0000.0001)                 2.849827251709129E+05,      /* I =423 */
(PID.TID 0000.0001)                 2.897017600496954E+05,      /* I =424 */
(PID.TID 0000.0001)                 2.942613213681001E+05,      /* I =425 */
(PID.TID 0000.0001)                 2.985192628631004E+05,      /* I =426 */
(PID.TID 0000.0001)                 3.023601215446892E+05,      /* I =427 */
(PID.TID 0000.0001)                 3.056911758960931E+05,      /* I =428 */
(PID.TID 0000.0001)                 3.084391345892176E+05,      /* I =429 */
(PID.TID 0000.0001)                 3.105476657588797E+05,      /* I =430 */
(PID.TID 0000.0001)                 3.119757031822313E+05,      /* I =431 */
(PID.TID 0000.0001)     2 @  3.126963716684348E+05,             /* I =432:433 */
(PID.TID 0000.0001)                 3.119757031822313E+05,      /* I =434 */
(PID.TID 0000.0001)                 3.105476657588797E+05,      /* I =435 */
(PID.TID 0000.0001)                 3.084391345892176E+05,      /* I =436 */
(PID.TID 0000.0001)                 3.056911758960931E+05,      /* I =437 */
(PID.TID 0000.0001)                 3.023601215446892E+05,      /* I =438 */
(PID.TID 0000.0001)                 2.985192628631004E+05,      /* I =439 */
(PID.TID 0000.0001)                 2.942613213681001E+05,      /* I =440 */
(PID.TID 0000.0001)                 2.897017600496954E+05,      /* I =441 */
(PID.TID 0000.0001)                 2.849827251709129E+05,      /* I =442 */
(PID.TID 0000.0001)                 2.802768275386160E+05,      /* I =443 */
(PID.TID 0000.0001)                 2.757889673278915E+05,      /* I =444 */
(PID.TID 0000.0001)                 2.717530548984243E+05,      /* I =445 */
(PID.TID 0000.0001)                 2.684194260377608E+05,      /* I =446 */
(PID.TID 0000.0001)                 2.660295500376044E+05,      /* I =447 */
(PID.TID 0000.0001)                 2.647791839299727E+05,      /* I =448 */
(PID.TID 0000.0001)                 3.013593857228136E+05,      /* I =449 */
(PID.TID 0000.0001)                 3.018056440786431E+05,      /* I =450 */
(PID.TID 0000.0001)                 3.026789946729719E+05,      /* I =451 */
(PID.TID 0000.0001)                 3.039422096857757E+05,      /* I =452 */
(PID.TID 0000.0001)                 3.055420860601236E+05,      /* I =453 */
(PID.TID 0000.0001)                 3.074122965148668E+05,      /* I =454 */
(PID.TID 0000.0001)                 3.094767373001940E+05,      /* I =455 */
(PID.TID 0000.0001)                 3.116531025121516E+05,      /* I =456 */
(PID.TID 0000.0001)                 3.138564503561421E+05,      /* I =457 */
(PID.TID 0000.0001)                 3.160025832904765E+05,      /* I =458 */
(PID.TID 0000.0001)                 3.180111244362097E+05,      /* I =459 */
(PID.TID 0000.0001)                 3.198082246942282E+05,      /* I =460 */
(PID.TID 0000.0001)                 3.213288727261454E+05,      /* I =461 */
(PID.TID 0000.0001)                 3.225188028454169E+05,      /* I =462 */
(PID.TID 0000.0001)                 3.233360067886980E+05,      /* I =463 */
(PID.TID 0000.0001)     2 @  3.237518583690030E+05,             /* I =464:465 */
(PID.TID 0000.0001)                 3.233360067886980E+05,      /* I =466 */
(PID.TID 0000.0001)                 3.225188028454169E+05,      /* I =467 */
(PID.TID 0000.0001)                 3.213288727261454E+05,      /* I =468 */
(PID.TID 0000.0001)                 3.198082246942282E+05,      /* I =469 */
(PID.TID 0000.0001)                 3.180111244362097E+05,      /* I =470 */
(PID.TID 0000.0001)                 3.160025832904765E+05,      /* I =471 */
(PID.TID 0000.0001)                 3.138564503561421E+05,      /* I =472 */
(PID.TID 0000.0001)                 3.116531025121516E+05,      /* I =473 */
(PID.TID 0000.0001)                 3.094767373001940E+05,      /* I =474 */
(PID.TID 0000.0001)                 3.074122965148668E+05,      /* I =475 */
(PID.TID 0000.0001)                 3.055420860601236E+05,      /* I =476 */
(PID.TID 0000.0001)                 3.039422096857757E+05,      /* I =477 */
(PID.TID 0000.0001)                 3.026789946729719E+05,      /* I =478 */
(PID.TID 0000.0001)                 3.018056440786431E+05,      /* I =479 */
(PID.TID 0000.0001)                 3.013593857228136E+05,      /* I =480 */
(PID.TID 0000.0001)                 2.647791839299727E+05,      /* I =481 */
(PID.TID 0000.0001)                 2.660295500376044E+05,      /* I =482 */
(PID.TID 0000.0001)                 2.684194260377608E+05,      /* I =483 */
(PID.TID 0000.0001)                 2.717530548984243E+05,      /* I =484 */
(PID.TID 0000.0001)                 2.757889673278915E+05,      /* I =485 */
(PID.TID 0000.0001)                 2.802768275386160E+05,      /* I =486 */
(PID.TID 0000.0001)                 2.849827251709129E+05,      /* I =487 */
(PID.TID 0000.0001)                 2.897017600496954E+05,      /* I =488 */
(PID.TID 0000.0001)                 2.942613213681001E+05,      /* I =489 */
(PID.TID 0000.0001)                 2.985192628631004E+05,      /* I =490 */
(PID.TID 0000.0001)                 3.023601215446892E+05,      /* I =491 */
(PID.TID 0000.0001)                 3.056911758960931E+05,      /* I =492 */
(PID.TID 0000.0001)                 3.084391345892176E+05,      /* I =493 */
(PID.TID 0000.0001)                 3.105476657588797E+05,      /* I =494 */
(PID.TID 0000.0001)                 3.119757031822313E+05,      /* I =495 */
(PID.TID 0000.0001)     2 @  3.126963716684348E+05,             /* I =496:497 */
(PID.TID 0000.0001)                 3.119757031822313E+05,      /* I =498 */
(PID.TID 0000.0001)                 3.105476657588797E+05,      /* I =499 */
(PID.TID 0000.0001)                 3.084391345892176E+05,      /* I =500 */
(PID.TID 0000.0001)                 3.056911758960931E+05,      /* I =501 */
(PID.TID 0000.0001)                 3.023601215446892E+05,      /* I =502 */
(PID.TID 0000.0001)                 2.985192628631004E+05,      /* I =503 */
(PID.TID 0000.0001)                 2.942613213681001E+05,      /* I =504 */
(PID.TID 0000.0001)                 2.897017600496954E+05,      /* I =505 */
(PID.TID 0000.0001)                 2.849827251709129E+05,      /* I =506 */
(PID.TID 0000.0001)                 2.802768275386160E+05,      /* I =507 */
(PID.TID 0000.0001)                 2.757889673278915E+05,      /* I =508 */
(PID.TID 0000.0001)                 2.717530548984243E+05,      /* I =509 */
(PID.TID 0000.0001)                 2.684194260377608E+05,      /* I =510 */
(PID.TID 0000.0001)                 2.660295500376044E+05,      /* I =511 */
(PID.TID 0000.0001)                 2.647791839299727E+05,      /* I =512 */
(PID.TID 0000.0001)                 1.114203141013064E+05,      /* I =513 */
(PID.TID 0000.0001)                 1.549545757850771E+05,      /* I =514 */
(PID.TID 0000.0001)                 1.829777599966776E+05,      /* I =515 */
(PID.TID 0000.0001)                 2.042717761866506E+05,      /* I =516 */
(PID.TID 0000.0001)                 2.216367828252819E+05,      /* I =517 */
(PID.TID 0000.0001)                 2.363029564123586E+05,      /* I =518 */
(PID.TID 0000.0001)                 2.489113743322025E+05,      /* I =519 */
(PID.TID 0000.0001)                 2.598293319150326E+05,      /* I =520 */
(PID.TID 0000.0001)                 2.692787333338535E+05,      /* I =521 */
(PID.TID 0000.0001)                 2.773972106720365E+05,      /* I =522 */
(PID.TID 0000.0001)                 2.842706922224557E+05,      /* I =523 */
(PID.TID 0000.0001)                 2.899523122489403E+05,      /* I =524 */
(PID.TID 0000.0001)                 2.944741346384699E+05,      /* I =525 */
(PID.TID 0000.0001)                 2.978547649292580E+05,      /* I =526 */
(PID.TID 0000.0001)                 3.001044073506459E+05,      /* I =527 */
(PID.TID 0000.0001)     2 @  3.012281885409289E+05,             /* I =528:529 */
(PID.TID 0000.0001)                 3.001044073506459E+05,      /* I =530 */
(PID.TID 0000.0001)                 2.978547649292580E+05,      /* I =531 */
(PID.TID 0000.0001)                 2.944741346384699E+05,      /* I =532 */
(PID.TID 0000.0001)                 2.899523122489403E+05,      /* I =533 */
(PID.TID 0000.0001)                 2.842706922224557E+05,      /* I =534 */
(PID.TID 0000.0001)                 2.773972106720365E+05,      /* I =535 */
(PID.TID 0000.0001)                 2.692787333338535E+05,      /* I =536 */
(PID.TID 0000.0001)                 2.598293319150326E+05,      /* I =537 */
(PID.TID 0000.0001)                 2.489113743322025E+05,      /* I =538 */
(PID.TID 0000.0001)                 2.363029564123586E+05,      /* I =539 */
(PID.TID 0000.0001)                 2.216367828252819E+05,      /* I =540 */
(PID.TID 0000.0001)                 2.042717761866506E+05,      /* I =541 */
(PID.TID 0000.0001)                 1.829777599966776E+05,      /* I =542 */
(PID.TID 0000.0001)                 1.549545757850771E+05,      /* I =543 */
(PID.TID 0000.0001)                 1.114203141013064E+05,      /* I =544 */
(PID.TID 0000.0001)                 2.647791839299727E+05,      /* I =545 */
(PID.TID 0000.0001)                 2.660295500376044E+05,      /* I =546 */
(PID.TID 0000.0001)                 2.684194260377608E+05,      /* I =547 */
(PID.TID 0000.0001)                 2.717530548984243E+05,      /* I =548 */
(PID.TID 0000.0001)                 2.757889673278915E+05,      /* I =549 */
(PID.TID 0000.0001)                 2.802768275386160E+05,      /* I =550 */
(PID.TID 0000.0001)                 2.849827251709129E+05,      /* I =551 */
(PID.TID 0000.0001)                 2.897017600496954E+05,      /* I =552 */
(PID.TID 0000.0001)                 2.942613213681001E+05,      /* I =553 */
(PID.TID 0000.0001)                 2.985192628631004E+05,      /* I =554 */
(PID.TID 0000.0001)                 3.023601215446892E+05,      /* I =555 */
(PID.TID 0000.0001)                 3.056911758960931E+05,      /* I =556 */
(PID.TID 0000.0001)                 3.084391345892176E+05,      /* I =557 */
(PID.TID 0000.0001)                 3.105476657588797E+05,      /* I =558 */
(PID.TID 0000.0001)                 3.119757031822313E+05,      /* I =559 */
(PID.TID 0000.0001)     2 @  3.126963716684348E+05,             /* I =560:561 */
(PID.TID 0000.0001)                 3.119757031822313E+05,      /* I =562 */
(PID.TID 0000.0001)                 3.105476657588797E+05,      /* I =563 */
(PID.TID 0000.0001)                 3.084391345892176E+05,      /* I =564 */
(PID.TID 0000.0001)                 3.056911758960931E+05,      /* I =565 */
(PID.TID 0000.0001)                 3.023601215446892E+05,      /* I =566 */
(PID.TID 0000.0001)                 2.985192628631004E+05,      /* I =567 */
(PID.TID 0000.0001)                 2.942613213681001E+05,      /* I =568 */
(PID.TID 0000.0001)                 2.897017600496954E+05,      /* I =569 */
(PID.TID 0000.0001)                 2.849827251709129E+05,      /* I =570 */
(PID.TID 0000.0001)                 2.802768275386160E+05,      /* I =571 */
(PID.TID 0000.0001)                 2.757889673278915E+05,      /* I =572 */
(PID.TID 0000.0001)                 2.717530548984243E+05,      /* I =573 */
(PID.TID 0000.0001)                 2.684194260377608E+05,      /* I =574 */
(PID.TID 0000.0001)                 2.660295500376044E+05,      /* I =575 */
(PID.TID 0000.0001)                 2.647791839299727E+05,      /* I =576 */
(PID.TID 0000.0001)                 3.013593857228136E+05,      /* I =577 */
(PID.TID 0000.0001)                 3.018056440786431E+05,      /* I =578 */
(PID.TID 0000.0001)                 3.026789946729719E+05,      /* I =579 */
(PID.TID 0000.0001)                 3.039422096857757E+05,      /* I =580 */
(PID.TID 0000.0001)                 3.055420860601236E+05,      /* I =581 */
(PID.TID 0000.0001)                 3.074122965148668E+05,      /* I =582 */
(PID.TID 0000.0001)                 3.094767373001940E+05,      /* I =583 */
(PID.TID 0000.0001)                 3.116531025121516E+05,      /* I =584 */
(PID.TID 0000.0001)                 3.138564503561421E+05,      /* I =585 */
(PID.TID 0000.0001)                 3.160025832904765E+05,      /* I =586 */
(PID.TID 0000.0001)                 3.180111244362097E+05,      /* I =587 */
(PID.TID 0000.0001)                 3.198082246942282E+05,      /* I =588 */
(PID.TID 0000.0001)                 3.213288727261454E+05,      /* I =589 */
(PID.TID 0000.0001)                 3.225188028454169E+05,      /* I =590 */
(PID.TID 0000.0001)                 3.233360067886980E+05,      /* I =591 */
(PID.TID 0000.0001)     2 @  3.237518583690030E+05,             /* I =592:593 */
(PID.TID 0000.0001)                 3.233360067886980E+05,      /* I =594 */
(PID.TID 0000.0001)                 3.225188028454169E+05,      /* I =595 */
(PID.TID 0000.0001)                 3.213288727261454E+05,      /* I =596 */
(PID.TID 0000.0001)                 3.198082246942282E+05,      /* I =597 */
(PID.TID 0000.0001)                 3.180111244362097E+05,      /* I =598 */
(PID.TID 0000.0001)                 3.160025832904765E+05,      /* I =599 */
(PID.TID 0000.0001)                 3.138564503561421E+05,      /* I =600 */
(PID.TID 0000.0001)                 3.116531025121516E+05,      /* I =601 */
(PID.TID 0000.0001)                 3.094767373001940E+05,      /* I =602 */
(PID.TID 0000.0001)                 3.074122965148668E+05,      /* I =603 */
(PID.TID 0000.0001)                 3.055420860601236E+05,      /* I =604 */
(PID.TID 0000.0001)                 3.039422096857757E+05,      /* I =605 */
(PID.TID 0000.0001)                 3.026789946729719E+05,      /* I =606 */
(PID.TID 0000.0001)                 3.018056440786431E+05,      /* I =607 */
(PID.TID 0000.0001)                 3.013593857228136E+05,      /* I =608 */
(PID.TID 0000.0001)                 2.647791839299727E+05,      /* I =609 */
(PID.TID 0000.0001)                 2.660295500376044E+05,      /* I =610 */
(PID.TID 0000.0001)                 2.684194260377608E+05,      /* I =611 */
(PID.TID 0000.0001)                 2.717530548984243E+05,      /* I =612 */
(PID.TID 0000.0001)                 2.757889673278915E+05,      /* I =613 */
(PID.TID 0000.0001)                 2.802768275386160E+05,      /* I =614 */
(PID.TID 0000.0001)                 2.849827251709129E+05,      /* I =615 */
(PID.TID 0000.0001)                 2.897017600496954E+05,      /* I =616 */
(PID.TID 0000.0001)                 2.942613213681001E+05,      /* I =617 */
(PID.TID 0000.0001)                 2.985192628631004E+05,      /* I =618 */
(PID.TID 0000.0001)                 3.023601215446892E+05,      /* I =619 */
(PID.TID 0000.0001)                 3.056911758960931E+05,      /* I =620 */
(PID.TID 0000.0001)                 3.084391345892176E+05,      /* I =621 */
(PID.TID 0000.0001)                 3.105476657588797E+05,      /* I =622 */
(PID.TID 0000.0001)                 3.119757031822313E+05,      /* I =623 */
(PID.TID 0000.0001)     2 @  3.126963716684348E+05,             /* I =624:625 */
(PID.TID 0000.0001)                 3.119757031822313E+05,      /* I =626 */
(PID.TID 0000.0001)                 3.105476657588797E+05,      /* I =627 */
(PID.TID 0000.0001)                 3.084391345892176E+05,      /* I =628 */
(PID.TID 0000.0001)                 3.056911758960931E+05,      /* I =629 */
(PID.TID 0000.0001)                 3.023601215446892E+05,      /* I =630 */
(PID.TID 0000.0001)                 2.985192628631004E+05,      /* I =631 */
(PID.TID 0000.0001)                 2.942613213681001E+05,      /* I =632 */
(PID.TID 0000.0001)                 2.897017600496954E+05,      /* I =633 */
(PID.TID 0000.0001)                 2.849827251709129E+05,      /* I =634 */
(PID.TID 0000.0001)                 2.802768275386160E+05,      /* I =635 */
(PID.TID 0000.0001)                 2.757889673278915E+05,      /* I =636 */
(PID.TID 0000.0001)                 2.717530548984243E+05,      /* I =637 */
(PID.TID 0000.0001)                 2.684194260377608E+05,      /* I =638 */
(PID.TID 0000.0001)                 2.660295500376044E+05,      /* I =639 */
(PID.TID 0000.0001)                 2.647791839299727E+05,      /* I =640 */
(PID.TID 0000.0001)                 1.114203141013064E+05,      /* I =641 */
(PID.TID 0000.0001)                 1.549545757850771E+05,      /* I =642 */
(PID.TID 0000.0001)                 1.829777599966776E+05,      /* I =643 */
(PID.TID 0000.0001)                 2.042717761866506E+05,      /* I =644 */
(PID.TID 0000.0001)                 2.216367828252819E+05,      /* I =645 */
(PID.TID 0000.0001)                 2.363029564123586E+05,      /* I =646 */
(PID.TID 0000.0001)                 2.489113743322025E+05,      /* I =647 */
(PID.TID 0000.0001)                 2.598293319150326E+05,      /* I =648 */
(PID.TID 0000.0001)                 2.692787333338535E+05,      /* I =649 */
(PID.TID 0000.0001)                 2.773972106720365E+05,      /* I =650 */
(PID.TID 0000.0001)                 2.842706922224557E+05,      /* I =651 */
(PID.TID 0000.0001)                 2.899523122489403E+05,      /* I =652 */
(PID.TID 0000.0001)                 2.944741346384699E+05,      /* I =653 */
(PID.TID 0000.0001)                 2.978547649292580E+05,      /* I =654 */
(PID.TID 0000.0001)                 3.001044073506459E+05,      /* I =655 */
(PID.TID 0000.0001)     2 @  3.012281885409289E+05,             /* I =656:657 */
(PID.TID 0000.0001)                 3.001044073506459E+05,      /* I =658 */
(PID.TID 0000.0001)                 2.978547649292580E+05,      /* I =659 */
(PID.TID 0000.0001)                 2.944741346384699E+05,      /* I =660 */
(PID.TID 0000.0001)                 2.899523122489403E+05,      /* I =661 */
(PID.TID 0000.0001)                 2.842706922224557E+05,      /* I =662 */
(PID.TID 0000.0001)                 2.773972106720365E+05,      /* I =663 */
(PID.TID 0000.0001)                 2.692787333338535E+05,      /* I =664 */
(PID.TID 0000.0001)                 2.598293319150326E+05,      /* I =665 */
(PID.TID 0000.0001)                 2.489113743322025E+05,      /* I =666 */
(PID.TID 0000.0001)                 2.363029564123586E+05,      /* I =667 */
(PID.TID 0000.0001)                 2.216367828252819E+05,      /* I =668 */
(PID.TID 0000.0001)                 2.042717761866506E+05,      /* I =669 */
(PID.TID 0000.0001)                 1.829777599966776E+05,      /* I =670 */
(PID.TID 0000.0001)                 1.549545757850771E+05,      /* I =671 */
(PID.TID 0000.0001)                 1.114203141013064E+05,      /* I =672 */
(PID.TID 0000.0001)                 2.647791839299727E+05,      /* I =673 */
(PID.TID 0000.0001)                 2.660295500376044E+05,      /* I =674 */
(PID.TID 0000.0001)                 2.684194260377608E+05,      /* I =675 */
(PID.TID 0000.0001)                 2.717530548984243E+05,      /* I =676 */
(PID.TID 0000.0001)                 2.757889673278915E+05,      /* I =677 */
(PID.TID 0000.0001)                 2.802768275386160E+05,      /* I =678 */
(PID.TID 0000.0001)                 2.849827251709129E+05,      /* I =679 */
(PID.TID 0000.0001)                 2.897017600496954E+05,      /* I =680 */
(PID.TID 0000.0001)                 2.942613213681001E+05,      /* I =681 */
(PID.TID 0000.0001)                 2.985192628631004E+05,      /* I =682 */
(PID.TID 0000.0001)                 3.023601215446892E+05,      /* I =683 */
(PID.TID 0000.0001)                 3.056911758960931E+05,      /* I =684 */
(PID.TID 0000.0001)                 3.084391345892176E+05,      /* I =685 */
(PID.TID 0000.0001)                 3.105476657588797E+05,      /* I =686 */
(PID.TID 0000.0001)                 3.119757031822313E+05,      /* I =687 */
(PID.TID 0000.0001)     2 @  3.126963716684348E+05,             /* I =688:689 */
(PID.TID 0000.0001)                 3.119757031822313E+05,      /* I =690 */
(PID.TID 0000.0001)                 3.105476657588797E+05,      /* I =691 */
(PID.TID 0000.0001)                 3.084391345892176E+05,      /* I =692 */
(PID.TID 0000.0001)                 3.056911758960931E+05,      /* I =693 */
(PID.TID 0000.0001)                 3.023601215446892E+05,      /* I =694 */
(PID.TID 0000.0001)                 2.985192628631004E+05,      /* I =695 */
(PID.TID 0000.0001)                 2.942613213681001E+05,      /* I =696 */
(PID.TID 0000.0001)                 2.897017600496954E+05,      /* I =697 */
(PID.TID 0000.0001)                 2.849827251709129E+05,      /* I =698 */
(PID.TID 0000.0001)                 2.802768275386160E+05,      /* I =699 */
(PID.TID 0000.0001)                 2.757889673278915E+05,      /* I =700 */
(PID.TID 0000.0001)                 2.717530548984243E+05,      /* I =701 */
(PID.TID 0000.0001)                 2.684194260377608E+05,      /* I =702 */
(PID.TID 0000.0001)                 2.660295500376044E+05,      /* I =703 */
(PID.TID 0000.0001)                 2.647791839299727E+05,      /* I =704 */
(PID.TID 0000.0001)                 3.013593857228136E+05,      /* I =705 */
(PID.TID 0000.0001)                 3.018056440786431E+05,      /* I =706 */
(PID.TID 0000.0001)                 3.026789946729719E+05,      /* I =707 */
(PID.TID 0000.0001)                 3.039422096857757E+05,      /* I =708 */
(PID.TID 0000.0001)                 3.055420860601236E+05,      /* I =709 */
(PID.TID 0000.0001)                 3.074122965148668E+05,      /* I =710 */
(PID.TID 0000.0001)                 3.094767373001940E+05,      /* I =711 */
(PID.TID 0000.0001)                 3.116531025121516E+05,      /* I =712 */
(PID.TID 0000.0001)                 3.138564503561421E+05,      /* I =713 */
(PID.TID 0000.0001)                 3.160025832904765E+05,      /* I =714 */
(PID.TID 0000.0001)                 3.180111244362097E+05,      /* I =715 */
(PID.TID 0000.0001)                 3.198082246942282E+05,      /* I =716 */
(PID.TID 0000.0001)                 3.213288727261454E+05,      /* I =717 */
(PID.TID 0000.0001)                 3.225188028454169E+05,      /* I =718 */
(PID.TID 0000.0001)                 3.233360067886980E+05,      /* I =719 */
(PID.TID 0000.0001)     2 @  3.237518583690030E+05,             /* I =720:721 */
(PID.TID 0000.0001)                 3.233360067886980E+05,      /* I =722 */
(PID.TID 0000.0001)                 3.225188028454169E+05,      /* I =723 */
(PID.TID 0000.0001)                 3.213288727261454E+05,      /* I =724 */
(PID.TID 0000.0001)                 3.198082246942282E+05,      /* I =725 */
(PID.TID 0000.0001)                 3.180111244362097E+05,      /* I =726 */
(PID.TID 0000.0001)                 3.160025832904765E+05,      /* I =727 */
(PID.TID 0000.0001)                 3.138564503561421E+05,      /* I =728 */
(PID.TID 0000.0001)                 3.116531025121516E+05,      /* I =729 */
(PID.TID 0000.0001)                 3.094767373001940E+05,      /* I =730 */
(PID.TID 0000.0001)                 3.074122965148668E+05,      /* I =731 */
(PID.TID 0000.0001)                 3.055420860601236E+05,      /* I =732 */
(PID.TID 0000.0001)                 3.039422096857757E+05,      /* I =733 */
(PID.TID 0000.0001)                 3.026789946729719E+05,      /* I =734 */
(PID.TID 0000.0001)                 3.018056440786431E+05,      /* I =735 */
(PID.TID 0000.0001)                 3.013593857228136E+05,      /* I =736 */
(PID.TID 0000.0001)                 2.647791839299727E+05,      /* I =737 */
(PID.TID 0000.0001)                 2.660295500376044E+05,      /* I =738 */
(PID.TID 0000.0001)                 2.684194260377608E+05,      /* I =739 */
(PID.TID 0000.0001)                 2.717530548984243E+05,      /* I =740 */
(PID.TID 0000.0001)                 2.757889673278915E+05,      /* I =741 */
(PID.TID 0000.0001)                 2.802768275386160E+05,      /* I =742 */
(PID.TID 0000.0001)                 2.849827251709129E+05,      /* I =743 */
(PID.TID 0000.0001)                 2.897017600496954E+05,      /* I =744 */
(PID.TID 0000.0001)                 2.942613213681001E+05,      /* I =745 */
(PID.TID 0000.0001)                 2.985192628631004E+05,      /* I =746 */
(PID.TID 0000.0001)                 3.023601215446892E+05,      /* I =747 */
(PID.TID 0000.0001)                 3.056911758960931E+05,      /* I =748 */
(PID.TID 0000.0001)                 3.084391345892176E+05,      /* I =749 */
(PID.TID 0000.0001)                 3.105476657588797E+05,      /* I =750 */
(PID.TID 0000.0001)                 3.119757031822313E+05,      /* I =751 */
(PID.TID 0000.0001)     2 @  3.126963716684348E+05,             /* I =752:753 */
(PID.TID 0000.0001)                 3.119757031822313E+05,      /* I =754 */
(PID.TID 0000.0001)                 3.105476657588797E+05,      /* I =755 */
(PID.TID 0000.0001)                 3.084391345892176E+05,      /* I =756 */
(PID.TID 0000.0001)                 3.056911758960931E+05,      /* I =757 */
(PID.TID 0000.0001)                 3.023601215446892E+05,      /* I =758 */
(PID.TID 0000.0001)                 2.985192628631004E+05,      /* I =759 */
(PID.TID 0000.0001)                 2.942613213681001E+05,      /* I =760 */
(PID.TID 0000.0001)                 2.897017600496954E+05,      /* I =761 */
(PID.TID 0000.0001)                 2.849827251709129E+05,      /* I =762 */
(PID.TID 0000.0001)                 2.802768275386160E+05,      /* I =763 */
(PID.TID 0000.0001)                 2.757889673278915E+05,      /* I =764 */
(PID.TID 0000.0001)                 2.717530548984243E+05,      /* I =765 */
(PID.TID 0000.0001)                 2.684194260377608E+05,      /* I =766 */
(PID.TID 0000.0001)                 2.660295500376044E+05,      /* I =767 */
(PID.TID 0000.0001)                 2.647791839299727E+05       /* I =768 */
(PID.TID 0000.0001)     ;
(PID.TID 0000.0001) dyC =  /* dyC(1,:,1,:) ( units: m ) */
(PID.TID 0000.0001)                 1.114203141013064E+05,      /* J =  1 */
(PID.TID 0000.0001)                 1.391343389937106E+05,      /* J =  2 */
(PID.TID 0000.0001)                 1.709574999026266E+05,      /* J =  3 */
(PID.TID 0000.0001)                 1.946503699269892E+05,      /* J =  4 */
(PID.TID 0000.0001)                 2.135964483342134E+05,      /* J =  5 */
(PID.TID 0000.0001)                 2.294195678257306E+05,      /* J =  6 */
(PID.TID 0000.0001)                 2.429464709770498E+05,      /* J =  7 */
(PID.TID 0000.0001)                 2.546408290696998E+05       /* J =  8 */
(PID.TID 0000.0001)     ;
(PID.TID 0000.0001) dxV =  /* dxV(:,1,:,1) ( units: m ) */
(PID.TID 0000.0001)                 8.015229982413632E+04,      /* I =  1 */
(PID.TID 0000.0001)                 1.333130744933864E+05,      /* I =  2 */
(PID.TID 0000.0001)                 1.691744868129062E+05,      /* I =  3 */
(PID.TID 0000.0001)                 1.937548202849060E+05,      /* I =  4 */
(PID.TID 0000.0001)                 2.130490056267208E+05,      /* I =  5 */
(PID.TID 0000.0001)                 2.290479919481738E+05,      /* I =  6 */
(PID.TID 0000.0001)                 2.426774358027003E+05,      /* I =  7 */
(PID.TID 0000.0001)                 2.544372984215561E+05,      /* I =  8 */
(PID.TID 0000.0001)                 2.646201463834826E+05,      /* I =  9 */
(PID.TID 0000.0001)                 2.734046499619031E+05,      /* I = 10 */
(PID.TID 0000.0001)                 2.809019351693761E+05,      /* I = 11 */
(PID.TID 0000.0001)                 2.871811105274442E+05,      /* I = 12 */
(PID.TID 0000.0001)                 2.922844849381675E+05,      /* I = 13 */
(PID.TID 0000.0001)                 2.962371870847826E+05,      /* I = 14 */
(PID.TID 0000.0001)                 2.990534755671296E+05,      /* I = 15 */
(PID.TID 0000.0001)                 3.007409169495504E+05,      /* I = 16 */
(PID.TID 0000.0001)                 3.013031486919771E+05,      /* I = 17 */
(PID.TID 0000.0001)                 3.007409169495504E+05,      /* I = 18 */
(PID.TID 0000.0001)                 2.990534755671296E+05,      /* I = 19 */
(PID.TID 0000.0001)                 2.962371870847826E+05,      /* I = 20 */
(PID.TID 0000.0001)                 2.922844849381675E+05,      /* I = 21 */
(PID.TID 0000.0001)                 2.871811105274442E+05,      /* I = 22 */
(PID.TID 0000.0001)                 2.809019351693761E+05,      /* I = 23 */
(PID.TID 0000.0001)                 2.734046499619031E+05,      /* I = 24 */
(PID.TID 0000.0001)                 2.646201463834826E+05,      /* I = 25 */
(PID.TID 0000.0001)                 2.544372984215561E+05,      /* I = 26 */
(PID.TID 0000.0001)                 2.426774358027003E+05,      /* I = 27 */
(PID.TID 0000.0001)                 2.290479919481738E+05,      /* I = 28 */
(PID.TID 0000.0001)                 2.130490056267208E+05,      /* I = 29 */
(PID.TID 0000.0001)                 1.937548202849060E+05,      /* I = 30 */
(PID.TID 0000.0001)                 1.691744868129062E+05,      /* I = 31 */
(PID.TID 0000.0001)                 1.333130744933864E+05,      /* I = 32 */
(PID.TID 0000.0001)                 2.647274964828301E+05,      /* I = 33 */
(PID.TID 0000.0001)                 2.653456356424517E+05,      /* I = 34 */
(PID.TID 0000.0001)                 2.671753991965412E+05,      /* I = 35 */
(PID.TID 0000.0001)                 2.700508040612306E+05,      /* I = 36 */
(PID.TID 0000.0001)                 2.737508146608168E+05,      /* I = 37 */
(PID.TID 0000.0001)                 2.780276168082243E+05,      /* I = 38 */
(PID.TID 0000.0001)                 2.826379708415628E+05,      /* I = 39 */
(PID.TID 0000.0001)                 2.873620334559252E+05,      /* I = 40 */
(PID.TID 0000.0001)                 2.920110325953347E+05,      /* I = 41 */
(PID.TID 0000.0001)                 2.964277678938787E+05,      /* I = 42 */
(PID.TID 0000.0001)                 3.004836638020456E+05,      /* I = 43 */
(PID.TID 0000.0001)                 3.040748366383395E+05,      /* I = 44 */
(PID.TID 0000.0001)                 3.071184425324030E+05,      /* I = 45 */
(PID.TID 0000.0001)                 3.095497845682837E+05,      /* I = 46 */
(PID.TID 0000.0001)                 3.113202383405265E+05,      /* I = 47 */
(PID.TID 0000.0001)                 3.123958777280941E+05,      /* I = 48 */
(PID.TID 0000.0001)                 3.127567211383312E+05,      /* I = 49 */
(PID.TID 0000.0001)                 3.123958777280941E+05,      /* I = 50 */
(PID.TID 0000.0001)                 3.113202383405265E+05,      /* I = 51 */
(PID.TID 0000.0001)                 3.095497845682837E+05,      /* I = 52 */
(PID.TID 0000.0001)                 3.071184425324030E+05,      /* I = 53 */
(PID.TID 0000.0001)                 3.040748366383395E+05,      /* I = 54 */
(PID.TID 0000.0001)                 3.004836638020456E+05,      /* I = 55 */
(PID.TID 0000.0001)                 2.964277678938787E+05,      /* I = 56 */
(PID.TID 0000.0001)                 2.920110325953347E+05,      /* I = 57 */
(PID.TID 0000.0001)                 2.873620334559252E+05,      /* I = 58 */
(PID.TID 0000.0001)                 2.826379708415628E+05,      /* I = 59 */
(PID.TID 0000.0001)                 2.780276168082243E+05,      /* I = 60 */
(PID.TID 0000.0001)                 2.737508146608168E+05,      /* I = 61 */
(PID.TID 0000.0001)                 2.700508040612306E+05,      /* I = 62 */
(PID.TID 0000.0001)                 2.671753991965412E+05,      /* I = 63 */
(PID.TID 0000.0001)                 2.653456356424517E+05,      /* I = 64 */
(PID.TID 0000.0001)                 3.013686170436881E+05,      /* I = 65 */
(PID.TID 0000.0001)                 3.015922136961168E+05,      /* I = 66 */
(PID.TID 0000.0001)                 3.022533948177109E+05,      /* I = 67 */
(PID.TID 0000.0001)                 3.033238888442880E+05,      /* I = 68 */
(PID.TID 0000.0001)                 3.047583645125296E+05,      /* I = 69 */
(PID.TID 0000.0001)                 3.064969104248934E+05,      /* I = 70 */
(PID.TID 0000.0001)                 3.084681464323149E+05,      /* I = 71 */
(PID.TID 0000.0001)                 3.105926959662063E+05,      /* I = 72 */
(PID.TID 0000.0001)                 3.127867656729039E+05,      /* I = 73 */
(PID.TID 0000.0001)                 3.149656255235069E+05,      /* I = 74 */
(PID.TID 0000.0001)                 3.170468416979250E+05,      /* I = 75 */
(PID.TID 0000.0001)                 3.189531711639232E+05,      /* I = 76 */
(PID.TID 0000.0001)                 3.206150718566154E+05,      /* I = 77 */
(PID.TID 0000.0001)                 3.219728125807783E+05,      /* I = 78 */
(PID.TID 0000.0001)                 3.229781834933111E+05,      /* I = 79 */
(PID.TID 0000.0001)                 3.235958148230841E+05,      /* I = 80 */
(PID.TID 0000.0001)                 3.238041816275029E+05,      /* I = 81 */
(PID.TID 0000.0001)                 3.235958148230841E+05,      /* I = 82 */
(PID.TID 0000.0001)                 3.229781834933111E+05,      /* I = 83 */
(PID.TID 0000.0001)                 3.219728125807783E+05,      /* I = 84 */
(PID.TID 0000.0001)                 3.206150718566154E+05,      /* I = 85 */
(PID.TID 0000.0001)                 3.189531711639232E+05,      /* I = 86 */
(PID.TID 0000.0001)                 3.170468416979250E+05,      /* I = 87 */
(PID.TID 0000.0001)                 3.149656255235069E+05,      /* I = 88 */
(PID.TID 0000.0001)                 3.127867656729039E+05,      /* I = 89 */
(PID.TID 0000.0001)                 3.105926959662063E+05,      /* I = 90 */
(PID.TID 0000.0001)                 3.084681464323149E+05,      /* I = 91 */
(PID.TID 0000.0001)                 3.064969104248934E+05,      /* I = 92 */
(PID.TID 0000.0001)                 3.047583645125296E+05,      /* I = 93 */
(PID.TID 0000.0001)                 3.033238888442880E+05,      /* I = 94 */
(PID.TID 0000.0001)                 3.022533948177109E+05,      /* I = 95 */
(PID.TID 0000.0001)                 3.015922136961168E+05,      /* I = 96 */
(PID.TID 0000.0001)                 2.647274964828301E+05,      /* I = 97 */
(PID.TID 0000.0001)                 2.653456356424517E+05,      /* I = 98 */
(PID.TID 0000.0001)                 2.671753991965412E+05,      /* I = 99 */
(PID.TID 0000.0001)                 2.700508040612306E+05,      /* I =100 */
(PID.TID 0000.0001)                 2.737508146608168E+05,      /* I =101 */
(PID.TID 0000.0001)                 2.780276168082243E+05,      /* I =102 */
(PID.TID 0000.0001)                 2.826379708415628E+05,      /* I =103 */
(PID.TID 0000.0001)                 2.873620334559252E+05,      /* I =104 */
(PID.TID 0000.0001)                 2.920110325953347E+05,      /* I =105 */
(PID.TID 0000.0001)                 2.964277678938787E+05,      /* I =106 */
(PID.TID 0000.0001)                 3.004836638020456E+05,      /* I =107 */
(PID.TID 0000.0001)                 3.040748366383395E+05,      /* I =108 */
(PID.TID 0000.0001)                 3.071184425324030E+05,      /* I =109 */
(PID.TID 0000.0001)                 3.095497845682837E+05,      /* I =110 */
(PID.TID 0000.0001)                 3.113202383405265E+05,      /* I =111 */
(PID.TID 0000.0001)                 3.123958777280941E+05,      /* I =112 */
(PID.TID 0000.0001)                 3.127567211383312E+05,      /* I =113 */
(PID.TID 0000.0001)                 3.123958777280941E+05,      /* I =114 */
(PID.TID 0000.0001)                 3.113202383405265E+05,      /* I =115 */
(PID.TID 0000.0001)                 3.095497845682837E+05,      /* I =116 */
(PID.TID 0000.0001)                 3.071184425324030E+05,      /* I =117 */
(PID.TID 0000.0001)                 3.040748366383395E+05,      /* I =118 */
(PID.TID 0000.0001)                 3.004836638020456E+05,      /* I =119 */
(PID.TID 0000.0001)                 2.964277678938787E+05,      /* I =120 */
(PID.TID 0000.0001)                 2.920110325953347E+05,      /* I =121 */
(PID.TID 0000.0001)                 2.873620334559252E+05,      /* I =122 */
(PID.TID 0000.0001)                 2.826379708415628E+05,      /* I =123 */
(PID.TID 0000.0001)                 2.780276168082243E+05,      /* I =124 */
(PID.TID 0000.0001)                 2.737508146608168E+05,      /* I =125 */
(PID.TID 0000.0001)                 2.700508040612306E+05,      /* I =126 */
(PID.TID 0000.0001)                 2.671753991965412E+05,      /* I =127 */
(PID.TID 0000.0001)                 2.653456356424517E+05,      /* I =128 */
(PID.TID 0000.0001)                 8.015229982413632E+04,      /* I =129 */
(PID.TID 0000.0001)                 1.333130744933864E+05,      /* I =130 */
(PID.TID 0000.0001)                 1.691744868129062E+05,      /* I =131 */
(PID.TID 0000.0001)                 1.937548202849060E+05,      /* I =132 */
(PID.TID 0000.0001)                 2.130490056267208E+05,      /* I =133 */
(PID.TID 0000.0001)                 2.290479919481738E+05,      /* I =134 */
(PID.TID 0000.0001)                 2.426774358027003E+05,      /* I =135 */
(PID.TID 0000.0001)                 2.544372984215561E+05,      /* I =136 */
(PID.TID 0000.0001)                 2.646201463834826E+05,      /* I =137 */
(PID.TID 0000.0001)                 2.734046499619031E+05,      /* I =138 */
(PID.TID 0000.0001)                 2.809019351693761E+05,      /* I =139 */
(PID.TID 0000.0001)                 2.871811105274442E+05,      /* I =140 */
(PID.TID 0000.0001)                 2.922844849381675E+05,      /* I =141 */
(PID.TID 0000.0001)                 2.962371870847826E+05,      /* I =142 */
(PID.TID 0000.0001)                 2.990534755671296E+05,      /* I =143 */
(PID.TID 0000.0001)                 3.007409169495504E+05,      /* I =144 */
(PID.TID 0000.0001)                 3.013031486919771E+05,      /* I =145 */
(PID.TID 0000.0001)                 3.007409169495504E+05,      /* I =146 */
(PID.TID 0000.0001)                 2.990534755671296E+05,      /* I =147 */
(PID.TID 0000.0001)                 2.962371870847826E+05,      /* I =148 */
(PID.TID 0000.0001)                 2.922844849381675E+05,      /* I =149 */
(PID.TID 0000.0001)                 2.871811105274442E+05,      /* I =150 */
(PID.TID 0000.0001)                 2.809019351693761E+05,      /* I =151 */
(PID.TID 0000.0001)                 2.734046499619031E+05,      /* I =152 */
(PID.TID 0000.0001)                 2.646201463834826E+05,      /* I =153 */
(PID.TID 0000.0001)                 2.544372984215561E+05,      /* I =154 */
(PID.TID 0000.0001)                 2.426774358027003E+05,      /* I =155 */
(PID.TID 0000.0001)                 2.290479919481738E+05,      /* I =156 */
(PID.TID 0000.0001)                 2.130490056267208E+05,      /* I =157 */
(PID.TID 0000.0001)                 1.937548202849060E+05,      /* I =158 */
(PID.TID 0000.0001)                 1.691744868129062E+05,      /* I =159 */
(PID.TID 0000.0001)                 1.333130744933864E+05,      /* I =160 */
(PID.TID 0000.0001)                 2.647274964828301E+05,      /* I =161 */
(PID.TID 0000.0001)                 2.653456356424517E+05,      /* I =162 */
(PID.TID 0000.0001)                 2.671753991965412E+05,      /* I =163 */
(PID.TID 0000.0001)                 2.700508040612306E+05,      /* I =164 */
(PID.TID 0000.0001)                 2.737508146608168E+05,      /* I =165 */
(PID.TID 0000.0001)                 2.780276168082243E+05,      /* I =166 */
(PID.TID 0000.0001)                 2.826379708415628E+05,      /* I =167 */
(PID.TID 0000.0001)                 2.873620334559252E+05,      /* I =168 */
(PID.TID 0000.0001)                 2.920110325953347E+05,      /* I =169 */
(PID.TID 0000.0001)                 2.964277678938787E+05,      /* I =170 */
(PID.TID 0000.0001)                 3.004836638020456E+05,      /* I =171 */
(PID.TID 0000.0001)                 3.040748366383395E+05,      /* I =172 */
(PID.TID 0000.0001)                 3.071184425324030E+05,      /* I =173 */
(PID.TID 0000.0001)                 3.095497845682837E+05,      /* I =174 */
(PID.TID 0000.0001)                 3.113202383405265E+05,      /* I =175 */
(PID.TID 0000.0001)                 3.123958777280941E+05,      /* I =176 */
(PID.TID 0000.0001)                 3.127567211383312E+05,      /* I =177 */
(PID.TID 0000.0001)                 3.123958777280941E+05,      /* I =178 */
(PID.TID 0000.0001)                 3.113202383405265E+05,      /* I =179 */
(PID.TID 0000.0001)                 3.095497845682837E+05,      /* I =180 */
(PID.TID 0000.0001)                 3.071184425324030E+05,      /* I =181 */
(PID.TID 0000.0001)                 3.040748366383395E+05,      /* I =182 */
(PID.TID 0000.0001)                 3.004836638020456E+05,      /* I =183 */
(PID.TID 0000.0001)                 2.964277678938787E+05,      /* I =184 */
(PID.TID 0000.0001)                 2.920110325953347E+05,      /* I =185 */
(PID.TID 0000.0001)                 2.873620334559252E+05,      /* I =186 */
(PID.TID 0000.0001)                 2.826379708415628E+05,      /* I =187 */
(PID.TID 0000.0001)                 2.780276168082243E+05,      /* I =188 */
(PID.TID 0000.0001)                 2.737508146608168E+05,      /* I =189 */
(PID.TID 0000.0001)                 2.700508040612306E+05,      /* I =190 */
(PID.TID 0000.0001)                 2.671753991965412E+05,      /* I =191 */
(PID.TID 0000.0001)                 2.653456356424517E+05,      /* I =192 */
(PID.TID 0000.0001)                 3.013686170436881E+05,      /* I =193 */
(PID.TID 0000.0001)                 3.015922136961168E+05,      /* I =194 */
(PID.TID 0000.0001)                 3.022533948177109E+05,      /* I =195 */
(PID.TID 0000.0001)                 3.033238888442880E+05,      /* I =196 */
(PID.TID 0000.0001)                 3.047583645125296E+05,      /* I =197 */
(PID.TID 0000.0001)                 3.064969104248934E+05,      /* I =198 */
(PID.TID 0000.0001)                 3.084681464323149E+05,      /* I =199 */
(PID.TID 0000.0001)                 3.105926959662063E+05,      /* I =200 */
(PID.TID 0000.0001)                 3.127867656729039E+05,      /* I =201 */
(PID.TID 0000.0001)                 3.149656255235069E+05,      /* I =202 */
(PID.TID 0000.0001)                 3.170468416979250E+05,      /* I =203 */
(PID.TID 0000.0001)                 3.189531711639232E+05,      /* I =204 */
(PID.TID 0000.0001)                 3.206150718566154E+05,      /* I =205 */
(PID.TID 0000.0001)                 3.219728125807783E+05,      /* I =206 */
(PID.TID 0000.0001)                 3.229781834933111E+05,      /* I =207 */
(PID.TID 0000.0001)                 3.235958148230841E+05,      /* I =208 */
(PID.TID 0000.0001)                 3.238041816275029E+05,      /* I =209 */
(PID.TID 0000.0001)                 3.235958148230841E+05,      /* I =210 */
(PID.TID 0000.0001)                 3.229781834933111E+05,      /* I =211 */
(PID.TID 0000.0001)                 3.219728125807783E+05,      /* I =212 */
(PID.TID 0000.0001)                 3.206150718566154E+05,      /* I =213 */
(PID.TID 0000.0001)                 3.189531711639232E+05,      /* I =214 */
(PID.TID 0000.0001)                 3.170468416979250E+05,      /* I =215 */
(PID.TID 0000.0001)                 3.149656255235069E+05,      /* I =216 */
(PID.TID 0000.0001)                 3.127867656729039E+05,      /* I =217 */
(PID.TID 0000.0001)                 3.105926959662063E+05,      /* I =218 */
(PID.TID 0000.0001)                 3.084681464323149E+05,      /* I =219 */
(PID.TID 0000.0001)                 3.064969104248934E+05,      /* I =220 */
(PID.TID 0000.0001)                 3.047583645125296E+05,      /* I =221 */
(PID.TID 0000.0001)                 3.033238888442880E+05,      /* I =222 */
(PID.TID 0000.0001)                 3.022533948177109E+05,      /* I =223 */
(PID.TID 0000.0001)                 3.015922136961168E+05,      /* I =224 */
(PID.TID 0000.0001)                 2.647274964828301E+05,      /* I =225 */
(PID.TID 0000.0001)                 2.653456356424517E+05,      /* I =226 */
(PID.TID 0000.0001)                 2.671753991965412E+05,      /* I =227 */
(PID.TID 0000.0001)                 2.700508040612306E+05,      /* I =228 */
(PID.TID 0000.0001)                 2.737508146608168E+05,      /* I =229 */
(PID.TID 0000.0001)                 2.780276168082243E+05,      /* I =230 */
(PID.TID 0000.0001)                 2.826379708415628E+05,      /* I =231 */
(PID.TID 0000.0001)                 2.873620334559252E+05,      /* I =232 */
(PID.TID 0000.0001)                 2.920110325953347E+05,      /* I =233 */
(PID.TID 0000.0001)                 2.964277678938787E+05,      /* I =234 */
(PID.TID 0000.0001)                 3.004836638020456E+05,      /* I =235 */
(PID.TID 0000.0001)                 3.040748366383395E+05,      /* I =236 */
(PID.TID 0000.0001)                 3.071184425324030E+05,      /* I =237 */
(PID.TID 0000.0001)                 3.095497845682837E+05,      /* I =238 */
(PID.TID 0000.0001)                 3.113202383405265E+05,      /* I =239 */
(PID.TID 0000.0001)                 3.123958777280941E+05,      /* I =240 */
(PID.TID 0000.0001)                 3.127567211383312E+05,      /* I =241 */
(PID.TID 0000.0001)                 3.123958777280941E+05,      /* I =242 */
(PID.TID 0000.0001)                 3.113202383405265E+05,      /* I =243 */
(PID.TID 0000.0001)                 3.095497845682837E+05,      /* I =244 */
(PID.TID 0000.0001)                 3.071184425324030E+05,      /* I =245 */
(PID.TID 0000.0001)                 3.040748366383395E+05,      /* I =246 */
(PID.TID 0000.0001)                 3.004836638020456E+05,      /* I =247 */
(PID.TID 0000.0001)                 2.964277678938787E+05,      /* I =248 */
(PID.TID 0000.0001)                 2.920110325953347E+05,      /* I =249 */
(PID.TID 0000.0001)                 2.873620334559252E+05,      /* I =250 */
(PID.TID 0000.0001)                 2.826379708415628E+05,      /* I =251 */
(PID.TID 0000.0001)                 2.780276168082243E+05,      /* I =252 */
(PID.TID 0000.0001)                 2.737508146608168E+05,      /* I =253 */
(PID.TID 0000.0001)                 2.700508040612306E+05,      /* I =254 */
(PID.TID 0000.0001)                 2.671753991965412E+05,      /* I =255 */
(PID.TID 0000.0001)                 2.653456356424517E+05,      /* I =256 */
(PID.TID 0000.0001)                 8.015229982413632E+04,      /* I =257 */
(PID.TID 0000.0001)                 1.333130744933864E+05,      /* I =258 */
(PID.TID 0000.0001)                 1.691744868129062E+05,      /* I =259 */
(PID.TID 0000.0001)                 1.937548202849060E+05,      /* I =260 */
(PID.TID 0000.0001)                 2.130490056267208E+05,      /* I =261 */
(PID.TID 0000.0001)                 2.290479919481738E+05,      /* I =262 */
(PID.TID 0000.0001)                 2.426774358027003E+05,      /* I =263 */
(PID.TID 0000.0001)                 2.544372984215561E+05,      /* I =264 */
(PID.TID 0000.0001)                 2.646201463834826E+05,      /* I =265 */
(PID.TID 0000.0001)                 2.734046499619031E+05,      /* I =266 */
(PID.TID 0000.0001)                 2.809019351693761E+05,      /* I =267 */
(PID.TID 0000.0001)                 2.871811105274442E+05,      /* I =268 */
(PID.TID 0000.0001)                 2.922844849381675E+05,      /* I =269 */
(PID.TID 0000.0001)                 2.962371870847826E+05,      /* I =270 */
(PID.TID 0000.0001)                 2.990534755671296E+05,      /* I =271 */
(PID.TID 0000.0001)                 3.007409169495504E+05,      /* I =272 */
(PID.TID 0000.0001)                 3.013031486919771E+05,      /* I =273 */
(PID.TID 0000.0001)                 3.007409169495504E+05,      /* I =274 */
(PID.TID 0000.0001)                 2.990534755671296E+05,      /* I =275 */
(PID.TID 0000.0001)                 2.962371870847826E+05,      /* I =276 */
(PID.TID 0000.0001)                 2.922844849381675E+05,      /* I =277 */
(PID.TID 0000.0001)                 2.871811105274442E+05,      /* I =278 */
(PID.TID 0000.0001)                 2.809019351693761E+05,      /* I =279 */
(PID.TID 0000.0001)                 2.734046499619031E+05,      /* I =280 */
(PID.TID 0000.0001)                 2.646201463834826E+05,      /* I =281 */
(PID.TID 0000.0001)                 2.544372984215561E+05,      /* I =282 */
(PID.TID 0000.0001)                 2.426774358027003E+05,      /* I =283 */
(PID.TID 0000.0001)                 2.290479919481738E+05,      /* I =284 */
(PID.TID 0000.0001)                 2.130490056267208E+05,      /* I =285 */
(PID.TID 0000.0001)                 1.937548202849060E+05,      /* I =286 */
(PID.TID 0000.0001)                 1.691744868129062E+05,      /* I =287 */
(PID.TID 0000.0001)                 1.333130744933864E+05,      /* I =288 */
(PID.TID 0000.0001)                 2.647274964828301E+05,      /* I =289 */
(PID.TID 0000.0001)                 2.653456356424517E+05,      /* I =290 */
(PID.TID 0000.0001)                 2.671753991965412E+05,      /* I =291 */
(PID.TID 0000.0001)                 2.700508040612306E+05,      /* I =292 */
(PID.TID 0000.0001)                 2.737508146608168E+05,      /* I =293 */
(PID.TID 0000.0001)                 2.780276168082243E+05,      /* I =294 */
(PID.TID 0000.0001)                 2.826379708415628E+05,      /* I =295 */
(PID.TID 0000.0001)                 2.873620334559252E+05,      /* I =296 */
(PID.TID 0000.0001)                 2.920110325953347E+05,      /* I =297 */
(PID.TID 0000.0001)                 2.964277678938787E+05,      /* I =298 */
(PID.TID 0000.0001)                 3.004836638020456E+05,      /* I =299 */
(PID.TID 0000.0001)                 3.040748366383395E+05,      /* I =300 */
(PID.TID 0000.0001)                 3.071184425324030E+05,      /* I =301 */
(PID.TID 0000.0001)                 3.095497845682837E+05,      /* I =302 */
(PID.TID 0000.0001)                 3.113202383405265E+05,      /* I =303 */
(PID.TID 0000.0001)                 3.123958777280941E+05,      /* I =304 */
(PID.TID 0000.0001)                 3.127567211383312E+05,      /* I =305 */
(PID.TID 0000.0001)                 3.123958777280941E+05,      /* I =306 */
(PID.TID 0000.0001)                 3.113202383405265E+05,      /* I =307 */
(PID.TID 0000.0001)                 3.095497845682837E+05,      /* I =308 */
(PID.TID 0000.0001)                 3.071184425324030E+05,      /* I =309 */
(PID.TID 0000.0001)                 3.040748366383395E+05,      /* I =310 */
(PID.TID 0000.0001)                 3.004836638020456E+05,      /* I =311 */
(PID.TID 0000.0001)                 2.964277678938787E+05,      /* I =312 */
(PID.TID 0000.0001)                 2.920110325953347E+05,      /* I =313 */
(PID.TID 0000.0001)                 2.873620334559252E+05,      /* I =314 */
(PID.TID 0000.0001)                 2.826379708415628E+05,      /* I =315 */
(PID.TID 0000.0001)                 2.780276168082243E+05,      /* I =316 */
(PID.TID 0000.0001)                 2.737508146608168E+05,      /* I =317 */
(PID.TID 0000.0001)                 2.700508040612306E+05,      /* I =318 */
(PID.TID 0000.0001)                 2.671753991965412E+05,      /* I =319 */
(PID.TID 0000.0001)                 2.653456356424517E+05,      /* I =320 */
(PID.TID 0000.0001)                 3.013686170436881E+05,      /* I =321 */
(PID.TID 0000.0001)                 3.015922136961168E+05,      /* I =322 */
(PID.TID 0000.0001)                 3.022533948177109E+05,      /* I =323 */
(PID.TID 0000.0001)                 3.033238888442880E+05,      /* I =324 */
(PID.TID 0000.0001)                 3.047583645125296E+05,      /* I =325 */
(PID.TID 0000.0001)                 3.064969104248934E+05,      /* I =326 */
(PID.TID 0000.0001)                 3.084681464323149E+05,      /* I =327 */
(PID.TID 0000.0001)                 3.105926959662063E+05,      /* I =328 */
(PID.TID 0000.0001)                 3.127867656729039E+05,      /* I =329 */
(PID.TID 0000.0001)                 3.149656255235069E+05,      /* I =330 */
(PID.TID 0000.0001)                 3.170468416979250E+05,      /* I =331 */
(PID.TID 0000.0001)                 3.189531711639232E+05,      /* I =332 */
(PID.TID 0000.0001)                 3.206150718566154E+05,      /* I =333 */
(PID.TID 0000.0001)                 3.219728125807783E+05,      /* I =334 */
(PID.TID 0000.0001)                 3.229781834933111E+05,      /* I =335 */
(PID.TID 0000.0001)                 3.235958148230841E+05,      /* I =336 */
(PID.TID 0000.0001)                 3.238041816275029E+05,      /* I =337 */
(PID.TID 0000.0001)                 3.235958148230841E+05,      /* I =338 */
(PID.TID 0000.0001)                 3.229781834933111E+05,      /* I =339 */
(PID.TID 0000.0001)                 3.219728125807783E+05,      /* I =340 */
(PID.TID 0000.0001)                 3.206150718566154E+05,      /* I =341 */
(PID.TID 0000.0001)                 3.189531711639232E+05,      /* I =342 */
(PID.TID 0000.0001)                 3.170468416979250E+05,      /* I =343 */
(PID.TID 0000.0001)                 3.149656255235069E+05,      /* I =344 */
(PID.TID 0000.0001)                 3.127867656729039E+05,      /* I =345 */
(PID.TID 0000.0001)                 3.105926959662063E+05,      /* I =346 */
(PID.TID 0000.0001)                 3.084681464323149E+05,      /* I =347 */
(PID.TID 0000.0001)                 3.064969104248934E+05,      /* I =348 */
(PID.TID 0000.0001)                 3.047583645125296E+05,      /* I =349 */
(PID.TID 0000.0001)                 3.033238888442880E+05,      /* I =350 */
(PID.TID 0000.0001)                 3.022533948177109E+05,      /* I =351 */
(PID.TID 0000.0001)                 3.015922136961168E+05,      /* I =352 */
(PID.TID 0000.0001)                 2.647274964828301E+05,      /* I =353 */
(PID.TID 0000.0001)                 2.653456356424517E+05,      /* I =354 */
(PID.TID 0000.0001)                 2.671753991965412E+05,      /* I =355 */
(PID.TID 0000.0001)                 2.700508040612306E+05,      /* I =356 */
(PID.TID 0000.0001)                 2.737508146608168E+05,      /* I =357 */
(PID.TID 0000.0001)                 2.780276168082243E+05,      /* I =358 */
(PID.TID 0000.0001)                 2.826379708415628E+05,      /* I =359 */
(PID.TID 0000.0001)                 2.873620334559252E+05,      /* I =360 */
(PID.TID 0000.0001)                 2.920110325953347E+05,      /* I =361 */
(PID.TID 0000.0001)                 2.964277678938787E+05,      /* I =362 */
(PID.TID 0000.0001)                 3.004836638020456E+05,      /* I =363 */
(PID.TID 0000.0001)                 3.040748366383395E+05,      /* I =364 */
(PID.TID 0000.0001)                 3.071184425324030E+05,      /* I =365 */
(PID.TID 0000.0001)                 3.095497845682837E+05,      /* I =366 */
(PID.TID 0000.0001)                 3.113202383405265E+05,      /* I =367 */
(PID.TID 0000.0001)                 3.123958777280941E+05,      /* I =368 */
(PID.TID 0000.0001)                 3.127567211383312E+05,      /* I =369 */
(PID.TID 0000.0001)                 3.123958777280941E+05,      /* I =370 */
(PID.TID 0000.0001)                 3.113202383405265E+05,      /* I =371 */
(PID.TID 0000.0001)                 3.095497845682837E+05,      /* I =372 */
(PID.TID 0000.0001)                 3.071184425324030E+05,      /* I =373 */
(PID.TID 0000.0001)                 3.040748366383395E+05,      /* I =374 */
(PID.TID 0000.0001)                 3.004836638020456E+05,      /* I =375 */
(PID.TID 0000.0001)                 2.964277678938787E+05,      /* I =376 */
(PID.TID 0000.0001)                 2.920110325953347E+05,      /* I =377 */
(PID.TID 0000.0001)                 2.873620334559252E+05,      /* I =378 */
(PID.TID 0000.0001)                 2.826379708415628E+05,      /* I =379 */
(PID.TID 0000.0001)                 2.780276168082243E+05,      /* I =380 */
(PID.TID 0000.0001)                 2.737508146608168E+05,      /* I =381 */
(PID.TID 0000.0001)                 2.700508040612306E+05,      /* I =382 */
(PID.TID 0000.0001)                 2.671753991965412E+05,      /* I =383 */
(PID.TID 0000.0001)                 2.653456356424517E+05,      /* I =384 */
(PID.TID 0000.0001)                 8.015229982413632E+04,      /* I =385 */
(PID.TID 0000.0001)                 1.333130744933864E+05,      /* I =386 */
(PID.TID 0000.0001)                 1.691744868129062E+05,      /* I =387 */
(PID.TID 0000.0001)                 1.937548202849060E+05,      /* I =388 */
(PID.TID 0000.0001)                 2.130490056267208E+05,      /* I =389 */
(PID.TID 0000.0001)                 2.290479919481738E+05,      /* I =390 */
(PID.TID 0000.0001)                 2.426774358027003E+05,      /* I =391 */
(PID.TID 0000.0001)                 2.544372984215561E+05,      /* I =392 */
(PID.TID 0000.0001)                 2.646201463834826E+05,      /* I =393 */
(PID.TID 0000.0001)                 2.734046499619031E+05,      /* I =394 */
(PID.TID 0000.0001)                 2.809019351693761E+05,      /* I =395 */
(PID.TID 0000.0001)                 2.871811105274442E+05,      /* I =396 */
(PID.TID 0000.0001)                 2.922844849381675E+05,      /* I =397 */
(PID.TID 0000.0001)                 2.962371870847826E+05,      /* I =398 */
(PID.TID 0000.0001)                 2.990534755671296E+05,      /* I =399 */
(PID.TID 0000.0001)                 3.007409169495504E+05,      /* I =400 */
(PID.TID 0000.0001)                 3.013031486919771E+05,      /* I =401 */
(PID.TID 0000.0001)                 3.007409169495504E+05,      /* I =402 */
(PID.TID 0000.0001)                 2.990534755671296E+05,      /* I =403 */
(PID.TID 0000.0001)                 2.962371870847826E+05,      /* I =404 */
(PID.TID 0000.0001)                 2.922844849381675E+05,      /* I =405 */
(PID.TID 0000.0001)                 2.871811105274442E+05,      /* I =406 */
(PID.TID 0000.0001)                 2.809019351693761E+05,      /* I =407 */
(PID.TID 0000.0001)                 2.734046499619031E+05,      /* I =408 */
(PID.TID 0000.0001)                 2.646201463834826E+05,      /* I =409 */
(PID.TID 0000.0001)                 2.544372984215561E+05,      /* I =410 */
(PID.TID 0000.0001)                 2.426774358027003E+05,      /* I =411 */
(PID.TID 0000.0001)                 2.290479919481738E+05,      /* I =412 */
(PID.TID 0000.0001)                 2.130490056267208E+05,      /* I =413 */
(PID.TID 0000.0001)                 1.937548202849060E+05,      /* I =414 */
(PID.TID 0000.0001)                 1.691744868129062E+05,      /* I =415 */
(PID.TID 0000.0001)                 1.333130744933864E+05,      /* I =416 */
(PID.TID 0000.0001)                 2.647274964828301E+05,      /* I =417 */
(PID.TID 0000.0001)                 2.653456356424517E+05,      /* I =418 */
(PID.TID 0000.0001)                 2.671753991965412E+05,      /* I =419 */
(PID.TID 0000.0001)                 2.700508040612306E+05,      /* I =420 */
(PID.TID 0000.0001)                 2.737508146608168E+05,      /* I =421 */
(PID.TID 0000.0001)                 2.780276168082243E+05,      /* I =422 */
(PID.TID 0000.0001)                 2.826379708415628E+05,      /* I =423 */
(PID.TID 0000.0001)                 2.873620334559252E+05,      /* I =424 */
(PID.TID 0000.0001)                 2.920110325953347E+05,      /* I =425 */
(PID.TID 0000.0001)                 2.964277678938787E+05,      /* I =426 */
(PID.TID 0000.0001)                 3.004836638020456E+05,      /* I =427 */
(PID.TID 0000.0001)                 3.040748366383395E+05,      /* I =428 */
(PID.TID 0000.0001)                 3.071184425324030E+05,      /* I =429 */
(PID.TID 0000.0001)                 3.095497845682837E+05,      /* I =430 */
(PID.TID 0000.0001)                 3.113202383405265E+05,      /* I =431 */
(PID.TID 0000.0001)                 3.123958777280941E+05,      /* I =432 */
(PID.TID 0000.0001)                 3.127567211383312E+05,      /* I =433 */
(PID.TID 0000.0001)                 3.123958777280941E+05,      /* I =434 */
(PID.TID 0000.0001)                 3.113202383405265E+05,      /* I =435 */
(PID.TID 0000.0001)                 3.095497845682837E+05,      /* I =436 */
(PID.TID 0000.0001)                 3.071184425324030E+05,      /* I =437 */
(PID.TID 0000.0001)                 3.040748366383395E+05,      /* I =438 */
(PID.TID 0000.0001)                 3.004836638020456E+05,      /* I =439 */
(PID.TID 0000.0001)                 2.964277678938787E+05,      /* I =440 */
(PID.TID 0000.0001)                 2.920110325953347E+05,      /* I =441 */
(PID.TID 0000.0001)                 2.873620334559252E+05,      /* I =442 */
(PID.TID 0000.0001)                 2.826379708415628E+05,      /* I =443 */
(PID.TID 0000.0001)                 2.780276168082243E+05,      /* I =444 */
(PID.TID 0000.0001)                 2.737508146608168E+05,      /* I =445 */
(PID.TID 0000.0001)                 2.700508040612306E+05,      /* I =446 */
(PID.TID 0000.0001)                 2.671753991965412E+05,      /* I =447 */
(PID.TID 0000.0001)                 2.653456356424517E+05,      /* I =448 */
(PID.TID 0000.0001)                 3.013686170436881E+05,      /* I =449 */
(PID.TID 0000.0001)                 3.015922136961168E+05,      /* I =450 */
(PID.TID 0000.0001)                 3.022533948177109E+05,      /* I =451 */
(PID.TID 0000.0001)                 3.033238888442880E+05,      /* I =452 */
(PID.TID 0000.0001)                 3.047583645125296E+05,      /* I =453 */
(PID.TID 0000.0001)                 3.064969104248934E+05,      /* I =454 */
(PID.TID 0000.0001)                 3.084681464323149E+05,      /* I =455 */
(PID.TID 0000.0001)                 3.105926959662063E+05,      /* I =456 */
(PID.TID 0000.0001)                 3.127867656729039E+05,      /* I =457 */
(PID.TID 0000.0001)                 3.149656255235069E+05,      /* I =458 */
(PID.TID 0000.0001)                 3.170468416979250E+05,      /* I =459 */
(PID.TID 0000.0001)                 3.189531711639232E+05,      /* I =460 */
(PID.TID 0000.0001)                 3.206150718566154E+05,      /* I =461 */
(PID.TID 0000.0001)                 3.219728125807783E+05,      /* I =462 */
(PID.TID 0000.0001)                 3.229781834933111E+05,      /* I =463 */
(PID.TID 0000.0001)                 3.235958148230841E+05,      /* I =464 */
(PID.TID 0000.0001)                 3.238041816275029E+05,      /* I =465 */
(PID.TID 0000.0001)                 3.235958148230841E+05,      /* I =466 */
(PID.TID 0000.0001)                 3.229781834933111E+05,      /* I =467 */
(PID.TID 0000.0001)                 3.219728125807783E+05,      /* I =468 */
(PID.TID 0000.0001)                 3.206150718566154E+05,      /* I =469 */
(PID.TID 0000.0001)                 3.189531711639232E+05,      /* I =470 */
(PID.TID 0000.0001)                 3.170468416979250E+05,      /* I =471 */
(PID.TID 0000.0001)                 3.149656255235069E+05,      /* I =472 */
(PID.TID 0000.0001)                 3.127867656729039E+05,      /* I =473 */
(PID.TID 0000.0001)                 3.105926959662063E+05,      /* I =474 */
(PID.TID 0000.0001)                 3.084681464323149E+05,      /* I =475 */
(PID.TID 0000.0001)                 3.064969104248934E+05,      /* I =476 */
(PID.TID 0000.0001)                 3.047583645125296E+05,      /* I =477 */
(PID.TID 0000.0001)                 3.033238888442880E+05,      /* I =478 */
(PID.TID 0000.0001)                 3.022533948177109E+05,      /* I =479 */
(PID.TID 0000.0001)                 3.015922136961168E+05,      /* I =480 */
(PID.TID 0000.0001)                 2.647274964828301E+05,      /* I =481 */
(PID.TID 0000.0001)                 2.653456356424517E+05,      /* I =482 */
(PID.TID 0000.0001)                 2.671753991965412E+05,      /* I =483 */
(PID.TID 0000.0001)                 2.700508040612306E+05,      /* I =484 */
(PID.TID 0000.0001)                 2.737508146608168E+05,      /* I =485 */
(PID.TID 0000.0001)                 2.780276168082243E+05,      /* I =486 */
(PID.TID 0000.0001)                 2.826379708415628E+05,      /* I =487 */
(PID.TID 0000.0001)                 2.873620334559252E+05,      /* I =488 */
(PID.TID 0000.0001)                 2.920110325953347E+05,      /* I =489 */
(PID.TID 0000.0001)                 2.964277678938787E+05,      /* I =490 */
(PID.TID 0000.0001)                 3.004836638020456E+05,      /* I =491 */
(PID.TID 0000.0001)                 3.040748366383395E+05,      /* I =492 */
(PID.TID 0000.0001)                 3.071184425324030E+05,      /* I =493 */
(PID.TID 0000.0001)                 3.095497845682837E+05,      /* I =494 */
(PID.TID 0000.0001)                 3.113202383405265E+05,      /* I =495 */
(PID.TID 0000.0001)                 3.123958777280941E+05,      /* I =496 */
(PID.TID 0000.0001)                 3.127567211383312E+05,      /* I =497 */
(PID.TID 0000.0001)                 3.123958777280941E+05,      /* I =498 */
(PID.TID 0000.0001)                 3.113202383405265E+05,      /* I =499 */
(PID.TID 0000.0001)                 3.095497845682837E+05,      /* I =500 */
(PID.TID 0000.0001)                 3.071184425324030E+05,      /* I =501 */
(PID.TID 0000.0001)                 3.040748366383395E+05,      /* I =502 */
(PID.TID 0000.0001)                 3.004836638020456E+05,      /* I =503 */
(PID.TID 0000.0001)                 2.964277678938787E+05,      /* I =504 */
(PID.TID 0000.0001)                 2.920110325953347E+05,      /* I =505 */
(PID.TID 0000.0001)                 2.873620334559252E+05,      /* I =506 */
(PID.TID 0000.0001)                 2.826379708415628E+05,      /* I =507 */
(PID.TID 0000.0001)                 2.780276168082243E+05,      /* I =508 */
(PID.TID 0000.0001)                 2.737508146608168E+05,      /* I =509 */
(PID.TID 0000.0001)                 2.700508040612306E+05,      /* I =510 */
(PID.TID 0000.0001)                 2.671753991965412E+05,      /* I =511 */
(PID.TID 0000.0001)                 2.653456356424517E+05,      /* I =512 */
(PID.TID 0000.0001)                 8.015229982413632E+04,      /* I =513 */
(PID.TID 0000.0001)                 1.333130744933864E+05,      /* I =514 */
(PID.TID 0000.0001)                 1.691744868129062E+05,      /* I =515 */
(PID.TID 0000.0001)                 1.937548202849060E+05,      /* I =516 */
(PID.TID 0000.0001)                 2.130490056267208E+05,      /* I =517 */
(PID.TID 0000.0001)                 2.290479919481738E+05,      /* I =518 */
(PID.TID 0000.0001)                 2.426774358027003E+05,      /* I =519 */
(PID.TID 0000.0001)                 2.544372984215561E+05,      /* I =520 */
(PID.TID 0000.0001)                 2.646201463834826E+05,      /* I =521 */
(PID.TID 0000.0001)                 2.734046499619031E+05,      /* I =522 */
(PID.TID 0000.0001)                 2.809019351693761E+05,      /* I =523 */
(PID.TID 0000.0001)                 2.871811105274442E+05,      /* I =524 */
(PID.TID 0000.0001)                 2.922844849381675E+05,      /* I =525 */
(PID.TID 0000.0001)                 2.962371870847826E+05,      /* I =526 */
(PID.TID 0000.0001)                 2.990534755671296E+05,      /* I =527 */
(PID.TID 0000.0001)                 3.007409169495504E+05,      /* I =528 */
(PID.TID 0000.0001)                 3.013031486919771E+05,      /* I =529 */
(PID.TID 0000.0001)                 3.007409169495504E+05,      /* I =530 */
(PID.TID 0000.0001)                 2.990534755671296E+05,      /* I =531 */
(PID.TID 0000.0001)                 2.962371870847826E+05,      /* I =532 */
(PID.TID 0000.0001)                 2.922844849381675E+05,      /* I =533 */
(PID.TID 0000.0001)                 2.871811105274442E+05,      /* I =534 */
(PID.TID 0000.0001)                 2.809019351693761E+05,      /* I =535 */
(PID.TID 0000.0001)                 2.734046499619031E+05,      /* I =536 */
(PID.TID 0000.0001)                 2.646201463834826E+05,      /* I =537 */
(PID.TID 0000.0001)                 2.544372984215561E+05,      /* I =538 */
(PID.TID 0000.0001)                 2.426774358027003E+05,      /* I =539 */
(PID.TID 0000.0001)                 2.290479919481738E+05,      /* I =540 */
(PID.TID 0000.0001)                 2.130490056267208E+05,      /* I =541 */
(PID.TID 0000.0001)                 1.937548202849060E+05,      /* I =542 */
(PID.TID 0000.0001)                 1.691744868129062E+05,      /* I =543 */
(PID.TID 0000.0001)                 1.333130744933864E+05,      /* I =544 */
(PID.TID 0000.0001)                 2.647274964828301E+05,      /* I =545 */
(PID.TID 0000.0001)                 2.653456356424517E+05,      /* I =546 */
(PID.TID 0000.0001)                 2.671753991965412E+05,      /* I =547 */
(PID.TID 0000.0001)                 2.700508040612306E+05,      /* I =548 */
(PID.TID 0000.0001)                 2.737508146608168E+05,      /* I =549 */
(PID.TID 0000.0001)                 2.780276168082243E+05,      /* I =550 */
(PID.TID 0000.0001)                 2.826379708415628E+05,      /* I =551 */
(PID.TID 0000.0001)                 2.873620334559252E+05,      /* I =552 */
(PID.TID 0000.0001)                 2.920110325953347E+05,      /* I =553 */
(PID.TID 0000.0001)                 2.964277678938787E+05,      /* I =554 */
(PID.TID 0000.0001)                 3.004836638020456E+05,      /* I =555 */
(PID.TID 0000.0001)                 3.040748366383395E+05,      /* I =556 */
(PID.TID 0000.0001)                 3.071184425324030E+05,      /* I =557 */
(PID.TID 0000.0001)                 3.095497845682837E+05,      /* I =558 */
(PID.TID 0000.0001)                 3.113202383405265E+05,      /* I =559 */
(PID.TID 0000.0001)                 3.123958777280941E+05,      /* I =560 */
(PID.TID 0000.0001)                 3.127567211383312E+05,      /* I =561 */
(PID.TID 0000.0001)                 3.123958777280941E+05,      /* I =562 */
(PID.TID 0000.0001)                 3.113202383405265E+05,      /* I =563 */
(PID.TID 0000.0001)                 3.095497845682837E+05,      /* I =564 */
(PID.TID 0000.0001)                 3.071184425324030E+05,      /* I =565 */
(PID.TID 0000.0001)                 3.040748366383395E+05,      /* I =566 */
(PID.TID 0000.0001)                 3.004836638020456E+05,      /* I =567 */
(PID.TID 0000.0001)                 2.964277678938787E+05,      /* I =568 */
(PID.TID 0000.0001)                 2.920110325953347E+05,      /* I =569 */
(PID.TID 0000.0001)                 2.873620334559252E+05,      /* I =570 */
(PID.TID 0000.0001)                 2.826379708415628E+05,      /* I =571 */
(PID.TID 0000.0001)                 2.780276168082243E+05,      /* I =572 */
(PID.TID 0000.0001)                 2.737508146608168E+05,      /* I =573 */
(PID.TID 0000.0001)                 2.700508040612306E+05,      /* I =574 */
(PID.TID 0000.0001)                 2.671753991965412E+05,      /* I =575 */
(PID.TID 0000.0001)                 2.653456356424517E+05,      /* I =576 */
(PID.TID 0000.0001)                 3.013686170436881E+05,      /* I =577 */
(PID.TID 0000.0001)                 3.015922136961168E+05,      /* I =578 */
(PID.TID 0000.0001)                 3.022533948177109E+05,      /* I =579 */
(PID.TID 0000.0001)                 3.033238888442880E+05,      /* I =580 */
(PID.TID 0000.0001)                 3.047583645125296E+05,      /* I =581 */
(PID.TID 0000.0001)                 3.064969104248934E+05,      /* I =582 */
(PID.TID 0000.0001)                 3.084681464323149E+05,      /* I =583 */
(PID.TID 0000.0001)                 3.105926959662063E+05,      /* I =584 */
(PID.TID 0000.0001)                 3.127867656729039E+05,      /* I =585 */
(PID.TID 0000.0001)                 3.149656255235069E+05,      /* I =586 */
(PID.TID 0000.0001)                 3.170468416979250E+05,      /* I =587 */
(PID.TID 0000.0001)                 3.189531711639232E+05,      /* I =588 */
(PID.TID 0000.0001)                 3.206150718566154E+05,      /* I =589 */
(PID.TID 0000.0001)                 3.219728125807783E+05,      /* I =590 */
(PID.TID 0000.0001)                 3.229781834933111E+05,      /* I =591 */
(PID.TID 0000.0001)                 3.235958148230841E+05,      /* I =592 */
(PID.TID 0000.0001)                 3.238041816275029E+05,      /* I =593 */
(PID.TID 0000.0001)                 3.235958148230841E+05,      /* I =594 */
(PID.TID 0000.0001)                 3.229781834933111E+05,      /* I =595 */
(PID.TID 0000.0001)                 3.219728125807783E+05,      /* I =596 */
(PID.TID 0000.0001)                 3.206150718566154E+05,      /* I =597 */
(PID.TID 0000.0001)                 3.189531711639232E+05,      /* I =598 */
(PID.TID 0000.0001)                 3.170468416979250E+05,      /* I =599 */
(PID.TID 0000.0001)                 3.149656255235069E+05,      /* I =600 */
(PID.TID 0000.0001)                 3.127867656729039E+05,      /* I =601 */
(PID.TID 0000.0001)                 3.105926959662063E+05,      /* I =602 */
(PID.TID 0000.0001)                 3.084681464323149E+05,      /* I =603 */
(PID.TID 0000.0001)                 3.064969104248934E+05,      /* I =604 */
(PID.TID 0000.0001)                 3.047583645125296E+05,      /* I =605 */
(PID.TID 0000.0001)                 3.033238888442880E+05,      /* I =606 */
(PID.TID 0000.0001)                 3.022533948177109E+05,      /* I =607 */
(PID.TID 0000.0001)                 3.015922136961168E+05,      /* I =608 */
(PID.TID 0000.0001)                 2.647274964828301E+05,      /* I =609 */
(PID.TID 0000.0001)                 2.653456356424517E+05,      /* I =610 */
(PID.TID 0000.0001)                 2.671753991965412E+05,      /* I =611 */
(PID.TID 0000.0001)                 2.700508040612306E+05,      /* I =612 */
(PID.TID 0000.0001)                 2.737508146608168E+05,      /* I =613 */
(PID.TID 0000.0001)                 2.780276168082243E+05,      /* I =614 */
(PID.TID 0000.0001)                 2.826379708415628E+05,      /* I =615 */
(PID.TID 0000.0001)                 2.873620334559252E+05,      /* I =616 */
(PID.TID 0000.0001)                 2.920110325953347E+05,      /* I =617 */
(PID.TID 0000.0001)                 2.964277678938787E+05,      /* I =618 */
(PID.TID 0000.0001)                 3.004836638020456E+05,      /* I =619 */
(PID.TID 0000.0001)                 3.040748366383395E+05,      /* I =620 */
(PID.TID 0000.0001)                 3.071184425324030E+05,      /* I =621 */
(PID.TID 0000.0001)                 3.095497845682837E+05,      /* I =622 */
(PID.TID 0000.0001)                 3.113202383405265E+05,      /* I =623 */
(PID.TID 0000.0001)                 3.123958777280941E+05,      /* I =624 */
(PID.TID 0000.0001)                 3.127567211383312E+05,      /* I =625 */
(PID.TID 0000.0001)                 3.123958777280941E+05,      /* I =626 */
(PID.TID 0000.0001)                 3.113202383405265E+05,      /* I =627 */
(PID.TID 0000.0001)                 3.095497845682837E+05,      /* I =628 */
(PID.TID 0000.0001)                 3.071184425324030E+05,      /* I =629 */
(PID.TID 0000.0001)                 3.040748366383395E+05,      /* I =630 */
(PID.TID 0000.0001)                 3.004836638020456E+05,      /* I =631 */
(PID.TID 0000.0001)                 2.964277678938787E+05,      /* I =632 */
(PID.TID 0000.0001)                 2.920110325953347E+05,      /* I =633 */
(PID.TID 0000.0001)                 2.873620334559252E+05,      /* I =634 */
(PID.TID 0000.0001)                 2.826379708415628E+05,      /* I =635 */
(PID.TID 0000.0001)                 2.780276168082243E+05,      /* I =636 */
(PID.TID 0000.0001)                 2.737508146608168E+05,      /* I =637 */
(PID.TID 0000.0001)                 2.700508040612306E+05,      /* I =638 */
(PID.TID 0000.0001)                 2.671753991965412E+05,      /* I =639 */
(PID.TID 0000.0001)                 2.653456356424517E+05,      /* I =640 */
(PID.TID 0000.0001)                 8.015229982413632E+04,      /* I =641 */
(PID.TID 0000.0001)                 1.333130744933864E+05,      /* I =642 */
(PID.TID 0000.0001)                 1.691744868129062E+05,      /* I =643 */
(PID.TID 0000.0001)                 1.937548202849060E+05,      /* I =644 */
(PID.TID 0000.0001)                 2.130490056267208E+05,      /* I =645 */
(PID.TID 0000.0001)                 2.290479919481738E+05,      /* I =646 */
(PID.TID 0000.0001)                 2.426774358027003E+05,      /* I =647 */
(PID.TID 0000.0001)                 2.544372984215561E+05,      /* I =648 */
(PID.TID 0000.0001)                 2.646201463834826E+05,      /* I =649 */
(PID.TID 0000.0001)                 2.734046499619031E+05,      /* I =650 */
(PID.TID 0000.0001)                 2.809019351693761E+05,      /* I =651 */
(PID.TID 0000.0001)                 2.871811105274442E+05,      /* I =652 */
(PID.TID 0000.0001)                 2.922844849381675E+05,      /* I =653 */
(PID.TID 0000.0001)                 2.962371870847826E+05,      /* I =654 */
(PID.TID 0000.0001)                 2.990534755671296E+05,      /* I =655 */
(PID.TID 0000.0001)                 3.007409169495504E+05,      /* I =656 */
(PID.TID 0000.0001)                 3.013031486919771E+05,      /* I =657 */
(PID.TID 0000.0001)                 3.007409169495504E+05,      /* I =658 */
(PID.TID 0000.0001)                 2.990534755671296E+05,      /* I =659 */
(PID.TID 0000.0001)                 2.962371870847826E+05,      /* I =660 */
(PID.TID 0000.0001)                 2.922844849381675E+05,      /* I =661 */
(PID.TID 0000.0001)                 2.871811105274442E+05,      /* I =662 */
(PID.TID 0000.0001)                 2.809019351693761E+05,      /* I =663 */
(PID.TID 0000.0001)                 2.734046499619031E+05,      /* I =664 */
(PID.TID 0000.0001)                 2.646201463834826E+05,      /* I =665 */
(PID.TID 0000.0001)                 2.544372984215561E+05,      /* I =666 */
(PID.TID 0000.0001)                 2.426774358027003E+05,      /* I =667 */
(PID.TID 0000.0001)                 2.290479919481738E+05,      /* I =668 */
(PID.TID 0000.0001)                 2.130490056267208E+05,      /* I =669 */
(PID.TID 0000.0001)                 1.937548202849060E+05,      /* I =670 */
(PID.TID 0000.0001)                 1.691744868129062E+05,      /* I =671 */
(PID.TID 0000.0001)                 1.333130744933864E+05,      /* I =672 */
(PID.TID 0000.0001)                 2.647274964828301E+05,      /* I =673 */
(PID.TID 0000.0001)                 2.653456356424517E+05,      /* I =674 */
(PID.TID 0000.0001)                 2.671753991965412E+05,      /* I =675 */
(PID.TID 0000.0001)                 2.700508040612306E+05,      /* I =676 */
(PID.TID 0000.0001)                 2.737508146608168E+05,      /* I =677 */
(PID.TID 0000.0001)                 2.780276168082243E+05,      /* I =678 */
(PID.TID 0000.0001)                 2.826379708415628E+05,      /* I =679 */
(PID.TID 0000.0001)                 2.873620334559252E+05,      /* I =680 */
(PID.TID 0000.0001)                 2.920110325953347E+05,      /* I =681 */
(PID.TID 0000.0001)                 2.964277678938787E+05,      /* I =682 */
(PID.TID 0000.0001)                 3.004836638020456E+05,      /* I =683 */
(PID.TID 0000.0001)                 3.040748366383395E+05,      /* I =684 */
(PID.TID 0000.0001)                 3.071184425324030E+05,      /* I =685 */
(PID.TID 0000.0001)                 3.095497845682837E+05,      /* I =686 */
(PID.TID 0000.0001)                 3.113202383405265E+05,      /* I =687 */
(PID.TID 0000.0001)                 3.123958777280941E+05,      /* I =688 */
(PID.TID 0000.0001)                 3.127567211383312E+05,      /* I =689 */
(PID.TID 0000.0001)                 3.123958777280941E+05,      /* I =690 */
(PID.TID 0000.0001)                 3.113202383405265E+05,      /* I =691 */
(PID.TID 0000.0001)                 3.095497845682837E+05,      /* I =692 */
(PID.TID 0000.0001)                 3.071184425324030E+05,      /* I =693 */
(PID.TID 0000.0001)                 3.040748366383395E+05,      /* I =694 */
(PID.TID 0000.0001)                 3.004836638020456E+05,      /* I =695 */
(PID.TID 0000.0001)                 2.964277678938787E+05,      /* I =696 */
(PID.TID 0000.0001)                 2.920110325953347E+05,      /* I =697 */
(PID.TID 0000.0001)                 2.873620334559252E+05,      /* I =698 */
(PID.TID 0000.0001)                 2.826379708415628E+05,      /* I =699 */
(PID.TID 0000.0001)                 2.780276168082243E+05,      /* I =700 */
(PID.TID 0000.0001)                 2.737508146608168E+05,      /* I =701 */
(PID.TID 0000.0001)                 2.700508040612306E+05,      /* I =702 */
(PID.TID 0000.0001)                 2.671753991965412E+05,      /* I =703 */
(PID.TID 0000.0001)                 2.653456356424517E+05,      /* I =704 */
(PID.TID 0000.0001)                 3.013686170436881E+05,      /* I =705 */
(PID.TID 0000.0001)                 3.015922136961168E+05,      /* I =706 */
(PID.TID 0000.0001)                 3.022533948177109E+05,      /* I =707 */
(PID.TID 0000.0001)                 3.033238888442880E+05,      /* I =708 */
(PID.TID 0000.0001)                 3.047583645125296E+05,      /* I =709 */
(PID.TID 0000.0001)                 3.064969104248934E+05,      /* I =710 */
(PID.TID 0000.0001)                 3.084681464323149E+05,      /* I =711 */
(PID.TID 0000.0001)                 3.105926959662063E+05,      /* I =712 */
(PID.TID 0000.0001)                 3.127867656729039E+05,      /* I =713 */
(PID.TID 0000.0001)                 3.149656255235069E+05,      /* I =714 */
(PID.TID 0000.0001)                 3.170468416979250E+05,      /* I =715 */
(PID.TID 0000.0001)                 3.189531711639232E+05,      /* I =716 */
(PID.TID 0000.0001)                 3.206150718566154E+05,      /* I =717 */
(PID.TID 0000.0001)                 3.219728125807783E+05,      /* I =718 */
(PID.TID 0000.0001)                 3.229781834933111E+05,      /* I =719 */
(PID.TID 0000.0001)                 3.235958148230841E+05,      /* I =720 */
(PID.TID 0000.0001)                 3.238041816275029E+05,      /* I =721 */
(PID.TID 0000.0001)                 3.235958148230841E+05,      /* I =722 */
(PID.TID 0000.0001)                 3.229781834933111E+05,      /* I =723 */
(PID.TID 0000.0001)                 3.219728125807783E+05,      /* I =724 */
(PID.TID 0000.0001)                 3.206150718566154E+05,      /* I =725 */
(PID.TID 0000.0001)                 3.189531711639232E+05,      /* I =726 */
(PID.TID 0000.0001)                 3.170468416979250E+05,      /* I =727 */
(PID.TID 0000.0001)                 3.149656255235069E+05,      /* I =728 */
(PID.TID 0000.0001)                 3.127867656729039E+05,      /* I =729 */
(PID.TID 0000.0001)                 3.105926959662063E+05,      /* I =730 */
(PID.TID 0000.0001)                 3.084681464323149E+05,      /* I =731 */
(PID.TID 0000.0001)                 3.064969104248934E+05,      /* I =732 */
(PID.TID 0000.0001)                 3.047583645125296E+05,      /* I =733 */
(PID.TID 0000.0001)                 3.033238888442880E+05,      /* I =734 */
(PID.TID 0000.0001)                 3.022533948177109E+05,      /* I =735 */
(PID.TID 0000.0001)                 3.015922136961168E+05,      /* I =736 */
(PID.TID 0000.0001)                 2.647274964828301E+05,      /* I =737 */
(PID.TID 0000.0001)                 2.653456356424517E+05,      /* I =738 */
(PID.TID 0000.0001)                 2.671753991965412E+05,      /* I =739 */
(PID.TID 0000.0001)                 2.700508040612306E+05,      /* I =740 */
(PID.TID 0000.0001)                 2.737508146608168E+05,      /* I =741 */
(PID.TID 0000.0001)                 2.780276168082243E+05,      /* I =742 */
(PID.TID 0000.0001)                 2.826379708415628E+05,      /* I =743 */
(PID.TID 0000.0001)                 2.873620334559252E+05,      /* I =744 */
(PID.TID 0000.0001)                 2.920110325953347E+05,      /* I =745 */
(PID.TID 0000.0001)                 2.964277678938787E+05,      /* I =746 */
(PID.TID 0000.0001)                 3.004836638020456E+05,      /* I =747 */
(PID.TID 0000.0001)                 3.040748366383395E+05,      /* I =748 */
(PID.TID 0000.0001)                 3.071184425324030E+05,      /* I =749 */
(PID.TID 0000.0001)                 3.095497845682837E+05,      /* I =750 */
(PID.TID 0000.0001)                 3.113202383405265E+05,      /* I =751 */
(PID.TID 0000.0001)                 3.123958777280941E+05,      /* I =752 */
(PID.TID 0000.0001)                 3.127567211383312E+05,      /* I =753 */
(PID.TID 0000.0001)                 3.123958777280941E+05,      /* I =754 */
(PID.TID 0000.0001)                 3.113202383405265E+05,      /* I =755 */
(PID.TID 0000.0001)                 3.095497845682837E+05,      /* I =756 */
(PID.TID 0000.0001)                 3.071184425324030E+05,      /* I =757 */
(PID.TID 0000.0001)                 3.040748366383395E+05,      /* I =758 */
(PID.TID 0000.0001)                 3.004836638020456E+05,      /* I =759 */
(PID.TID 0000.0001)                 2.964277678938787E+05,      /* I =760 */
(PID.TID 0000.0001)                 2.920110325953347E+05,      /* I =761 */
(PID.TID 0000.0001)                 2.873620334559252E+05,      /* I =762 */
(PID.TID 0000.0001)                 2.826379708415628E+05,      /* I =763 */
(PID.TID 0000.0001)                 2.780276168082243E+05,      /* I =764 */
(PID.TID 0000.0001)                 2.737508146608168E+05,      /* I =765 */
(PID.TID 0000.0001)                 2.700508040612306E+05,      /* I =766 */
(PID.TID 0000.0001)                 2.671753991965412E+05,      /* I =767 */
(PID.TID 0000.0001)                 2.653456356424517E+05       /* I =768 */
(PID.TID 0000.0001)     ;
(PID.TID 0000.0001) dxV =  /* dxV(1,:,1,:) ( units: m ) */
(PID.TID 0000.0001)                 8.015229982413632E+04,      /* J =  1 */
(PID.TID 0000.0001)                 1.362652340208229E+05,      /* J =  2 */
(PID.TID 0000.0001)                 1.701080315742101E+05,      /* J =  3 */
(PID.TID 0000.0001)                 1.942331448101592E+05,      /* J =  4 */
(PID.TID 0000.0001)                 2.133486626971531E+05,      /* J =  5 */
(PID.TID 0000.0001)                 2.292584591272880E+05,      /* J =  6 */
(PID.TID 0000.0001)                 2.428369969078989E+05,      /* J =  7 */
(PID.TID 0000.0001)                 2.545652950875683E+05       /* J =  8 */
(PID.TID 0000.0001)     ;
(PID.TID 0000.0001) dyU =  /* dyU(:,1,:,1) ( units: m ) */
(PID.TID 0000.0001)                 8.015229982413632E+04,      /* I =  1 */
(PID.TID 0000.0001)                 1.362652340208229E+05,      /* I =  2 */
(PID.TID 0000.0001)                 1.701080315742101E+05,      /* I =  3 */
(PID.TID 0000.0001)                 1.942331448101592E+05,      /* I =  4 */
(PID.TID 0000.0001)                 2.133486626971531E+05,      /* I =  5 */
(PID.TID 0000.0001)                 2.292584591272880E+05,      /* I =  6 */
(PID.TID 0000.0001)                 2.428369969078989E+05,      /* I =  7 */
(PID.TID 0000.0001)                 2.545652950875683E+05,      /* I =  8 */
(PID.TID 0000.0001)                 2.647274964828301E+05,      /* I =  9 */
(PID.TID 0000.0001)                 2.734980225206389E+05,      /* I = 10 */
(PID.TID 0000.0001)                 2.809856491525217E+05,      /* I = 11 */
(PID.TID 0000.0001)                 2.872580915202295E+05,      /* I = 12 */
(PID.TID 0000.0001)                 2.923567890694162E+05,      /* I = 13 */
(PID.TID 0000.0001)                 2.963063101754721E+05,      /* I = 14 */
(PID.TID 0000.0001)                 2.991205495886625E+05,      /* I = 15 */
(PID.TID 0000.0001)                 3.008068453676764E+05,      /* I = 16 */
(PID.TID 0000.0001)                 3.013686170436881E+05,      /* I = 17 */
(PID.TID 0000.0001)                 3.008068453676764E+05,      /* I = 18 */
(PID.TID 0000.0001)                 2.991205495886625E+05,      /* I = 19 */
(PID.TID 0000.0001)                 2.963063101754721E+05,      /* I = 20 */
(PID.TID 0000.0001)                 2.923567890694162E+05,      /* I = 21 */
(PID.TID 0000.0001)                 2.872580915202295E+05,      /* I = 22 */
(PID.TID 0000.0001)                 2.809856491525217E+05,      /* I = 23 */
(PID.TID 0000.0001)                 2.734980225206389E+05,      /* I = 24 */
(PID.TID 0000.0001)                 2.647274964828301E+05,      /* I = 25 */
(PID.TID 0000.0001)                 2.545652950875683E+05,      /* I = 26 */
(PID.TID 0000.0001)                 2.428369969078989E+05,      /* I = 27 */
(PID.TID 0000.0001)                 2.292584591272880E+05,      /* I = 28 */
(PID.TID 0000.0001)                 2.133486626971531E+05,      /* I = 29 */
(PID.TID 0000.0001)                 1.942331448101592E+05,      /* I = 30 */
(PID.TID 0000.0001)                 1.701080315742101E+05,      /* I = 31 */
(PID.TID 0000.0001)                 1.362652340208229E+05,      /* I = 32 */
(PID.TID 0000.0001)                 2.646201463834826E+05,      /* I = 33 */
(PID.TID 0000.0001)                 2.652526003845025E+05,      /* I = 34 */
(PID.TID 0000.0001)                 2.670927303518708E+05,      /* I = 35 */
(PID.TID 0000.0001)                 2.699827671480681E+05,      /* I = 36 */
(PID.TID 0000.0001)                 2.736990267615226E+05,      /* I = 37 */
(PID.TID 0000.0001)                 2.779916120128523E+05,      /* I = 38 */
(PID.TID 0000.0001)                 2.826160808445005E+05,      /* I = 39 */
(PID.TID 0000.0001)                 2.873521397259874E+05,      /* I = 40 */
(PID.TID 0000.0001)                 2.920110325953347E+05,      /* I = 41 */
(PID.TID 0000.0001)                 2.964357882521720E+05,      /* I = 42 */
(PID.TID 0000.0001)                 3.004981128361199E+05,      /* I = 43 */
(PID.TID 0000.0001)                 3.040943772920999E+05,      /* I = 44 */
(PID.TID 0000.0001)                 3.071419371354089E+05,      /* I = 45 */
(PID.TID 0000.0001)                 3.095762378441247E+05,      /* I = 46 */
(PID.TID 0000.0001)                 3.113487493857945E+05,      /* I = 47 */
(PID.TID 0000.0001)                 3.124256032686725E+05,      /* I = 48 */
(PID.TID 0000.0001)                 3.127867656729039E+05,      /* I = 49 */
(PID.TID 0000.0001)                 3.124256032686725E+05,      /* I = 50 */
(PID.TID 0000.0001)                 3.113487493857945E+05,      /* I = 51 */
(PID.TID 0000.0001)                 3.095762378441247E+05,      /* I = 52 */
(PID.TID 0000.0001)                 3.071419371354089E+05,      /* I = 53 */
(PID.TID 0000.0001)                 3.040943772920999E+05,      /* I = 54 */
(PID.TID 0000.0001)                 3.004981128361199E+05,      /* I = 55 */
(PID.TID 0000.0001)                 2.964357882521720E+05,      /* I = 56 */
(PID.TID 0000.0001)                 2.920110325953347E+05,      /* I = 57 */
(PID.TID 0000.0001)                 2.873521397259874E+05,      /* I = 58 */
(PID.TID 0000.0001)                 2.826160808445005E+05,      /* I = 59 */
(PID.TID 0000.0001)                 2.779916120128523E+05,      /* I = 60 */
(PID.TID 0000.0001)                 2.736990267615226E+05,      /* I = 61 */
(PID.TID 0000.0001)                 2.699827671480681E+05,      /* I = 62 */
(PID.TID 0000.0001)                 2.670927303518708E+05,      /* I = 63 */
(PID.TID 0000.0001)                 2.652526003845025E+05,      /* I = 64 */
(PID.TID 0000.0001)                 3.013031486919771E+05,      /* I = 65 */
(PID.TID 0000.0001)                 3.015274890091515E+05,      /* I = 66 */
(PID.TID 0000.0001)                 3.021908563699420E+05,      /* I = 67 */
(PID.TID 0000.0001)                 3.032648502024415E+05,      /* I = 68 */
(PID.TID 0000.0001)                 3.047039405458409E+05,      /* I = 69 */
(PID.TID 0000.0001)                 3.064479682824742E+05,      /* I = 70 */
(PID.TID 0000.0001)                 3.084252792046263E+05,      /* I = 71 */
(PID.TID 0000.0001)                 3.105562173056038E+05,      /* I = 72 */
(PID.TID 0000.0001)                 3.127567211383312E+05,      /* I = 73 */
(PID.TID 0000.0001)                 3.149418154158797E+05,      /* I = 74 */
(PID.TID 0000.0001)                 3.170288504389129E+05,      /* I = 75 */
(PID.TID 0000.0001)                 3.189403993331409E+05,      /* I = 76 */
(PID.TID 0000.0001)                 3.206067683235888E+05,      /* I = 77 */
(PID.TID 0000.0001)                 3.219681053727232E+05,      /* I = 78 */
(PID.TID 0000.0001)                 3.229761089393431E+05,      /* I = 79 */
(PID.TID 0000.0001)                 3.235953450756532E+05,      /* I = 80 */
(PID.TID 0000.0001)                 3.238041816275029E+05,      /* I = 81 */
(PID.TID 0000.0001)                 3.235953450756532E+05,      /* I = 82 */
(PID.TID 0000.0001)                 3.229761089393431E+05,      /* I = 83 */
(PID.TID 0000.0001)                 3.219681053727232E+05,      /* I = 84 */
(PID.TID 0000.0001)                 3.206067683235888E+05,      /* I = 85 */
(PID.TID 0000.0001)                 3.189403993331409E+05,      /* I = 86 */
(PID.TID 0000.0001)                 3.170288504389129E+05,      /* I = 87 */
(PID.TID 0000.0001)                 3.149418154158797E+05,      /* I = 88 */
(PID.TID 0000.0001)                 3.127567211383312E+05,      /* I = 89 */
(PID.TID 0000.0001)                 3.105562173056038E+05,      /* I = 90 */
(PID.TID 0000.0001)                 3.084252792046263E+05,      /* I = 91 */
(PID.TID 0000.0001)                 3.064479682824742E+05,      /* I = 92 */
(PID.TID 0000.0001)                 3.047039405458409E+05,      /* I = 93 */
(PID.TID 0000.0001)                 3.032648502024415E+05,      /* I = 94 */
(PID.TID 0000.0001)                 3.021908563699420E+05,      /* I = 95 */
(PID.TID 0000.0001)                 3.015274890091515E+05,      /* I = 96 */
(PID.TID 0000.0001)                 2.646201463834826E+05,      /* I = 97 */
(PID.TID 0000.0001)                 2.652526003845025E+05,      /* I = 98 */
(PID.TID 0000.0001)                 2.670927303518708E+05,      /* I = 99 */
(PID.TID 0000.0001)                 2.699827671480681E+05,      /* I =100 */
(PID.TID 0000.0001)                 2.736990267615226E+05,      /* I =101 */
(PID.TID 0000.0001)                 2.779916120128523E+05,      /* I =102 */
(PID.TID 0000.0001)                 2.826160808445005E+05,      /* I =103 */
(PID.TID 0000.0001)                 2.873521397259874E+05,      /* I =104 */
(PID.TID 0000.0001)                 2.920110325953347E+05,      /* I =105 */
(PID.TID 0000.0001)                 2.964357882521720E+05,      /* I =106 */
(PID.TID 0000.0001)                 3.004981128361199E+05,      /* I =107 */
(PID.TID 0000.0001)                 3.040943772920999E+05,      /* I =108 */
(PID.TID 0000.0001)                 3.071419371354089E+05,      /* I =109 */
(PID.TID 0000.0001)                 3.095762378441247E+05,      /* I =110 */
(PID.TID 0000.0001)                 3.113487493857945E+05,      /* I =111 */
(PID.TID 0000.0001)                 3.124256032686725E+05,      /* I =112 */
(PID.TID 0000.0001)                 3.127867656729039E+05,      /* I =113 */
(PID.TID 0000.0001)                 3.124256032686725E+05,      /* I =114 */
(PID.TID 0000.0001)                 3.113487493857945E+05,      /* I =115 */
(PID.TID 0000.0001)                 3.095762378441247E+05,      /* I =116 */
(PID.TID 0000.0001)                 3.071419371354089E+05,      /* I =117 */
(PID.TID 0000.0001)                 3.040943772920999E+05,      /* I =118 */
(PID.TID 0000.0001)                 3.004981128361199E+05,      /* I =119 */
(PID.TID 0000.0001)                 2.964357882521720E+05,      /* I =120 */
(PID.TID 0000.0001)                 2.920110325953347E+05,      /* I =121 */
(PID.TID 0000.0001)                 2.873521397259874E+05,      /* I =122 */
(PID.TID 0000.0001)                 2.826160808445005E+05,      /* I =123 */
(PID.TID 0000.0001)                 2.779916120128523E+05,      /* I =124 */
(PID.TID 0000.0001)                 2.736990267615226E+05,      /* I =125 */
(PID.TID 0000.0001)                 2.699827671480681E+05,      /* I =126 */
(PID.TID 0000.0001)                 2.670927303518708E+05,      /* I =127 */
(PID.TID 0000.0001)                 2.652526003845025E+05,      /* I =128 */
(PID.TID 0000.0001)                 8.015229982413632E+04,      /* I =129 */
(PID.TID 0000.0001)                 1.362652340208229E+05,      /* I =130 */
(PID.TID 0000.0001)                 1.701080315742101E+05,      /* I =131 */
(PID.TID 0000.0001)                 1.942331448101592E+05,      /* I =132 */
(PID.TID 0000.0001)                 2.133486626971531E+05,      /* I =133 */
(PID.TID 0000.0001)                 2.292584591272880E+05,      /* I =134 */
(PID.TID 0000.0001)                 2.428369969078989E+05,      /* I =135 */
(PID.TID 0000.0001)                 2.545652950875683E+05,      /* I =136 */
(PID.TID 0000.0001)                 2.647274964828301E+05,      /* I =137 */
(PID.TID 0000.0001)                 2.734980225206389E+05,      /* I =138 */
(PID.TID 0000.0001)                 2.809856491525217E+05,      /* I =139 */
(PID.TID 0000.0001)                 2.872580915202295E+05,      /* I =140 */
(PID.TID 0000.0001)                 2.923567890694162E+05,      /* I =141 */
(PID.TID 0000.0001)                 2.963063101754721E+05,      /* I =142 */
(PID.TID 0000.0001)                 2.991205495886625E+05,      /* I =143 */
(PID.TID 0000.0001)                 3.008068453676764E+05,      /* I =144 */
(PID.TID 0000.0001)                 3.013686170436881E+05,      /* I =145 */
(PID.TID 0000.0001)                 3.008068453676764E+05,      /* I =146 */
(PID.TID 0000.0001)                 2.991205495886625E+05,      /* I =147 */
(PID.TID 0000.0001)                 2.963063101754721E+05,      /* I =148 */
(PID.TID 0000.0001)                 2.923567890694162E+05,      /* I =149 */
(PID.TID 0000.0001)                 2.872580915202295E+05,      /* I =150 */
(PID.TID 0000.0001)                 2.809856491525217E+05,      /* I =151 */
(PID.TID 0000.0001)                 2.734980225206389E+05,      /* I =152 */
(PID.TID 0000.0001)                 2.647274964828301E+05,      /* I =153 */
(PID.TID 0000.0001)                 2.545652950875683E+05,      /* I =154 */
(PID.TID 0000.0001)                 2.428369969078989E+05,      /* I =155 */
(PID.TID 0000.0001)                 2.292584591272880E+05,      /* I =156 */
(PID.TID 0000.0001)                 2.133486626971531E+05,      /* I =157 */
(PID.TID 0000.0001)                 1.942331448101592E+05,      /* I =158 */
(PID.TID 0000.0001)                 1.701080315742101E+05,      /* I =159 */
(PID.TID 0000.0001)                 1.362652340208229E+05,      /* I =160 */
(PID.TID 0000.0001)                 2.646201463834826E+05,      /* I =161 */
(PID.TID 0000.0001)                 2.652526003845025E+05,      /* I =162 */
(PID.TID 0000.0001)                 2.670927303518708E+05,      /* I =163 */
(PID.TID 0000.0001)                 2.699827671480681E+05,      /* I =164 */
(PID.TID 0000.0001)                 2.736990267615226E+05,      /* I =165 */
(PID.TID 0000.0001)                 2.779916120128523E+05,      /* I =166 */
(PID.TID 0000.0001)                 2.826160808445005E+05,      /* I =167 */
(PID.TID 0000.0001)                 2.873521397259874E+05,      /* I =168 */
(PID.TID 0000.0001)                 2.920110325953347E+05,      /* I =169 */
(PID.TID 0000.0001)                 2.964357882521720E+05,      /* I =170 */
(PID.TID 0000.0001)                 3.004981128361199E+05,      /* I =171 */
(PID.TID 0000.0001)                 3.040943772920999E+05,      /* I =172 */
(PID.TID 0000.0001)                 3.071419371354089E+05,      /* I =173 */
(PID.TID 0000.0001)                 3.095762378441247E+05,      /* I =174 */
(PID.TID 0000.0001)                 3.113487493857945E+05,      /* I =175 */
(PID.TID 0000.0001)                 3.124256032686725E+05,      /* I =176 */
(PID.TID 0000.0001)                 3.127867656729039E+05,      /* I =177 */
(PID.TID 0000.0001)                 3.124256032686725E+05,      /* I =178 */
(PID.TID 0000.0001)                 3.113487493857945E+05,      /* I =179 */
(PID.TID 0000.0001)                 3.095762378441247E+05,      /* I =180 */
(PID.TID 0000.0001)                 3.071419371354089E+05,      /* I =181 */
(PID.TID 0000.0001)                 3.040943772920999E+05,      /* I =182 */
(PID.TID 0000.0001)                 3.004981128361199E+05,      /* I =183 */
(PID.TID 0000.0001)                 2.964357882521720E+05,      /* I =184 */
(PID.TID 0000.0001)                 2.920110325953347E+05,      /* I =185 */
(PID.TID 0000.0001)                 2.873521397259874E+05,      /* I =186 */
(PID.TID 0000.0001)                 2.826160808445005E+05,      /* I =187 */
(PID.TID 0000.0001)                 2.779916120128523E+05,      /* I =188 */
(PID.TID 0000.0001)                 2.736990267615226E+05,      /* I =189 */
(PID.TID 0000.0001)                 2.699827671480681E+05,      /* I =190 */
(PID.TID 0000.0001)                 2.670927303518708E+05,      /* I =191 */
(PID.TID 0000.0001)                 2.652526003845025E+05,      /* I =192 */
(PID.TID 0000.0001)                 3.013031486919771E+05,      /* I =193 */
(PID.TID 0000.0001)                 3.015274890091515E+05,      /* I =194 */
(PID.TID 0000.0001)                 3.021908563699420E+05,      /* I =195 */
(PID.TID 0000.0001)                 3.032648502024415E+05,      /* I =196 */
(PID.TID 0000.0001)                 3.047039405458409E+05,      /* I =197 */
(PID.TID 0000.0001)                 3.064479682824742E+05,      /* I =198 */
(PID.TID 0000.0001)                 3.084252792046263E+05,      /* I =199 */
(PID.TID 0000.0001)                 3.105562173056038E+05,      /* I =200 */
(PID.TID 0000.0001)                 3.127567211383312E+05,      /* I =201 */
(PID.TID 0000.0001)                 3.149418154158797E+05,      /* I =202 */
(PID.TID 0000.0001)                 3.170288504389129E+05,      /* I =203 */
(PID.TID 0000.0001)                 3.189403993331409E+05,      /* I =204 */
(PID.TID 0000.0001)                 3.206067683235888E+05,      /* I =205 */
(PID.TID 0000.0001)                 3.219681053727232E+05,      /* I =206 */
(PID.TID 0000.0001)                 3.229761089393431E+05,      /* I =207 */
(PID.TID 0000.0001)                 3.235953450756532E+05,      /* I =208 */
(PID.TID 0000.0001)                 3.238041816275029E+05,      /* I =209 */
(PID.TID 0000.0001)                 3.235953450756532E+05,      /* I =210 */
(PID.TID 0000.0001)                 3.229761089393431E+05,      /* I =211 */
(PID.TID 0000.0001)                 3.219681053727232E+05,      /* I =212 */
(PID.TID 0000.0001)                 3.206067683235888E+05,      /* I =213 */
(PID.TID 0000.0001)                 3.189403993331409E+05,      /* I =214 */
(PID.TID 0000.0001)                 3.170288504389129E+05,      /* I =215 */
(PID.TID 0000.0001)                 3.149418154158797E+05,      /* I =216 */
(PID.TID 0000.0001)                 3.127567211383312E+05,      /* I =217 */
(PID.TID 0000.0001)                 3.105562173056038E+05,      /* I =218 */
(PID.TID 0000.0001)                 3.084252792046263E+05,      /* I =219 */
(PID.TID 0000.0001)                 3.064479682824742E+05,      /* I =220 */
(PID.TID 0000.0001)                 3.047039405458409E+05,      /* I =221 */
(PID.TID 0000.0001)                 3.032648502024415E+05,      /* I =222 */
(PID.TID 0000.0001)                 3.021908563699420E+05,      /* I =223 */
(PID.TID 0000.0001)                 3.015274890091515E+05,      /* I =224 */
(PID.TID 0000.0001)                 2.646201463834826E+05,      /* I =225 */
(PID.TID 0000.0001)                 2.652526003845025E+05,      /* I =226 */
(PID.TID 0000.0001)                 2.670927303518708E+05,      /* I =227 */
(PID.TID 0000.0001)                 2.699827671480681E+05,      /* I =228 */
(PID.TID 0000.0001)                 2.736990267615226E+05,      /* I =229 */
(PID.TID 0000.0001)                 2.779916120128523E+05,      /* I =230 */
(PID.TID 0000.0001)                 2.826160808445005E+05,      /* I =231 */
(PID.TID 0000.0001)                 2.873521397259874E+05,      /* I =232 */
(PID.TID 0000.0001)                 2.920110325953347E+05,      /* I =233 */
(PID.TID 0000.0001)                 2.964357882521720E+05,      /* I =234 */
(PID.TID 0000.0001)                 3.004981128361199E+05,      /* I =235 */
(PID.TID 0000.0001)                 3.040943772920999E+05,      /* I =236 */
(PID.TID 0000.0001)                 3.071419371354089E+05,      /* I =237 */
(PID.TID 0000.0001)                 3.095762378441247E+05,      /* I =238 */
(PID.TID 0000.0001)                 3.113487493857945E+05,      /* I =239 */
(PID.TID 0000.0001)                 3.124256032686725E+05,      /* I =240 */
(PID.TID 0000.0001)                 3.127867656729039E+05,      /* I =241 */
(PID.TID 0000.0001)                 3.124256032686725E+05,      /* I =242 */
(PID.TID 0000.0001)                 3.113487493857945E+05,      /* I =243 */
(PID.TID 0000.0001)                 3.095762378441247E+05,      /* I =244 */
(PID.TID 0000.0001)                 3.071419371354089E+05,      /* I =245 */
(PID.TID 0000.0001)                 3.040943772920999E+05,      /* I =246 */
(PID.TID 0000.0001)                 3.004981128361199E+05,      /* I =247 */
(PID.TID 0000.0001)                 2.964357882521720E+05,      /* I =248 */
(PID.TID 0000.0001)                 2.920110325953347E+05,      /* I =249 */
(PID.TID 0000.0001)                 2.873521397259874E+05,      /* I =250 */
(PID.TID 0000.0001)                 2.826160808445005E+05,      /* I =251 */
(PID.TID 0000.0001)                 2.779916120128523E+05,      /* I =252 */
(PID.TID 0000.0001)                 2.736990267615226E+05,      /* I =253 */
(PID.TID 0000.0001)                 2.699827671480681E+05,      /* I =254 */
(PID.TID 0000.0001)                 2.670927303518708E+05,      /* I =255 */
(PID.TID 0000.0001)                 2.652526003845025E+05,      /* I =256 */
(PID.TID 0000.0001)                 8.015229982413632E+04,      /* I =257 */
(PID.TID 0000.0001)                 1.362652340208229E+05,      /* I =258 */
(PID.TID 0000.0001)                 1.701080315742101E+05,      /* I =259 */
(PID.TID 0000.0001)                 1.942331448101592E+05,      /* I =260 */
(PID.TID 0000.0001)                 2.133486626971531E+05,      /* I =261 */
(PID.TID 0000.0001)                 2.292584591272880E+05,      /* I =262 */
(PID.TID 0000.0001)                 2.428369969078989E+05,      /* I =263 */
(PID.TID 0000.0001)                 2.545652950875683E+05,      /* I =264 */
(PID.TID 0000.0001)                 2.647274964828301E+05,      /* I =265 */
(PID.TID 0000.0001)                 2.734980225206389E+05,      /* I =266 */
(PID.TID 0000.0001)                 2.809856491525217E+05,      /* I =267 */
(PID.TID 0000.0001)                 2.872580915202295E+05,      /* I =268 */
(PID.TID 0000.0001)                 2.923567890694162E+05,      /* I =269 */
(PID.TID 0000.0001)                 2.963063101754721E+05,      /* I =270 */
(PID.TID 0000.0001)                 2.991205495886625E+05,      /* I =271 */
(PID.TID 0000.0001)                 3.008068453676764E+05,      /* I =272 */
(PID.TID 0000.0001)                 3.013686170436881E+05,      /* I =273 */
(PID.TID 0000.0001)                 3.008068453676764E+05,      /* I =274 */
(PID.TID 0000.0001)                 2.991205495886625E+05,      /* I =275 */
(PID.TID 0000.0001)                 2.963063101754721E+05,      /* I =276 */
(PID.TID 0000.0001)                 2.923567890694162E+05,      /* I =277 */
(PID.TID 0000.0001)                 2.872580915202295E+05,      /* I =278 */
(PID.TID 0000.0001)                 2.809856491525217E+05,      /* I =279 */
(PID.TID 0000.0001)                 2.734980225206389E+05,      /* I =280 */
(PID.TID 0000.0001)                 2.647274964828301E+05,      /* I =281 */
(PID.TID 0000.0001)                 2.545652950875683E+05,      /* I =282 */
(PID.TID 0000.0001)                 2.428369969078989E+05,      /* I =283 */
(PID.TID 0000.0001)                 2.292584591272880E+05,      /* I =284 */
(PID.TID 0000.0001)                 2.133486626971531E+05,      /* I =285 */
(PID.TID 0000.0001)                 1.942331448101592E+05,      /* I =286 */
(PID.TID 0000.0001)                 1.701080315742101E+05,      /* I =287 */
(PID.TID 0000.0001)                 1.362652340208229E+05,      /* I =288 */
(PID.TID 0000.0001)                 2.646201463834826E+05,      /* I =289 */
(PID.TID 0000.0001)                 2.652526003845025E+05,      /* I =290 */
(PID.TID 0000.0001)                 2.670927303518708E+05,      /* I =291 */
(PID.TID 0000.0001)                 2.699827671480681E+05,      /* I =292 */
(PID.TID 0000.0001)                 2.736990267615226E+05,      /* I =293 */
(PID.TID 0000.0001)                 2.779916120128523E+05,      /* I =294 */
(PID.TID 0000.0001)                 2.826160808445005E+05,      /* I =295 */
(PID.TID 0000.0001)                 2.873521397259874E+05,      /* I =296 */
(PID.TID 0000.0001)                 2.920110325953347E+05,      /* I =297 */
(PID.TID 0000.0001)                 2.964357882521720E+05,      /* I =298 */
(PID.TID 0000.0001)                 3.004981128361199E+05,      /* I =299 */
(PID.TID 0000.0001)                 3.040943772920999E+05,      /* I =300 */
(PID.TID 0000.0001)                 3.071419371354089E+05,      /* I =301 */
(PID.TID 0000.0001)                 3.095762378441247E+05,      /* I =302 */
(PID.TID 0000.0001)                 3.113487493857945E+05,      /* I =303 */
(PID.TID 0000.0001)                 3.124256032686725E+05,      /* I =304 */
(PID.TID 0000.0001)                 3.127867656729039E+05,      /* I =305 */
(PID.TID 0000.0001)                 3.124256032686725E+05,      /* I =306 */
(PID.TID 0000.0001)                 3.113487493857945E+05,      /* I =307 */
(PID.TID 0000.0001)                 3.095762378441247E+05,      /* I =308 */
(PID.TID 0000.0001)                 3.071419371354089E+05,      /* I =309 */
(PID.TID 0000.0001)                 3.040943772920999E+05,      /* I =310 */
(PID.TID 0000.0001)                 3.004981128361199E+05,      /* I =311 */
(PID.TID 0000.0001)                 2.964357882521720E+05,      /* I =312 */
(PID.TID 0000.0001)                 2.920110325953347E+05,      /* I =313 */
(PID.TID 0000.0001)                 2.873521397259874E+05,      /* I =314 */
(PID.TID 0000.0001)                 2.826160808445005E+05,      /* I =315 */
(PID.TID 0000.0001)                 2.779916120128523E+05,      /* I =316 */
(PID.TID 0000.0001)                 2.736990267615226E+05,      /* I =317 */
(PID.TID 0000.0001)                 2.699827671480681E+05,      /* I =318 */
(PID.TID 0000.0001)                 2.670927303518708E+05,      /* I =319 */
(PID.TID 0000.0001)                 2.652526003845025E+05,      /* I =320 */
(PID.TID 0000.0001)                 3.013031486919771E+05,      /* I =321 */
(PID.TID 0000.0001)                 3.015274890091515E+05,      /* I =322 */
(PID.TID 0000.0001)                 3.021908563699420E+05,      /* I =323 */
(PID.TID 0000.0001)                 3.032648502024415E+05,      /* I =324 */
(PID.TID 0000.0001)                 3.047039405458409E+05,      /* I =325 */
(PID.TID 0000.0001)                 3.064479682824742E+05,      /* I =326 */
(PID.TID 0000.0001)                 3.084252792046263E+05,      /* I =327 */
(PID.TID 0000.0001)                 3.105562173056038E+05,      /* I =328 */
(PID.TID 0000.0001)                 3.127567211383312E+05,      /* I =329 */
(PID.TID 0000.0001)                 3.149418154158797E+05,      /* I =330 */
(PID.TID 0000.0001)                 3.170288504389129E+05,      /* I =331 */
(PID.TID 0000.0001)                 3.189403993331409E+05,      /* I =332 */
(PID.TID 0000.0001)                 3.206067683235888E+05,      /* I =333 */
(PID.TID 0000.0001)                 3.219681053727232E+05,      /* I =334 */
(PID.TID 0000.0001)                 3.229761089393431E+05,      /* I =335 */
(PID.TID 0000.0001)                 3.235953450756532E+05,      /* I =336 */
(PID.TID 0000.0001)                 3.238041816275029E+05,      /* I =337 */
(PID.TID 0000.0001)                 3.235953450756532E+05,      /* I =338 */
(PID.TID 0000.0001)                 3.229761089393431E+05,      /* I =339 */
(PID.TID 0000.0001)                 3.219681053727232E+05,      /* I =340 */
(PID.TID 0000.0001)                 3.206067683235888E+05,      /* I =341 */
(PID.TID 0000.0001)                 3.189403993331409E+05,      /* I =342 */
(PID.TID 0000.0001)                 3.170288504389129E+05,      /* I =343 */
(PID.TID 0000.0001)                 3.149418154158797E+05,      /* I =344 */
(PID.TID 0000.0001)                 3.127567211383312E+05,      /* I =345 */
(PID.TID 0000.0001)                 3.105562173056038E+05,      /* I =346 */
(PID.TID 0000.0001)                 3.084252792046263E+05,      /* I =347 */
(PID.TID 0000.0001)                 3.064479682824742E+05,      /* I =348 */
(PID.TID 0000.0001)                 3.047039405458409E+05,      /* I =349 */
(PID.TID 0000.0001)                 3.032648502024415E+05,      /* I =350 */
(PID.TID 0000.0001)                 3.021908563699420E+05,      /* I =351 */
(PID.TID 0000.0001)                 3.015274890091515E+05,      /* I =352 */
(PID.TID 0000.0001)                 2.646201463834826E+05,      /* I =353 */
(PID.TID 0000.0001)                 2.652526003845025E+05,      /* I =354 */
(PID.TID 0000.0001)                 2.670927303518708E+05,      /* I =355 */
(PID.TID 0000.0001)                 2.699827671480681E+05,      /* I =356 */
(PID.TID 0000.0001)                 2.736990267615226E+05,      /* I =357 */
(PID.TID 0000.0001)                 2.779916120128523E+05,      /* I =358 */
(PID.TID 0000.0001)                 2.826160808445005E+05,      /* I =359 */
(PID.TID 0000.0001)                 2.873521397259874E+05,      /* I =360 */
(PID.TID 0000.0001)                 2.920110325953347E+05,      /* I =361 */
(PID.TID 0000.0001)                 2.964357882521720E+05,      /* I =362 */
(PID.TID 0000.0001)                 3.004981128361199E+05,      /* I =363 */
(PID.TID 0000.0001)                 3.040943772920999E+05,      /* I =364 */
(PID.TID 0000.0001)                 3.071419371354089E+05,      /* I =365 */
(PID.TID 0000.0001)                 3.095762378441247E+05,      /* I =366 */
(PID.TID 0000.0001)                 3.113487493857945E+05,      /* I =367 */
(PID.TID 0000.0001)                 3.124256032686725E+05,      /* I =368 */
(PID.TID 0000.0001)                 3.127867656729039E+05,      /* I =369 */
(PID.TID 0000.0001)                 3.124256032686725E+05,      /* I =370 */
(PID.TID 0000.0001)                 3.113487493857945E+05,      /* I =371 */
(PID.TID 0000.0001)                 3.095762378441247E+05,      /* I =372 */
(PID.TID 0000.0001)                 3.071419371354089E+05,      /* I =373 */
(PID.TID 0000.0001)                 3.040943772920999E+05,      /* I =374 */
(PID.TID 0000.0001)                 3.004981128361199E+05,      /* I =375 */
(PID.TID 0000.0001)                 2.964357882521720E+05,      /* I =376 */
(PID.TID 0000.0001)                 2.920110325953347E+05,      /* I =377 */
(PID.TID 0000.0001)                 2.873521397259874E+05,      /* I =378 */
(PID.TID 0000.0001)                 2.826160808445005E+05,      /* I =379 */
(PID.TID 0000.0001)                 2.779916120128523E+05,      /* I =380 */
(PID.TID 0000.0001)                 2.736990267615226E+05,      /* I =381 */
(PID.TID 0000.0001)                 2.699827671480681E+05,      /* I =382 */
(PID.TID 0000.0001)                 2.670927303518708E+05,      /* I =383 */
(PID.TID 0000.0001)                 2.652526003845025E+05,      /* I =384 */
(PID.TID 0000.0001)                 8.015229982413632E+04,      /* I =385 */
(PID.TID 0000.0001)                 1.362652340208229E+05,      /* I =386 */
(PID.TID 0000.0001)                 1.701080315742101E+05,      /* I =387 */
(PID.TID 0000.0001)                 1.942331448101592E+05,      /* I =388 */
(PID.TID 0000.0001)                 2.133486626971531E+05,      /* I =389 */
(PID.TID 0000.0001)                 2.292584591272880E+05,      /* I =390 */
(PID.TID 0000.0001)                 2.428369969078989E+05,      /* I =391 */
(PID.TID 0000.0001)                 2.545652950875683E+05,      /* I =392 */
(PID.TID 0000.0001)                 2.647274964828301E+05,      /* I =393 */
(PID.TID 0000.0001)                 2.734980225206389E+05,      /* I =394 */
(PID.TID 0000.0001)                 2.809856491525217E+05,      /* I =395 */
(PID.TID 0000.0001)                 2.872580915202295E+05,      /* I =396 */
(PID.TID 0000.0001)                 2.923567890694162E+05,      /* I =397 */
(PID.TID 0000.0001)                 2.963063101754721E+05,      /* I =398 */
(PID.TID 0000.0001)                 2.991205495886625E+05,      /* I =399 */
(PID.TID 0000.0001)                 3.008068453676764E+05,      /* I =400 */
(PID.TID 0000.0001)                 3.013686170436881E+05,      /* I =401 */
(PID.TID 0000.0001)                 3.008068453676764E+05,      /* I =402 */
(PID.TID 0000.0001)                 2.991205495886625E+05,      /* I =403 */
(PID.TID 0000.0001)                 2.963063101754721E+05,      /* I =404 */
(PID.TID 0000.0001)                 2.923567890694162E+05,      /* I =405 */
(PID.TID 0000.0001)                 2.872580915202295E+05,      /* I =406 */
(PID.TID 0000.0001)                 2.809856491525217E+05,      /* I =407 */
(PID.TID 0000.0001)                 2.734980225206389E+05,      /* I =408 */
(PID.TID 0000.0001)                 2.647274964828301E+05,      /* I =409 */
(PID.TID 0000.0001)                 2.545652950875683E+05,      /* I =410 */
(PID.TID 0000.0001)                 2.428369969078989E+05,      /* I =411 */
(PID.TID 0000.0001)                 2.292584591272880E+05,      /* I =412 */
(PID.TID 0000.0001)                 2.133486626971531E+05,      /* I =413 */
(PID.TID 0000.0001)                 1.942331448101592E+05,      /* I =414 */
(PID.TID 0000.0001)                 1.701080315742101E+05,      /* I =415 */
(PID.TID 0000.0001)                 1.362652340208229E+05,      /* I =416 */
(PID.TID 0000.0001)                 2.646201463834826E+05,      /* I =417 */
(PID.TID 0000.0001)                 2.652526003845025E+05,      /* I =418 */
(PID.TID 0000.0001)                 2.670927303518708E+05,      /* I =419 */
(PID.TID 0000.0001)                 2.699827671480681E+05,      /* I =420 */
(PID.TID 0000.0001)                 2.736990267615226E+05,      /* I =421 */
(PID.TID 0000.0001)                 2.779916120128523E+05,      /* I =422 */
(PID.TID 0000.0001)                 2.826160808445005E+05,      /* I =423 */
(PID.TID 0000.0001)                 2.873521397259874E+05,      /* I =424 */
(PID.TID 0000.0001)                 2.920110325953347E+05,      /* I =425 */
(PID.TID 0000.0001)                 2.964357882521720E+05,      /* I =426 */
(PID.TID 0000.0001)                 3.004981128361199E+05,      /* I =427 */
(PID.TID 0000.0001)                 3.040943772920999E+05,      /* I =428 */
(PID.TID 0000.0001)                 3.071419371354089E+05,      /* I =429 */
(PID.TID 0000.0001)                 3.095762378441247E+05,      /* I =430 */
(PID.TID 0000.0001)                 3.113487493857945E+05,      /* I =431 */
(PID.TID 0000.0001)                 3.124256032686725E+05,      /* I =432 */
(PID.TID 0000.0001)                 3.127867656729039E+05,      /* I =433 */
(PID.TID 0000.0001)                 3.124256032686725E+05,      /* I =434 */
(PID.TID 0000.0001)                 3.113487493857945E+05,      /* I =435 */
(PID.TID 0000.0001)                 3.095762378441247E+05,      /* I =436 */
(PID.TID 0000.0001)                 3.071419371354089E+05,      /* I =437 */
(PID.TID 0000.0001)                 3.040943772920999E+05,      /* I =438 */
(PID.TID 0000.0001)                 3.004981128361199E+05,      /* I =439 */
(PID.TID 0000.0001)                 2.964357882521720E+05,      /* I =440 */
(PID.TID 0000.0001)                 2.920110325953347E+05,      /* I =441 */
(PID.TID 0000.0001)                 2.873521397259874E+05,      /* I =442 */
(PID.TID 0000.0001)                 2.826160808445005E+05,      /* I =443 */
(PID.TID 0000.0001)                 2.779916120128523E+05,      /* I =444 */
(PID.TID 0000.0001)                 2.736990267615226E+05,      /* I =445 */
(PID.TID 0000.0001)                 2.699827671480681E+05,      /* I =446 */
(PID.TID 0000.0001)                 2.670927303518708E+05,      /* I =447 */
(PID.TID 0000.0001)                 2.652526003845025E+05,      /* I =448 */
(PID.TID 0000.0001)                 3.013031486919771E+05,      /* I =449 */
(PID.TID 0000.0001)                 3.015274890091515E+05,      /* I =450 */
(PID.TID 0000.0001)                 3.021908563699420E+05,      /* I =451 */
(PID.TID 0000.0001)                 3.032648502024415E+05,      /* I =452 */
(PID.TID 0000.0001)                 3.047039405458409E+05,      /* I =453 */
(PID.TID 0000.0001)                 3.064479682824742E+05,      /* I =454 */
(PID.TID 0000.0001)                 3.084252792046263E+05,      /* I =455 */
(PID.TID 0000.0001)                 3.105562173056038E+05,      /* I =456 */
(PID.TID 0000.0001)                 3.127567211383312E+05,      /* I =457 */
(PID.TID 0000.0001)                 3.149418154158797E+05,      /* I =458 */
(PID.TID 0000.0001)                 3.170288504389129E+05,      /* I =459 */
(PID.TID 0000.0001)                 3.189403993331409E+05,      /* I =460 */
(PID.TID 0000.0001)                 3.206067683235888E+05,      /* I =461 */
(PID.TID 0000.0001)                 3.219681053727232E+05,      /* I =462 */
(PID.TID 0000.0001)                 3.229761089393431E+05,      /* I =463 */
(PID.TID 0000.0001)                 3.235953450756532E+05,      /* I =464 */
(PID.TID 0000.0001)                 3.238041816275029E+05,      /* I =465 */
(PID.TID 0000.0001)                 3.235953450756532E+05,      /* I =466 */
(PID.TID 0000.0001)                 3.229761089393431E+05,      /* I =467 */
(PID.TID 0000.0001)                 3.219681053727232E+05,      /* I =468 */
(PID.TID 0000.0001)                 3.206067683235888E+05,      /* I =469 */
(PID.TID 0000.0001)                 3.189403993331409E+05,      /* I =470 */
(PID.TID 0000.0001)                 3.170288504389129E+05,      /* I =471 */
(PID.TID 0000.0001)                 3.149418154158797E+05,      /* I =472 */
(PID.TID 0000.0001)                 3.127567211383312E+05,      /* I =473 */
(PID.TID 0000.0001)                 3.105562173056038E+05,      /* I =474 */
(PID.TID 0000.0001)                 3.084252792046263E+05,      /* I =475 */
(PID.TID 0000.0001)                 3.064479682824742E+05,      /* I =476 */
(PID.TID 0000.0001)                 3.047039405458409E+05,      /* I =477 */
(PID.TID 0000.0001)                 3.032648502024415E+05,      /* I =478 */
(PID.TID 0000.0001)                 3.021908563699420E+05,      /* I =479 */
(PID.TID 0000.0001)                 3.015274890091515E+05,      /* I =480 */
(PID.TID 0000.0001)                 2.646201463834826E+05,      /* I =481 */
(PID.TID 0000.0001)                 2.652526003845025E+05,      /* I =482 */
(PID.TID 0000.0001)                 2.670927303518708E+05,      /* I =483 */
(PID.TID 0000.0001)                 2.699827671480681E+05,      /* I =484 */
(PID.TID 0000.0001)                 2.736990267615226E+05,      /* I =485 */
(PID.TID 0000.0001)                 2.779916120128523E+05,      /* I =486 */
(PID.TID 0000.0001)                 2.826160808445005E+05,      /* I =487 */
(PID.TID 0000.0001)                 2.873521397259874E+05,      /* I =488 */
(PID.TID 0000.0001)                 2.920110325953347E+05,      /* I =489 */
(PID.TID 0000.0001)                 2.964357882521720E+05,      /* I =490 */
(PID.TID 0000.0001)                 3.004981128361199E+05,      /* I =491 */
(PID.TID 0000.0001)                 3.040943772920999E+05,      /* I =492 */
(PID.TID 0000.0001)                 3.071419371354089E+05,      /* I =493 */
(PID.TID 0000.0001)                 3.095762378441247E+05,      /* I =494 */
(PID.TID 0000.0001)                 3.113487493857945E+05,      /* I =495 */
(PID.TID 0000.0001)                 3.124256032686725E+05,      /* I =496 */
(PID.TID 0000.0001)                 3.127867656729039E+05,      /* I =497 */
(PID.TID 0000.0001)                 3.124256032686725E+05,      /* I =498 */
(PID.TID 0000.0001)                 3.113487493857945E+05,      /* I =499 */
(PID.TID 0000.0001)                 3.095762378441247E+05,      /* I =500 */
(PID.TID 0000.0001)                 3.071419371354089E+05,      /* I =501 */
(PID.TID 0000.0001)                 3.040943772920999E+05,      /* I =502 */
(PID.TID 0000.0001)                 3.004981128361199E+05,      /* I =503 */
(PID.TID 0000.0001)                 2.964357882521720E+05,      /* I =504 */
(PID.TID 0000.0001)                 2.920110325953347E+05,      /* I =505 */
(PID.TID 0000.0001)                 2.873521397259874E+05,      /* I =506 */
(PID.TID 0000.0001)                 2.826160808445005E+05,      /* I =507 */
(PID.TID 0000.0001)                 2.779916120128523E+05,      /* I =508 */
(PID.TID 0000.0001)                 2.736990267615226E+05,      /* I =509 */
(PID.TID 0000.0001)                 2.699827671480681E+05,      /* I =510 */
(PID.TID 0000.0001)                 2.670927303518708E+05,      /* I =511 */
(PID.TID 0000.0001)                 2.652526003845025E+05,      /* I =512 */
(PID.TID 0000.0001)                 8.015229982413632E+04,      /* I =513 */
(PID.TID 0000.0001)                 1.362652340208229E+05,      /* I =514 */
(PID.TID 0000.0001)                 1.701080315742101E+05,      /* I =515 */
(PID.TID 0000.0001)                 1.942331448101592E+05,      /* I =516 */
(PID.TID 0000.0001)                 2.133486626971531E+05,      /* I =517 */
(PID.TID 0000.0001)                 2.292584591272880E+05,      /* I =518 */
(PID.TID 0000.0001)                 2.428369969078989E+05,      /* I =519 */
(PID.TID 0000.0001)                 2.545652950875683E+05,      /* I =520 */
(PID.TID 0000.0001)                 2.647274964828301E+05,      /* I =521 */
(PID.TID 0000.0001)                 2.734980225206389E+05,      /* I =522 */
(PID.TID 0000.0001)                 2.809856491525217E+05,      /* I =523 */
(PID.TID 0000.0001)                 2.872580915202295E+05,      /* I =524 */
(PID.TID 0000.0001)                 2.923567890694162E+05,      /* I =525 */
(PID.TID 0000.0001)                 2.963063101754721E+05,      /* I =526 */
(PID.TID 0000.0001)                 2.991205495886625E+05,      /* I =527 */
(PID.TID 0000.0001)                 3.008068453676764E+05,      /* I =528 */
(PID.TID 0000.0001)                 3.013686170436881E+05,      /* I =529 */
(PID.TID 0000.0001)                 3.008068453676764E+05,      /* I =530 */
(PID.TID 0000.0001)                 2.991205495886625E+05,      /* I =531 */
(PID.TID 0000.0001)                 2.963063101754721E+05,      /* I =532 */
(PID.TID 0000.0001)                 2.923567890694162E+05,      /* I =533 */
(PID.TID 0000.0001)                 2.872580915202295E+05,      /* I =534 */
(PID.TID 0000.0001)                 2.809856491525217E+05,      /* I =535 */
(PID.TID 0000.0001)                 2.734980225206389E+05,      /* I =536 */
(PID.TID 0000.0001)                 2.647274964828301E+05,      /* I =537 */
(PID.TID 0000.0001)                 2.545652950875683E+05,      /* I =538 */
(PID.TID 0000.0001)                 2.428369969078989E+05,      /* I =539 */
(PID.TID 0000.0001)                 2.292584591272880E+05,      /* I =540 */
(PID.TID 0000.0001)                 2.133486626971531E+05,      /* I =541 */
(PID.TID 0000.0001)                 1.942331448101592E+05,      /* I =542 */
(PID.TID 0000.0001)                 1.701080315742101E+05,      /* I =543 */
(PID.TID 0000.0001)                 1.362652340208229E+05,      /* I =544 */
(PID.TID 0000.0001)                 2.646201463834826E+05,      /* I =545 */
(PID.TID 0000.0001)                 2.652526003845025E+05,      /* I =546 */
(PID.TID 0000.0001)                 2.670927303518708E+05,      /* I =547 */
(PID.TID 0000.0001)                 2.699827671480681E+05,      /* I =548 */
(PID.TID 0000.0001)                 2.736990267615226E+05,      /* I =549 */
(PID.TID 0000.0001)                 2.779916120128523E+05,      /* I =550 */
(PID.TID 0000.0001)                 2.826160808445005E+05,      /* I =551 */
(PID.TID 0000.0001)                 2.873521397259874E+05,      /* I =552 */
(PID.TID 0000.0001)                 2.920110325953347E+05,      /* I =553 */
(PID.TID 0000.0001)                 2.964357882521720E+05,      /* I =554 */
(PID.TID 0000.0001)                 3.004981128361199E+05,      /* I =555 */
(PID.TID 0000.0001)                 3.040943772920999E+05,      /* I =556 */
(PID.TID 0000.0001)                 3.071419371354089E+05,      /* I =557 */
(PID.TID 0000.0001)                 3.095762378441247E+05,      /* I =558 */
(PID.TID 0000.0001)                 3.113487493857945E+05,      /* I =559 */
(PID.TID 0000.0001)                 3.124256032686725E+05,      /* I =560 */
(PID.TID 0000.0001)                 3.127867656729039E+05,      /* I =561 */
(PID.TID 0000.0001)                 3.124256032686725E+05,      /* I =562 */
(PID.TID 0000.0001)                 3.113487493857945E+05,      /* I =563 */
(PID.TID 0000.0001)                 3.095762378441247E+05,      /* I =564 */
(PID.TID 0000.0001)                 3.071419371354089E+05,      /* I =565 */
(PID.TID 0000.0001)                 3.040943772920999E+05,      /* I =566 */
(PID.TID 0000.0001)                 3.004981128361199E+05,      /* I =567 */
(PID.TID 0000.0001)                 2.964357882521720E+05,      /* I =568 */
(PID.TID 0000.0001)                 2.920110325953347E+05,      /* I =569 */
(PID.TID 0000.0001)                 2.873521397259874E+05,      /* I =570 */
(PID.TID 0000.0001)                 2.826160808445005E+05,      /* I =571 */
(PID.TID 0000.0001)                 2.779916120128523E+05,      /* I =572 */
(PID.TID 0000.0001)                 2.736990267615226E+05,      /* I =573 */
(PID.TID 0000.0001)                 2.699827671480681E+05,      /* I =574 */
(PID.TID 0000.0001)                 2.670927303518708E+05,      /* I =575 */
(PID.TID 0000.0001)                 2.652526003845025E+05,      /* I =576 */
(PID.TID 0000.0001)                 3.013031486919771E+05,      /* I =577 */
(PID.TID 0000.0001)                 3.015274890091515E+05,      /* I =578 */
(PID.TID 0000.0001)                 3.021908563699420E+05,      /* I =579 */
(PID.TID 0000.0001)                 3.032648502024415E+05,      /* I =580 */
(PID.TID 0000.0001)                 3.047039405458409E+05,      /* I =581 */
(PID.TID 0000.0001)                 3.064479682824742E+05,      /* I =582 */
(PID.TID 0000.0001)                 3.084252792046263E+05,      /* I =583 */
(PID.TID 0000.0001)                 3.105562173056038E+05,      /* I =584 */
(PID.TID 0000.0001)                 3.127567211383312E+05,      /* I =585 */
(PID.TID 0000.0001)                 3.149418154158797E+05,      /* I =586 */
(PID.TID 0000.0001)                 3.170288504389129E+05,      /* I =587 */
(PID.TID 0000.0001)                 3.189403993331409E+05,      /* I =588 */
(PID.TID 0000.0001)                 3.206067683235888E+05,      /* I =589 */
(PID.TID 0000.0001)                 3.219681053727232E+05,      /* I =590 */
(PID.TID 0000.0001)                 3.229761089393431E+05,      /* I =591 */
(PID.TID 0000.0001)                 3.235953450756532E+05,      /* I =592 */
(PID.TID 0000.0001)                 3.238041816275029E+05,      /* I =593 */
(PID.TID 0000.0001)                 3.235953450756532E+05,      /* I =594 */
(PID.TID 0000.0001)                 3.229761089393431E+05,      /* I =595 */
(PID.TID 0000.0001)                 3.219681053727232E+05,      /* I =596 */
(PID.TID 0000.0001)                 3.206067683235888E+05,      /* I =597 */
(PID.TID 0000.0001)                 3.189403993331409E+05,      /* I =598 */
(PID.TID 0000.0001)                 3.170288504389129E+05,      /* I =599 */
(PID.TID 0000.0001)                 3.149418154158797E+05,      /* I =600 */
(PID.TID 0000.0001)                 3.127567211383312E+05,      /* I =601 */
(PID.TID 0000.0001)                 3.105562173056038E+05,      /* I =602 */
(PID.TID 0000.0001)                 3.084252792046263E+05,      /* I =603 */
(PID.TID 0000.0001)                 3.064479682824742E+05,      /* I =604 */
(PID.TID 0000.0001)                 3.047039405458409E+05,      /* I =605 */
(PID.TID 0000.0001)                 3.032648502024415E+05,      /* I =606 */
(PID.TID 0000.0001)                 3.021908563699420E+05,      /* I =607 */
(PID.TID 0000.0001)                 3.015274890091515E+05,      /* I =608 */
(PID.TID 0000.0001)                 2.646201463834826E+05,      /* I =609 */
(PID.TID 0000.0001)                 2.652526003845025E+05,      /* I =610 */
(PID.TID 0000.0001)                 2.670927303518708E+05,      /* I =611 */
(PID.TID 0000.0001)                 2.699827671480681E+05,      /* I =612 */
(PID.TID 0000.0001)                 2.736990267615226E+05,      /* I =613 */
(PID.TID 0000.0001)                 2.779916120128523E+05,      /* I =614 */
(PID.TID 0000.0001)                 2.826160808445005E+05,      /* I =615 */
(PID.TID 0000.0001)                 2.873521397259874E+05,      /* I =616 */
(PID.TID 0000.0001)                 2.920110325953347E+05,      /* I =617 */
(PID.TID 0000.0001)                 2.964357882521720E+05,      /* I =618 */
(PID.TID 0000.0001)                 3.004981128361199E+05,      /* I =619 */
(PID.TID 0000.0001)                 3.040943772920999E+05,      /* I =620 */
(PID.TID 0000.0001)                 3.071419371354089E+05,      /* I =621 */
(PID.TID 0000.0001)                 3.095762378441247E+05,      /* I =622 */
(PID.TID 0000.0001)                 3.113487493857945E+05,      /* I =623 */
(PID.TID 0000.0001)                 3.124256032686725E+05,      /* I =624 */
(PID.TID 0000.0001)                 3.127867656729039E+05,      /* I =625 */
(PID.TID 0000.0001)                 3.124256032686725E+05,      /* I =626 */
(PID.TID 0000.0001)                 3.113487493857945E+05,      /* I =627 */
(PID.TID 0000.0001)                 3.095762378441247E+05,      /* I =628 */
(PID.TID 0000.0001)                 3.071419371354089E+05,      /* I =629 */
(PID.TID 0000.0001)                 3.040943772920999E+05,      /* I =630 */
(PID.TID 0000.0001)                 3.004981128361199E+05,      /* I =631 */
(PID.TID 0000.0001)                 2.964357882521720E+05,      /* I =632 */
(PID.TID 0000.0001)                 2.920110325953347E+05,      /* I =633 */
(PID.TID 0000.0001)                 2.873521397259874E+05,      /* I =634 */
(PID.TID 0000.0001)                 2.826160808445005E+05,      /* I =635 */
(PID.TID 0000.0001)                 2.779916120128523E+05,      /* I =636 */
(PID.TID 0000.0001)                 2.736990267615226E+05,      /* I =637 */
(PID.TID 0000.0001)                 2.699827671480681E+05,      /* I =638 */
(PID.TID 0000.0001)                 2.670927303518708E+05,      /* I =639 */
(PID.TID 0000.0001)                 2.652526003845025E+05,      /* I =640 */
(PID.TID 0000.0001)                 8.015229982413632E+04,      /* I =641 */
(PID.TID 0000.0001)                 1.362652340208229E+05,      /* I =642 */
(PID.TID 0000.0001)                 1.701080315742101E+05,      /* I =643 */
(PID.TID 0000.0001)                 1.942331448101592E+05,      /* I =644 */
(PID.TID 0000.0001)                 2.133486626971531E+05,      /* I =645 */
(PID.TID 0000.0001)                 2.292584591272880E+05,      /* I =646 */
(PID.TID 0000.0001)                 2.428369969078989E+05,      /* I =647 */
(PID.TID 0000.0001)                 2.545652950875683E+05,      /* I =648 */
(PID.TID 0000.0001)                 2.647274964828301E+05,      /* I =649 */
(PID.TID 0000.0001)                 2.734980225206389E+05,      /* I =650 */
(PID.TID 0000.0001)                 2.809856491525217E+05,      /* I =651 */
(PID.TID 0000.0001)                 2.872580915202295E+05,      /* I =652 */
(PID.TID 0000.0001)                 2.923567890694162E+05,      /* I =653 */
(PID.TID 0000.0001)                 2.963063101754721E+05,      /* I =654 */
(PID.TID 0000.0001)                 2.991205495886625E+05,      /* I =655 */
(PID.TID 0000.0001)                 3.008068453676764E+05,      /* I =656 */
(PID.TID 0000.0001)                 3.013686170436881E+05,      /* I =657 */
(PID.TID 0000.0001)                 3.008068453676764E+05,      /* I =658 */
(PID.TID 0000.0001)                 2.991205495886625E+05,      /* I =659 */
(PID.TID 0000.0001)                 2.963063101754721E+05,      /* I =660 */
(PID.TID 0000.0001)                 2.923567890694162E+05,      /* I =661 */
(PID.TID 0000.0001)                 2.872580915202295E+05,      /* I =662 */
(PID.TID 0000.0001)                 2.809856491525217E+05,      /* I =663 */
(PID.TID 0000.0001)                 2.734980225206389E+05,      /* I =664 */
(PID.TID 0000.0001)                 2.647274964828301E+05,      /* I =665 */
(PID.TID 0000.0001)                 2.545652950875683E+05,      /* I =666 */
(PID.TID 0000.0001)                 2.428369969078989E+05,      /* I =667 */
(PID.TID 0000.0001)                 2.292584591272880E+05,      /* I =668 */
(PID.TID 0000.0001)                 2.133486626971531E+05,      /* I =669 */
(PID.TID 0000.0001)                 1.942331448101592E+05,      /* I =670 */
(PID.TID 0000.0001)                 1.701080315742101E+05,      /* I =671 */
(PID.TID 0000.0001)                 1.362652340208229E+05,      /* I =672 */
(PID.TID 0000.0001)                 2.646201463834826E+05,      /* I =673 */
(PID.TID 0000.0001)                 2.652526003845025E+05,      /* I =674 */
(PID.TID 0000.0001)                 2.670927303518708E+05,      /* I =675 */
(PID.TID 0000.0001)                 2.699827671480681E+05,      /* I =676 */
(PID.TID 0000.0001)                 2.736990267615226E+05,      /* I =677 */
(PID.TID 0000.0001)                 2.779916120128523E+05,      /* I =678 */
(PID.TID 0000.0001)                 2.826160808445005E+05,      /* I =679 */
(PID.TID 0000.0001)                 2.873521397259874E+05,      /* I =680 */
(PID.TID 0000.0001)                 2.920110325953347E+05,      /* I =681 */
(PID.TID 0000.0001)                 2.964357882521720E+05,      /* I =682 */
(PID.TID 0000.0001)                 3.004981128361199E+05,      /* I =683 */
(PID.TID 0000.0001)                 3.040943772920999E+05,      /* I =684 */
(PID.TID 0000.0001)                 3.071419371354089E+05,      /* I =685 */
(PID.TID 0000.0001)                 3.095762378441247E+05,      /* I =686 */
(PID.TID 0000.0001)                 3.113487493857945E+05,      /* I =687 */
(PID.TID 0000.0001)                 3.124256032686725E+05,      /* I =688 */
(PID.TID 0000.0001)                 3.127867656729039E+05,      /* I =689 */
(PID.TID 0000.0001)                 3.124256032686725E+05,      /* I =690 */
(PID.TID 0000.0001)                 3.113487493857945E+05,      /* I =691 */
(PID.TID 0000.0001)                 3.095762378441247E+05,      /* I =692 */
(PID.TID 0000.0001)                 3.071419371354089E+05,      /* I =693 */
(PID.TID 0000.0001)                 3.040943772920999E+05,      /* I =694 */
(PID.TID 0000.0001)                 3.004981128361199E+05,      /* I =695 */
(PID.TID 0000.0001)                 2.964357882521720E+05,      /* I =696 */
(PID.TID 0000.0001)                 2.920110325953347E+05,      /* I =697 */
(PID.TID 0000.0001)                 2.873521397259874E+05,      /* I =698 */
(PID.TID 0000.0001)                 2.826160808445005E+05,      /* I =699 */
(PID.TID 0000.0001)                 2.779916120128523E+05,      /* I =700 */
(PID.TID 0000.0001)                 2.736990267615226E+05,      /* I =701 */
(PID.TID 0000.0001)                 2.699827671480681E+05,      /* I =702 */
(PID.TID 0000.0001)                 2.670927303518708E+05,      /* I =703 */
(PID.TID 0000.0001)                 2.652526003845025E+05,      /* I =704 */
(PID.TID 0000.0001)                 3.013031486919771E+05,      /* I =705 */
(PID.TID 0000.0001)                 3.015274890091515E+05,      /* I =706 */
(PID.TID 0000.0001)                 3.021908563699420E+05,      /* I =707 */
(PID.TID 0000.0001)                 3.032648502024415E+05,      /* I =708 */
(PID.TID 0000.0001)                 3.047039405458409E+05,      /* I =709 */
(PID.TID 0000.0001)                 3.064479682824742E+05,      /* I =710 */
(PID.TID 0000.0001)                 3.084252792046263E+05,      /* I =711 */
(PID.TID 0000.0001)                 3.105562173056038E+05,      /* I =712 */
(PID.TID 0000.0001)                 3.127567211383312E+05,      /* I =713 */
(PID.TID 0000.0001)                 3.149418154158797E+05,      /* I =714 */
(PID.TID 0000.0001)                 3.170288504389129E+05,      /* I =715 */
(PID.TID 0000.0001)                 3.189403993331409E+05,      /* I =716 */
(PID.TID 0000.0001)                 3.206067683235888E+05,      /* I =717 */
(PID.TID 0000.0001)                 3.219681053727232E+05,      /* I =718 */
(PID.TID 0000.0001)                 3.229761089393431E+05,      /* I =719 */
(PID.TID 0000.0001)                 3.235953450756532E+05,      /* I =720 */
(PID.TID 0000.0001)                 3.238041816275029E+05,      /* I =721 */
(PID.TID 0000.0001)                 3.235953450756532E+05,      /* I =722 */
(PID.TID 0000.0001)                 3.229761089393431E+05,      /* I =723 */
(PID.TID 0000.0001)                 3.219681053727232E+05,      /* I =724 */
(PID.TID 0000.0001)                 3.206067683235888E+05,      /* I =725 */
(PID.TID 0000.0001)                 3.189403993331409E+05,      /* I =726 */
(PID.TID 0000.0001)                 3.170288504389129E+05,      /* I =727 */
(PID.TID 0000.0001)                 3.149418154158797E+05,      /* I =728 */
(PID.TID 0000.0001)                 3.127567211383312E+05,      /* I =729 */
(PID.TID 0000.0001)                 3.105562173056038E+05,      /* I =730 */
(PID.TID 0000.0001)                 3.084252792046263E+05,      /* I =731 */
(PID.TID 0000.0001)                 3.064479682824742E+05,      /* I =732 */
(PID.TID 0000.0001)                 3.047039405458409E+05,      /* I =733 */
(PID.TID 0000.0001)                 3.032648502024415E+05,      /* I =734 */
(PID.TID 0000.0001)                 3.021908563699420E+05,      /* I =735 */
(PID.TID 0000.0001)                 3.015274890091515E+05,      /* I =736 */
(PID.TID 0000.0001)                 2.646201463834826E+05,      /* I =737 */
(PID.TID 0000.0001)                 2.652526003845025E+05,      /* I =738 */
(PID.TID 0000.0001)                 2.670927303518708E+05,      /* I =739 */
(PID.TID 0000.0001)                 2.699827671480681E+05,      /* I =740 */
(PID.TID 0000.0001)                 2.736990267615226E+05,      /* I =741 */
(PID.TID 0000.0001)                 2.779916120128523E+05,      /* I =742 */
(PID.TID 0000.0001)                 2.826160808445005E+05,      /* I =743 */
(PID.TID 0000.0001)                 2.873521397259874E+05,      /* I =744 */
(PID.TID 0000.0001)                 2.920110325953347E+05,      /* I =745 */
(PID.TID 0000.0001)                 2.964357882521720E+05,      /* I =746 */
(PID.TID 0000.0001)                 3.004981128361199E+05,      /* I =747 */
(PID.TID 0000.0001)                 3.040943772920999E+05,      /* I =748 */
(PID.TID 0000.0001)                 3.071419371354089E+05,      /* I =749 */
(PID.TID 0000.0001)                 3.095762378441247E+05,      /* I =750 */
(PID.TID 0000.0001)                 3.113487493857945E+05,      /* I =751 */
(PID.TID 0000.0001)                 3.124256032686725E+05,      /* I =752 */
(PID.TID 0000.0001)                 3.127867656729039E+05,      /* I =753 */
(PID.TID 0000.0001)                 3.124256032686725E+05,      /* I =754 */
(PID.TID 0000.0001)                 3.113487493857945E+05,      /* I =755 */
(PID.TID 0000.0001)                 3.095762378441247E+05,      /* I =756 */
(PID.TID 0000.0001)                 3.071419371354089E+05,      /* I =757 */
(PID.TID 0000.0001)                 3.040943772920999E+05,      /* I =758 */
(PID.TID 0000.0001)                 3.004981128361199E+05,      /* I =759 */
(PID.TID 0000.0001)                 2.964357882521720E+05,      /* I =760 */
(PID.TID 0000.0001)                 2.920110325953347E+05,      /* I =761 */
(PID.TID 0000.0001)                 2.873521397259874E+05,      /* I =762 */
(PID.TID 0000.0001)                 2.826160808445005E+05,      /* I =763 */
(PID.TID 0000.0001)                 2.779916120128523E+05,      /* I =764 */
(PID.TID 0000.0001)                 2.736990267615226E+05,      /* I =765 */
(PID.TID 0000.0001)                 2.699827671480681E+05,      /* I =766 */
(PID.TID 0000.0001)                 2.670927303518708E+05,      /* I =767 */
(PID.TID 0000.0001)                 2.652526003845025E+05       /* I =768 */
(PID.TID 0000.0001)     ;
(PID.TID 0000.0001) dyU =  /* dyU(1,:,1,:) ( units: m ) */
(PID.TID 0000.0001)                 8.015229982413632E+04,      /* J =  1 */
(PID.TID 0000.0001)                 1.333130744933864E+05,      /* J =  2 */
(PID.TID 0000.0001)                 1.691744868129062E+05,      /* J =  3 */
(PID.TID 0000.0001)                 1.937548202849060E+05,      /* J =  4 */
(PID.TID 0000.0001)                 2.130490056267208E+05,      /* J =  5 */
(PID.TID 0000.0001)                 2.290479919481738E+05,      /* J =  6 */
(PID.TID 0000.0001)                 2.426774358027003E+05,      /* J =  7 */
(PID.TID 0000.0001)                 2.544372984215561E+05       /* J =  8 */
(PID.TID 0000.0001)     ;
(PID.TID 0000.0001) rA  =  /* rA (:,1,:,1) ( units: m^2 ) */
(PID.TID 0000.0001)                 1.401900702255611E+10,      /* I =  1 */
(PID.TID 0000.0001)                 2.459906945574446E+10,      /* I =  2 */
(PID.TID 0000.0001)                 3.378518544307869E+10,      /* I =  3 */
(PID.TID 0000.0001)                 4.192037169898667E+10,      /* I =  4 */
(PID.TID 0000.0001)                 4.925938996118163E+10,      /* I =  5 */
(PID.TID 0000.0001)                 5.594154126607553E+10,      /* I =  6 */
(PID.TID 0000.0001)                 6.203683527772523E+10,      /* I =  7 */
(PID.TID 0000.0001)                 6.757541173817516E+10,      /* I =  8 */
(PID.TID 0000.0001)                 7.256353271748119E+10,      /* I =  9 */
(PID.TID 0000.0001)                 7.699293007098555E+10,      /* I = 10 */
(PID.TID 0000.0001)                 8.084683449728902E+10,      /* I = 11 */
(PID.TID 0000.0001)                 8.410423102796223E+10,      /* I = 12 */
(PID.TID 0000.0001)                 8.674306976737517E+10,      /* I = 13 */
(PID.TID 0000.0001)                 8.874277443041928E+10,      /* I = 14 */
(PID.TID 0000.0001)                 9.008620045350865E+10,      /* I = 15 */
(PID.TID 0000.0001)                 9.076111290418457E+10,      /* I = 16 */
(PID.TID 0000.0001)                 9.076111290422060E+10,      /* I = 17 */
(PID.TID 0000.0001)                 9.008620045354469E+10,      /* I = 18 */
(PID.TID 0000.0001)                 8.874277443041928E+10,      /* I = 19 */
(PID.TID 0000.0001)                 8.674306976741121E+10,      /* I = 20 */
(PID.TID 0000.0001)                 8.410423102799828E+10,      /* I = 21 */
(PID.TID 0000.0001)                 8.084683449728902E+10,      /* I = 22 */
(PID.TID 0000.0001)                 7.699293007098555E+10,      /* I = 23 */
(PID.TID 0000.0001)                 7.256353271748119E+10,      /* I = 24 */
(PID.TID 0000.0001)                 6.757541173817516E+10,      /* I = 25 */
(PID.TID 0000.0001)                 6.203683527772523E+10,      /* I = 26 */
(PID.TID 0000.0001)                 5.594154126611156E+10,      /* I = 27 */
(PID.TID 0000.0001)                 4.925938996118163E+10,      /* I = 28 */
(PID.TID 0000.0001)                 4.192037169898667E+10,      /* I = 29 */
(PID.TID 0000.0001)                 3.378518544304265E+10,      /* I = 30 */
(PID.TID 0000.0001)                 2.459906945574446E+10,      /* I = 31 */
(PID.TID 0000.0001)                 1.401900702259215E+10,      /* I = 32 */
(PID.TID 0000.0001)                 7.256353271748119E+10,      /* I = 33 */
(PID.TID 0000.0001)                 7.316560555603816E+10,      /* I = 34 */
(PID.TID 0000.0001)                 7.432809861291336E+10,      /* I = 35 */
(PID.TID 0000.0001)                 7.597507578906308E+10,      /* I = 36 */
(PID.TID 0000.0001)                 7.800802871993619E+10,      /* I = 37 */
(PID.TID 0000.0001)                 8.031792520226384E+10,      /* I = 38 */
(PID.TID 0000.0001)                 8.279477205479343E+10,      /* I = 39 */
(PID.TID 0000.0001)                 8.533379325707961E+10,      /* I = 40 */
(PID.TID 0000.0001)                 8.783871201160951E+10,      /* I = 41 */
(PID.TID 0000.0001)                 9.022313873522023E+10,      /* I = 42 */
(PID.TID 0000.0001)                 9.241098780606058E+10,      /* I = 43 */
(PID.TID 0000.0001)                 9.433654646922043E+10,      /* I = 44 */
(PID.TID 0000.0001)                 9.594452469251483E+10,      /* I = 45 */
(PID.TID 0000.0001)                 9.719020454870135E+10,      /* I = 46 */
(PID.TID 0000.0001)                 9.803968493821149E+10,      /* I = 47 */
(PID.TID 0000.0001)                 9.847017339810080E+10,      /* I = 48 */
(PID.TID 0000.0001)                 9.847017339806476E+10,      /* I = 49 */
(PID.TID 0000.0001)                 9.803968493821149E+10,      /* I = 50 */
(PID.TID 0000.0001)                 9.719020454873740E+10,      /* I = 51 */
(PID.TID 0000.0001)                 9.594452469255087E+10,      /* I = 52 */
(PID.TID 0000.0001)                 9.433654646922043E+10,      /* I = 53 */
(PID.TID 0000.0001)                 9.241098780606058E+10,      /* I = 54 */
(PID.TID 0000.0001)                 9.022313873522023E+10,      /* I = 55 */
(PID.TID 0000.0001)                 8.783871201160951E+10,      /* I = 56 */
(PID.TID 0000.0001)                 8.533379325707961E+10,      /* I = 57 */
(PID.TID 0000.0001)                 8.279477205479343E+10,      /* I = 58 */
(PID.TID 0000.0001)                 8.031792520226384E+10,      /* I = 59 */
(PID.TID 0000.0001)                 7.800802871997223E+10,      /* I = 60 */
(PID.TID 0000.0001)                 7.597507578906308E+10,      /* I = 61 */
(PID.TID 0000.0001)                 7.432809861298544E+10,      /* I = 62 */
(PID.TID 0000.0001)                 7.316560555600214E+10,      /* I = 63 */
(PID.TID 0000.0001)                 7.256353271748119E+10,      /* I = 64 */
(PID.TID 0000.0001)                 9.076111290422060E+10,      /* I = 65 */
(PID.TID 0000.0001)                 9.103111035233499E+10,      /* I = 66 */
(PID.TID 0000.0001)                 9.156064070993231E+10,      /* I = 67 */
(PID.TID 0000.0001)                 9.232920428260213E+10,      /* I = 68 */
(PID.TID 0000.0001)                 9.330709899483766E+10,      /* I = 69 */
(PID.TID 0000.0001)                 9.445660930090860E+10,      /* I = 70 */
(PID.TID 0000.0001)                 9.573349030317511E+10,      /* I = 71 */
(PID.TID 0000.0001)                 9.708868016530809E+10,      /* I = 72 */
(PID.TID 0000.0001)                 9.847017339806476E+10,      /* I = 73 */
(PID.TID 0000.0001)                 9.982498936271980E+10,      /* I = 74 */
(PID.TID 0000.0001)                 1.011011716698855E+11,      /* I = 75 */
(PID.TID 0000.0001)                 1.022497537646060E+11,      /* I = 76 */
(PID.TID 0000.0001)                 1.032266241858423E+11,      /* I = 77 */
(PID.TID 0000.0001)                 1.039942233001552E+11,      /* I = 78 */
(PID.TID 0000.0001)                 1.045230037451501E+11,      /* I = 79 */
(PID.TID 0000.0001)     2 @  1.047926024841940E+11,             /* I = 80: 81 */
(PID.TID 0000.0001)                 1.045230037451861E+11,      /* I = 82 */
(PID.TID 0000.0001)                 1.039942233001552E+11,      /* I = 83 */
(PID.TID 0000.0001)                 1.032266241858783E+11,      /* I = 84 */
(PID.TID 0000.0001)                 1.022497537646060E+11,      /* I = 85 */
(PID.TID 0000.0001)                 1.011011716699215E+11,      /* I = 86 */
(PID.TID 0000.0001)                 9.982498936268376E+10,      /* I = 87 */
(PID.TID 0000.0001)                 9.847017339806476E+10,      /* I = 88 */
(PID.TID 0000.0001)                 9.708868016527205E+10,      /* I = 89 */
(PID.TID 0000.0001)                 9.573349030313907E+10,      /* I = 90 */
(PID.TID 0000.0001)                 9.445660930090860E+10,      /* I = 91 */
(PID.TID 0000.0001)                 9.330709899483766E+10,      /* I = 92 */
(PID.TID 0000.0001)                 9.232920428256609E+10,      /* I = 93 */
(PID.TID 0000.0001)                 9.156064070993231E+10,      /* I = 94 */
(PID.TID 0000.0001)                 9.103111035233499E+10,      /* I = 95 */
(PID.TID 0000.0001)                 9.076111290418457E+10,      /* I = 96 */
(PID.TID 0000.0001)                 6.757541173817516E+10,      /* I = 97 */
(PID.TID 0000.0001)                 6.830648821282825E+10,      /* I = 98 */
(PID.TID 0000.0001)                 6.970852823518779E+10,      /* I = 99 */
(PID.TID 0000.0001)                 7.167505933266579E+10,      /* I =100 */
(PID.TID 0000.0001)                 7.407378391965518E+10,      /* I =101 */
(PID.TID 0000.0001)                 7.676559153402333E+10,      /* I =102 */
(PID.TID 0000.0001)                 7.961744142441241E+10,      /* I =103 */
(PID.TID 0000.0001)                 8.250883164798820E+10,      /* I =104 */
(PID.TID 0000.0001)                 8.533379325707961E+10,      /* I =105 */
(PID.TID 0000.0001)                 8.800057596473148E+10,      /* I =106 */
(PID.TID 0000.0001)                 9.043054958589890E+10,      /* I =107 */
(PID.TID 0000.0001)                 9.255713331733807E+10,      /* I =108 */
(PID.TID 0000.0001)                 9.432506641773729E+10,      /* I =109 */
(PID.TID 0000.0001)                 9.569005670076813E+10,      /* I =110 */
(PID.TID 0000.0001)                 9.661871769577347E+10,      /* I =111 */
(PID.TID 0000.0001)     2 @  9.708868016527205E+10,             /* I =112:113 */
(PID.TID 0000.0001)                 9.661871769577347E+10,      /* I =114 */
(PID.TID 0000.0001)                 9.569005670073209E+10,      /* I =115 */
(PID.TID 0000.0001)                 9.432506641773729E+10,      /* I =116 */
(PID.TID 0000.0001)                 9.255713331730203E+10,      /* I =117 */
(PID.TID 0000.0001)                 9.043054958589890E+10,      /* I =118 */
(PID.TID 0000.0001)                 8.800057596473148E+10,      /* I =119 */
(PID.TID 0000.0001)                 8.533379325707961E+10,      /* I =120 */
(PID.TID 0000.0001)                 8.250883164795216E+10,      /* I =121 */
(PID.TID 0000.0001)                 7.961744142437637E+10,      /* I =122 */
(PID.TID 0000.0001)                 7.676559153402333E+10,      /* I =123 */
(PID.TID 0000.0001)                 7.407378391965518E+10,      /* I =124 */
(PID.TID 0000.0001)                 7.167505933266579E+10,      /* I =125 */
(PID.TID 0000.0001)                 6.970852823515175E+10,      /* I =126 */
(PID.TID 0000.0001)                 6.830648821282825E+10,      /* I =127 */
(PID.TID 0000.0001)                 6.757541173817516E+10,      /* I =128 */
(PID.TID 0000.0001)                 1.401900702255611E+10,      /* I =129 */
(PID.TID 0000.0001)                 2.459906945574446E+10,      /* I =130 */
(PID.TID 0000.0001)                 3.378518544307869E+10,      /* I =131 */
(PID.TID 0000.0001)                 4.192037169898667E+10,      /* I =132 */
(PID.TID 0000.0001)                 4.925938996118163E+10,      /* I =133 */
(PID.TID 0000.0001)                 5.594154126607553E+10,      /* I =134 */
(PID.TID 0000.0001)                 6.203683527772523E+10,      /* I =135 */
(PID.TID 0000.0001)                 6.757541173817516E+10,      /* I =136 */
(PID.TID 0000.0001)                 7.256353271748119E+10,      /* I =137 */
(PID.TID 0000.0001)                 7.699293007098555E+10,      /* I =138 */
(PID.TID 0000.0001)                 8.084683449728902E+10,      /* I =139 */
(PID.TID 0000.0001)                 8.410423102796223E+10,      /* I =140 */
(PID.TID 0000.0001)                 8.674306976737517E+10,      /* I =141 */
(PID.TID 0000.0001)                 8.874277443041928E+10,      /* I =142 */
(PID.TID 0000.0001)                 9.008620045350865E+10,      /* I =143 */
(PID.TID 0000.0001)                 9.076111290418457E+10,      /* I =144 */
(PID.TID 0000.0001)                 9.076111290422060E+10,      /* I =145 */
(PID.TID 0000.0001)                 9.008620045354469E+10,      /* I =146 */
(PID.TID 0000.0001)                 8.874277443041928E+10,      /* I =147 */
(PID.TID 0000.0001)                 8.674306976741121E+10,      /* I =148 */
(PID.TID 0000.0001)                 8.410423102799828E+10,      /* I =149 */
(PID.TID 0000.0001)                 8.084683449728902E+10,      /* I =150 */
(PID.TID 0000.0001)                 7.699293007098555E+10,      /* I =151 */
(PID.TID 0000.0001)                 7.256353271748119E+10,      /* I =152 */
(PID.TID 0000.0001)                 6.757541173817516E+10,      /* I =153 */
(PID.TID 0000.0001)                 6.203683527772523E+10,      /* I =154 */
(PID.TID 0000.0001)                 5.594154126611156E+10,      /* I =155 */
(PID.TID 0000.0001)                 4.925938996118163E+10,      /* I =156 */
(PID.TID 0000.0001)                 4.192037169898667E+10,      /* I =157 */
(PID.TID 0000.0001)                 3.378518544304265E+10,      /* I =158 */
(PID.TID 0000.0001)                 2.459906945574446E+10,      /* I =159 */
(PID.TID 0000.0001)                 1.401900702259215E+10,      /* I =160 */
(PID.TID 0000.0001)                 7.256353271748119E+10,      /* I =161 */
(PID.TID 0000.0001)                 7.316560555603816E+10,      /* I =162 */
(PID.TID 0000.0001)                 7.432809861291336E+10,      /* I =163 */
(PID.TID 0000.0001)                 7.597507578906308E+10,      /* I =164 */
(PID.TID 0000.0001)                 7.800802871993619E+10,      /* I =165 */
(PID.TID 0000.0001)                 8.031792520226384E+10,      /* I =166 */
(PID.TID 0000.0001)                 8.279477205479343E+10,      /* I =167 */
(PID.TID 0000.0001)                 8.533379325707961E+10,      /* I =168 */
(PID.TID 0000.0001)                 8.783871201160951E+10,      /* I =169 */
(PID.TID 0000.0001)                 9.022313873522023E+10,      /* I =170 */
(PID.TID 0000.0001)                 9.241098780606058E+10,      /* I =171 */
(PID.TID 0000.0001)                 9.433654646922043E+10,      /* I =172 */
(PID.TID 0000.0001)                 9.594452469251483E+10,      /* I =173 */
(PID.TID 0000.0001)                 9.719020454870135E+10,      /* I =174 */
(PID.TID 0000.0001)                 9.803968493821149E+10,      /* I =175 */
(PID.TID 0000.0001)                 9.847017339810080E+10,      /* I =176 */
(PID.TID 0000.0001)                 9.847017339806476E+10,      /* I =177 */
(PID.TID 0000.0001)                 9.803968493821149E+10,      /* I =178 */
(PID.TID 0000.0001)                 9.719020454873740E+10,      /* I =179 */
(PID.TID 0000.0001)                 9.594452469255087E+10,      /* I =180 */
(PID.TID 0000.0001)                 9.433654646922043E+10,      /* I =181 */
(PID.TID 0000.0001)                 9.241098780606058E+10,      /* I =182 */
(PID.TID 0000.0001)                 9.022313873522023E+10,      /* I =183 */
(PID.TID 0000.0001)                 8.783871201160951E+10,      /* I =184 */
(PID.TID 0000.0001)                 8.533379325707961E+10,      /* I =185 */
(PID.TID 0000.0001)                 8.279477205479343E+10,      /* I =186 */
(PID.TID 0000.0001)                 8.031792520226384E+10,      /* I =187 */
(PID.TID 0000.0001)                 7.800802871997223E+10,      /* I =188 */
(PID.TID 0000.0001)                 7.597507578906308E+10,      /* I =189 */
(PID.TID 0000.0001)                 7.432809861298544E+10,      /* I =190 */
(PID.TID 0000.0001)                 7.316560555600214E+10,      /* I =191 */
(PID.TID 0000.0001)                 7.256353271748119E+10,      /* I =192 */
(PID.TID 0000.0001)                 9.076111290422060E+10,      /* I =193 */
(PID.TID 0000.0001)                 9.103111035233499E+10,      /* I =194 */
(PID.TID 0000.0001)                 9.156064070993231E+10,      /* I =195 */
(PID.TID 0000.0001)                 9.232920428260213E+10,      /* I =196 */
(PID.TID 0000.0001)                 9.330709899483766E+10,      /* I =197 */
(PID.TID 0000.0001)                 9.445660930090860E+10,      /* I =198 */
(PID.TID 0000.0001)                 9.573349030317511E+10,      /* I =199 */
(PID.TID 0000.0001)                 9.708868016530809E+10,      /* I =200 */
(PID.TID 0000.0001)                 9.847017339806476E+10,      /* I =201 */
(PID.TID 0000.0001)                 9.982498936271980E+10,      /* I =202 */
(PID.TID 0000.0001)                 1.011011716698855E+11,      /* I =203 */
(PID.TID 0000.0001)                 1.022497537646060E+11,      /* I =204 */
(PID.TID 0000.0001)                 1.032266241858423E+11,      /* I =205 */
(PID.TID 0000.0001)                 1.039942233001552E+11,      /* I =206 */
(PID.TID 0000.0001)                 1.045230037451501E+11,      /* I =207 */
(PID.TID 0000.0001)     2 @  1.047926024841940E+11,             /* I =208:209 */
(PID.TID 0000.0001)                 1.045230037451861E+11,      /* I =210 */
(PID.TID 0000.0001)                 1.039942233001552E+11,      /* I =211 */
(PID.TID 0000.0001)                 1.032266241858783E+11,      /* I =212 */
(PID.TID 0000.0001)                 1.022497537646060E+11,      /* I =213 */
(PID.TID 0000.0001)                 1.011011716699215E+11,      /* I =214 */
(PID.TID 0000.0001)                 9.982498936268376E+10,      /* I =215 */
(PID.TID 0000.0001)                 9.847017339806476E+10,      /* I =216 */
(PID.TID 0000.0001)                 9.708868016527205E+10,      /* I =217 */
(PID.TID 0000.0001)                 9.573349030313907E+10,      /* I =218 */
(PID.TID 0000.0001)                 9.445660930090860E+10,      /* I =219 */
(PID.TID 0000.0001)                 9.330709899483766E+10,      /* I =220 */
(PID.TID 0000.0001)                 9.232920428256609E+10,      /* I =221 */
(PID.TID 0000.0001)                 9.156064070993231E+10,      /* I =222 */
(PID.TID 0000.0001)                 9.103111035233499E+10,      /* I =223 */
(PID.TID 0000.0001)                 9.076111290418457E+10,      /* I =224 */
(PID.TID 0000.0001)                 6.757541173817516E+10,      /* I =225 */
(PID.TID 0000.0001)                 6.830648821282825E+10,      /* I =226 */
(PID.TID 0000.0001)                 6.970852823518779E+10,      /* I =227 */
(PID.TID 0000.0001)                 7.167505933266579E+10,      /* I =228 */
(PID.TID 0000.0001)                 7.407378391965518E+10,      /* I =229 */
(PID.TID 0000.0001)                 7.676559153402333E+10,      /* I =230 */
(PID.TID 0000.0001)                 7.961744142441241E+10,      /* I =231 */
(PID.TID 0000.0001)                 8.250883164798820E+10,      /* I =232 */
(PID.TID 0000.0001)                 8.533379325707961E+10,      /* I =233 */
(PID.TID 0000.0001)                 8.800057596473148E+10,      /* I =234 */
(PID.TID 0000.0001)                 9.043054958589890E+10,      /* I =235 */
(PID.TID 0000.0001)                 9.255713331733807E+10,      /* I =236 */
(PID.TID 0000.0001)                 9.432506641773729E+10,      /* I =237 */
(PID.TID 0000.0001)                 9.569005670076813E+10,      /* I =238 */
(PID.TID 0000.0001)                 9.661871769577347E+10,      /* I =239 */
(PID.TID 0000.0001)     2 @  9.708868016527205E+10,             /* I =240:241 */
(PID.TID 0000.0001)                 9.661871769577347E+10,      /* I =242 */
(PID.TID 0000.0001)                 9.569005670073209E+10,      /* I =243 */
(PID.TID 0000.0001)                 9.432506641773729E+10,      /* I =244 */
(PID.TID 0000.0001)                 9.255713331730203E+10,      /* I =245 */
(PID.TID 0000.0001)                 9.043054958589890E+10,      /* I =246 */
(PID.TID 0000.0001)                 8.800057596473148E+10,      /* I =247 */
(PID.TID 0000.0001)                 8.533379325707961E+10,      /* I =248 */
(PID.TID 0000.0001)                 8.250883164795216E+10,      /* I =249 */
(PID.TID 0000.0001)                 7.961744142437637E+10,      /* I =250 */
(PID.TID 0000.0001)                 7.676559153402333E+10,      /* I =251 */
(PID.TID 0000.0001)                 7.407378391965518E+10,      /* I =252 */
(PID.TID 0000.0001)                 7.167505933266579E+10,      /* I =253 */
(PID.TID 0000.0001)                 6.970852823515175E+10,      /* I =254 */
(PID.TID 0000.0001)                 6.830648821282825E+10,      /* I =255 */
(PID.TID 0000.0001)                 6.757541173817516E+10,      /* I =256 */
(PID.TID 0000.0001)                 1.401900702255611E+10,      /* I =257 */
(PID.TID 0000.0001)                 2.459906945574446E+10,      /* I =258 */
(PID.TID 0000.0001)                 3.378518544307869E+10,      /* I =259 */
(PID.TID 0000.0001)                 4.192037169898667E+10,      /* I =260 */
(PID.TID 0000.0001)                 4.925938996118163E+10,      /* I =261 */
(PID.TID 0000.0001)                 5.594154126607553E+10,      /* I =262 */
(PID.TID 0000.0001)                 6.203683527772523E+10,      /* I =263 */
(PID.TID 0000.0001)                 6.757541173817516E+10,      /* I =264 */
(PID.TID 0000.0001)                 7.256353271748119E+10,      /* I =265 */
(PID.TID 0000.0001)                 7.699293007098555E+10,      /* I =266 */
(PID.TID 0000.0001)                 8.084683449728902E+10,      /* I =267 */
(PID.TID 0000.0001)                 8.410423102796223E+10,      /* I =268 */
(PID.TID 0000.0001)                 8.674306976737517E+10,      /* I =269 */
(PID.TID 0000.0001)                 8.874277443041928E+10,      /* I =270 */
(PID.TID 0000.0001)                 9.008620045350865E+10,      /* I =271 */
(PID.TID 0000.0001)                 9.076111290418457E+10,      /* I =272 */
(PID.TID 0000.0001)                 9.076111290422060E+10,      /* I =273 */
(PID.TID 0000.0001)                 9.008620045354469E+10,      /* I =274 */
(PID.TID 0000.0001)                 8.874277443041928E+10,      /* I =275 */
(PID.TID 0000.0001)                 8.674306976741121E+10,      /* I =276 */
(PID.TID 0000.0001)                 8.410423102799828E+10,      /* I =277 */
(PID.TID 0000.0001)                 8.084683449728902E+10,      /* I =278 */
(PID.TID 0000.0001)                 7.699293007098555E+10,      /* I =279 */
(PID.TID 0000.0001)                 7.256353271748119E+10,      /* I =280 */
(PID.TID 0000.0001)                 6.757541173817516E+10,      /* I =281 */
(PID.TID 0000.0001)                 6.203683527772523E+10,      /* I =282 */
(PID.TID 0000.0001)                 5.594154126611156E+10,      /* I =283 */
(PID.TID 0000.0001)                 4.925938996118163E+10,      /* I =284 */
(PID.TID 0000.0001)                 4.192037169898667E+10,      /* I =285 */
(PID.TID 0000.0001)                 3.378518544304265E+10,      /* I =286 */
(PID.TID 0000.0001)                 2.459906945574446E+10,      /* I =287 */
(PID.TID 0000.0001)                 1.401900702259215E+10,      /* I =288 */
(PID.TID 0000.0001)                 7.256353271748119E+10,      /* I =289 */
(PID.TID 0000.0001)                 7.316560555603816E+10,      /* I =290 */
(PID.TID 0000.0001)                 7.432809861291336E+10,      /* I =291 */
(PID.TID 0000.0001)                 7.597507578906308E+10,      /* I =292 */
(PID.TID 0000.0001)                 7.800802871993619E+10,      /* I =293 */
(PID.TID 0000.0001)                 8.031792520226384E+10,      /* I =294 */
(PID.TID 0000.0001)                 8.279477205479343E+10,      /* I =295 */
(PID.TID 0000.0001)                 8.533379325707961E+10,      /* I =296 */
(PID.TID 0000.0001)                 8.783871201160951E+10,      /* I =297 */
(PID.TID 0000.0001)                 9.022313873522023E+10,      /* I =298 */
(PID.TID 0000.0001)                 9.241098780606058E+10,      /* I =299 */
(PID.TID 0000.0001)                 9.433654646922043E+10,      /* I =300 */
(PID.TID 0000.0001)                 9.594452469251483E+10,      /* I =301 */
(PID.TID 0000.0001)                 9.719020454870135E+10,      /* I =302 */
(PID.TID 0000.0001)                 9.803968493821149E+10,      /* I =303 */
(PID.TID 0000.0001)                 9.847017339810080E+10,      /* I =304 */
(PID.TID 0000.0001)                 9.847017339806476E+10,      /* I =305 */
(PID.TID 0000.0001)                 9.803968493821149E+10,      /* I =306 */
(PID.TID 0000.0001)                 9.719020454873740E+10,      /* I =307 */
(PID.TID 0000.0001)                 9.594452469255087E+10,      /* I =308 */
(PID.TID 0000.0001)                 9.433654646922043E+10,      /* I =309 */
(PID.TID 0000.0001)                 9.241098780606058E+10,      /* I =310 */
(PID.TID 0000.0001)                 9.022313873522023E+10,      /* I =311 */
(PID.TID 0000.0001)                 8.783871201160951E+10,      /* I =312 */
(PID.TID 0000.0001)                 8.533379325707961E+10,      /* I =313 */
(PID.TID 0000.0001)                 8.279477205479343E+10,      /* I =314 */
(PID.TID 0000.0001)                 8.031792520226384E+10,      /* I =315 */
(PID.TID 0000.0001)                 7.800802871997223E+10,      /* I =316 */
(PID.TID 0000.0001)                 7.597507578906308E+10,      /* I =317 */
(PID.TID 0000.0001)                 7.432809861298544E+10,      /* I =318 */
(PID.TID 0000.0001)                 7.316560555600214E+10,      /* I =319 */
(PID.TID 0000.0001)                 7.256353271748119E+10,      /* I =320 */
(PID.TID 0000.0001)                 9.076111290422060E+10,      /* I =321 */
(PID.TID 0000.0001)                 9.103111035233499E+10,      /* I =322 */
(PID.TID 0000.0001)                 9.156064070993231E+10,      /* I =323 */
(PID.TID 0000.0001)                 9.232920428260213E+10,      /* I =324 */
(PID.TID 0000.0001)                 9.330709899483766E+10,      /* I =325 */
(PID.TID 0000.0001)                 9.445660930090860E+10,      /* I =326 */
(PID.TID 0000.0001)                 9.573349030317511E+10,      /* I =327 */
(PID.TID 0000.0001)                 9.708868016530809E+10,      /* I =328 */
(PID.TID 0000.0001)                 9.847017339806476E+10,      /* I =329 */
(PID.TID 0000.0001)                 9.982498936271980E+10,      /* I =330 */
(PID.TID 0000.0001)                 1.011011716698855E+11,      /* I =331 */
(PID.TID 0000.0001)                 1.022497537646060E+11,      /* I =332 */
(PID.TID 0000.0001)                 1.032266241858423E+11,      /* I =333 */
(PID.TID 0000.0001)                 1.039942233001552E+11,      /* I =334 */
(PID.TID 0000.0001)                 1.045230037451501E+11,      /* I =335 */
(PID.TID 0000.0001)     2 @  1.047926024841940E+11,             /* I =336:337 */
(PID.TID 0000.0001)                 1.045230037451861E+11,      /* I =338 */
(PID.TID 0000.0001)                 1.039942233001552E+11,      /* I =339 */
(PID.TID 0000.0001)                 1.032266241858783E+11,      /* I =340 */
(PID.TID 0000.0001)                 1.022497537646060E+11,      /* I =341 */
(PID.TID 0000.0001)                 1.011011716699215E+11,      /* I =342 */
(PID.TID 0000.0001)                 9.982498936268376E+10,      /* I =343 */
(PID.TID 0000.0001)                 9.847017339806476E+10,      /* I =344 */
(PID.TID 0000.0001)                 9.708868016527205E+10,      /* I =345 */
(PID.TID 0000.0001)                 9.573349030313907E+10,      /* I =346 */
(PID.TID 0000.0001)                 9.445660930090860E+10,      /* I =347 */
(PID.TID 0000.0001)                 9.330709899483766E+10,      /* I =348 */
(PID.TID 0000.0001)                 9.232920428256609E+10,      /* I =349 */
(PID.TID 0000.0001)                 9.156064070993231E+10,      /* I =350 */
(PID.TID 0000.0001)                 9.103111035233499E+10,      /* I =351 */
(PID.TID 0000.0001)                 9.076111290418457E+10,      /* I =352 */
(PID.TID 0000.0001)                 6.757541173817516E+10,      /* I =353 */
(PID.TID 0000.0001)                 6.830648821282825E+10,      /* I =354 */
(PID.TID 0000.0001)                 6.970852823518779E+10,      /* I =355 */
(PID.TID 0000.0001)                 7.167505933266579E+10,      /* I =356 */
(PID.TID 0000.0001)                 7.407378391965518E+10,      /* I =357 */
(PID.TID 0000.0001)                 7.676559153402333E+10,      /* I =358 */
(PID.TID 0000.0001)                 7.961744142441241E+10,      /* I =359 */
(PID.TID 0000.0001)                 8.250883164798820E+10,      /* I =360 */
(PID.TID 0000.0001)                 8.533379325707961E+10,      /* I =361 */
(PID.TID 0000.0001)                 8.800057596473148E+10,      /* I =362 */
(PID.TID 0000.0001)                 9.043054958589890E+10,      /* I =363 */
(PID.TID 0000.0001)                 9.255713331733807E+10,      /* I =364 */
(PID.TID 0000.0001)                 9.432506641773729E+10,      /* I =365 */
(PID.TID 0000.0001)                 9.569005670076813E+10,      /* I =366 */
(PID.TID 0000.0001)                 9.661871769577347E+10,      /* I =367 */
(PID.TID 0000.0001)     2 @  9.708868016527205E+10,             /* I =368:369 */
(PID.TID 0000.0001)                 9.661871769577347E+10,      /* I =370 */
(PID.TID 0000.0001)                 9.569005670073209E+10,      /* I =371 */
(PID.TID 0000.0001)                 9.432506641773729E+10,      /* I =372 */
(PID.TID 0000.0001)                 9.255713331730203E+10,      /* I =373 */
(PID.TID 0000.0001)                 9.043054958589890E+10,      /* I =374 */
(PID.TID 0000.0001)                 8.800057596473148E+10,      /* I =375 */
(PID.TID 0000.0001)                 8.533379325707961E+10,      /* I =376 */
(PID.TID 0000.0001)                 8.250883164795216E+10,      /* I =377 */
(PID.TID 0000.0001)                 7.961744142437637E+10,      /* I =378 */
(PID.TID 0000.0001)                 7.676559153402333E+10,      /* I =379 */
(PID.TID 0000.0001)                 7.407378391965518E+10,      /* I =380 */
(PID.TID 0000.0001)                 7.167505933266579E+10,      /* I =381 */
(PID.TID 0000.0001)                 6.970852823515175E+10,      /* I =382 */
(PID.TID 0000.0001)                 6.830648821282825E+10,      /* I =383 */
(PID.TID 0000.0001)                 6.757541173817516E+10,      /* I =384 */
(PID.TID 0000.0001)                 1.401900702255611E+10,      /* I =385 */
(PID.TID 0000.0001)                 2.459906945574446E+10,      /* I =386 */
(PID.TID 0000.0001)                 3.378518544307869E+10,      /* I =387 */
(PID.TID 0000.0001)                 4.192037169898667E+10,      /* I =388 */
(PID.TID 0000.0001)                 4.925938996118163E+10,      /* I =389 */
(PID.TID 0000.0001)                 5.594154126607553E+10,      /* I =390 */
(PID.TID 0000.0001)                 6.203683527772523E+10,      /* I =391 */
(PID.TID 0000.0001)                 6.757541173817516E+10,      /* I =392 */
(PID.TID 0000.0001)                 7.256353271748119E+10,      /* I =393 */
(PID.TID 0000.0001)                 7.699293007098555E+10,      /* I =394 */
(PID.TID 0000.0001)                 8.084683449728902E+10,      /* I =395 */
(PID.TID 0000.0001)                 8.410423102796223E+10,      /* I =396 */
(PID.TID 0000.0001)                 8.674306976737517E+10,      /* I =397 */
(PID.TID 0000.0001)                 8.874277443041928E+10,      /* I =398 */
(PID.TID 0000.0001)                 9.008620045350865E+10,      /* I =399 */
(PID.TID 0000.0001)                 9.076111290418457E+10,      /* I =400 */
(PID.TID 0000.0001)                 9.076111290422060E+10,      /* I =401 */
(PID.TID 0000.0001)                 9.008620045354469E+10,      /* I =402 */
(PID.TID 0000.0001)                 8.874277443041928E+10,      /* I =403 */
(PID.TID 0000.0001)                 8.674306976741121E+10,      /* I =404 */
(PID.TID 0000.0001)                 8.410423102799828E+10,      /* I =405 */
(PID.TID 0000.0001)                 8.084683449728902E+10,      /* I =406 */
(PID.TID 0000.0001)                 7.699293007098555E+10,      /* I =407 */
(PID.TID 0000.0001)                 7.256353271748119E+10,      /* I =408 */
(PID.TID 0000.0001)                 6.757541173817516E+10,      /* I =409 */
(PID.TID 0000.0001)                 6.203683527772523E+10,      /* I =410 */
(PID.TID 0000.0001)                 5.594154126611156E+10,      /* I =411 */
(PID.TID 0000.0001)                 4.925938996118163E+10,      /* I =412 */
(PID.TID 0000.0001)                 4.192037169898667E+10,      /* I =413 */
(PID.TID 0000.0001)                 3.378518544304265E+10,      /* I =414 */
(PID.TID 0000.0001)                 2.459906945574446E+10,      /* I =415 */
(PID.TID 0000.0001)                 1.401900702259215E+10,      /* I =416 */
(PID.TID 0000.0001)                 7.256353271748119E+10,      /* I =417 */
(PID.TID 0000.0001)                 7.316560555603816E+10,      /* I =418 */
(PID.TID 0000.0001)                 7.432809861291336E+10,      /* I =419 */
(PID.TID 0000.0001)                 7.597507578906308E+10,      /* I =420 */
(PID.TID 0000.0001)                 7.800802871993619E+10,      /* I =421 */
(PID.TID 0000.0001)                 8.031792520226384E+10,      /* I =422 */
(PID.TID 0000.0001)                 8.279477205479343E+10,      /* I =423 */
(PID.TID 0000.0001)                 8.533379325707961E+10,      /* I =424 */
(PID.TID 0000.0001)                 8.783871201160951E+10,      /* I =425 */
(PID.TID 0000.0001)                 9.022313873522023E+10,      /* I =426 */
(PID.TID 0000.0001)                 9.241098780606058E+10,      /* I =427 */
(PID.TID 0000.0001)                 9.433654646922043E+10,      /* I =428 */
(PID.TID 0000.0001)                 9.594452469251483E+10,      /* I =429 */
(PID.TID 0000.0001)                 9.719020454870135E+10,      /* I =430 */
(PID.TID 0000.0001)                 9.803968493821149E+10,      /* I =431 */
(PID.TID 0000.0001)                 9.847017339810080E+10,      /* I =432 */
(PID.TID 0000.0001)                 9.847017339806476E+10,      /* I =433 */
(PID.TID 0000.0001)                 9.803968493821149E+10,      /* I =434 */
(PID.TID 0000.0001)                 9.719020454873740E+10,      /* I =435 */
(PID.TID 0000.0001)                 9.594452469255087E+10,      /* I =436 */
(PID.TID 0000.0001)                 9.433654646922043E+10,      /* I =437 */
(PID.TID 0000.0001)                 9.241098780606058E+10,      /* I =438 */
(PID.TID 0000.0001)                 9.022313873522023E+10,      /* I =439 */
(PID.TID 0000.0001)                 8.783871201160951E+10,      /* I =440 */
(PID.TID 0000.0001)                 8.533379325707961E+10,      /* I =441 */
(PID.TID 0000.0001)                 8.279477205479343E+10,      /* I =442 */
(PID.TID 0000.0001)                 8.031792520226384E+10,      /* I =443 */
(PID.TID 0000.0001)                 7.800802871997223E+10,      /* I =444 */
(PID.TID 0000.0001)                 7.597507578906308E+10,      /* I =445 */
(PID.TID 0000.0001)                 7.432809861298544E+10,      /* I =446 */
(PID.TID 0000.0001)                 7.316560555600214E+10,      /* I =447 */
(PID.TID 0000.0001)                 7.256353271748119E+10,      /* I =448 */
(PID.TID 0000.0001)                 9.076111290422060E+10,      /* I =449 */
(PID.TID 0000.0001)                 9.103111035233499E+10,      /* I =450 */
(PID.TID 0000.0001)                 9.156064070993231E+10,      /* I =451 */
(PID.TID 0000.0001)                 9.232920428260213E+10,      /* I =452 */
(PID.TID 0000.0001)                 9.330709899483766E+10,      /* I =453 */
(PID.TID 0000.0001)                 9.445660930090860E+10,      /* I =454 */
(PID.TID 0000.0001)                 9.573349030317511E+10,      /* I =455 */
(PID.TID 0000.0001)                 9.708868016530809E+10,      /* I =456 */
(PID.TID 0000.0001)                 9.847017339806476E+10,      /* I =457 */
(PID.TID 0000.0001)                 9.982498936271980E+10,      /* I =458 */
(PID.TID 0000.0001)                 1.011011716698855E+11,      /* I =459 */
(PID.TID 0000.0001)                 1.022497537646060E+11,      /* I =460 */
(PID.TID 0000.0001)                 1.032266241858423E+11,      /* I =461 */
(PID.TID 0000.0001)                 1.039942233001552E+11,      /* I =462 */
(PID.TID 0000.0001)                 1.045230037451501E+11,      /* I =463 */
(PID.TID 0000.0001)     2 @  1.047926024841940E+11,             /* I =464:465 */
(PID.TID 0000.0001)                 1.045230037451861E+11,      /* I =466 */
(PID.TID 0000.0001)                 1.039942233001552E+11,      /* I =467 */
(PID.TID 0000.0001)                 1.032266241858783E+11,      /* I =468 */
(PID.TID 0000.0001)                 1.022497537646060E+11,      /* I =469 */
(PID.TID 0000.0001)                 1.011011716699215E+11,      /* I =470 */
(PID.TID 0000.0001)                 9.982498936268376E+10,      /* I =471 */
(PID.TID 0000.0001)                 9.847017339806476E+10,      /* I =472 */
(PID.TID 0000.0001)                 9.708868016527205E+10,      /* I =473 */
(PID.TID 0000.0001)                 9.573349030313907E+10,      /* I =474 */
(PID.TID 0000.0001)                 9.445660930090860E+10,      /* I =475 */
(PID.TID 0000.0001)                 9.330709899483766E+10,      /* I =476 */
(PID.TID 0000.0001)                 9.232920428256609E+10,      /* I =477 */
(PID.TID 0000.0001)                 9.156064070993231E+10,      /* I =478 */
(PID.TID 0000.0001)                 9.103111035233499E+10,      /* I =479 */
(PID.TID 0000.0001)                 9.076111290418457E+10,      /* I =480 */
(PID.TID 0000.0001)                 6.757541173817516E+10,      /* I =481 */
(PID.TID 0000.0001)                 6.830648821282825E+10,      /* I =482 */
(PID.TID 0000.0001)                 6.970852823518779E+10,      /* I =483 */
(PID.TID 0000.0001)                 7.167505933266579E+10,      /* I =484 */
(PID.TID 0000.0001)                 7.407378391965518E+10,      /* I =485 */
(PID.TID 0000.0001)                 7.676559153402333E+10,      /* I =486 */
(PID.TID 0000.0001)                 7.961744142441241E+10,      /* I =487 */
(PID.TID 0000.0001)                 8.250883164798820E+10,      /* I =488 */
(PID.TID 0000.0001)                 8.533379325707961E+10,      /* I =489 */
(PID.TID 0000.0001)                 8.800057596473148E+10,      /* I =490 */
(PID.TID 0000.0001)                 9.043054958589890E+10,      /* I =491 */
(PID.TID 0000.0001)                 9.255713331733807E+10,      /* I =492 */
(PID.TID 0000.0001)                 9.432506641773729E+10,      /* I =493 */
(PID.TID 0000.0001)                 9.569005670076813E+10,      /* I =494 */
(PID.TID 0000.0001)                 9.661871769577347E+10,      /* I =495 */
(PID.TID 0000.0001)     2 @  9.708868016527205E+10,             /* I =496:497 */
(PID.TID 0000.0001)                 9.661871769577347E+10,      /* I =498 */
(PID.TID 0000.0001)                 9.569005670073209E+10,      /* I =499 */
(PID.TID 0000.0001)                 9.432506641773729E+10,      /* I =500 */
(PID.TID 0000.0001)                 9.255713331730203E+10,      /* I =501 */
(PID.TID 0000.0001)                 9.043054958589890E+10,      /* I =502 */
(PID.TID 0000.0001)                 8.800057596473148E+10,      /* I =503 */
(PID.TID 0000.0001)                 8.533379325707961E+10,      /* I =504 */
(PID.TID 0000.0001)                 8.250883164795216E+10,      /* I =505 */
(PID.TID 0000.0001)                 7.961744142437637E+10,      /* I =506 */
(PID.TID 0000.0001)                 7.676559153402333E+10,      /* I =507 */
(PID.TID 0000.0001)                 7.407378391965518E+10,      /* I =508 */
(PID.TID 0000.0001)                 7.167505933266579E+10,      /* I =509 */
(PID.TID 0000.0001)                 6.970852823515175E+10,      /* I =510 */
(PID.TID 0000.0001)                 6.830648821282825E+10,      /* I =511 */
(PID.TID 0000.0001)                 6.757541173817516E+10,      /* I =512 */
(PID.TID 0000.0001)                 1.401900702255611E+10,      /* I =513 */
(PID.TID 0000.0001)                 2.459906945574446E+10,      /* I =514 */
(PID.TID 0000.0001)                 3.378518544307869E+10,      /* I =515 */
(PID.TID 0000.0001)                 4.192037169898667E+10,      /* I =516 */
(PID.TID 0000.0001)                 4.925938996118163E+10,      /* I =517 */
(PID.TID 0000.0001)                 5.594154126607553E+10,      /* I =518 */
(PID.TID 0000.0001)                 6.203683527772523E+10,      /* I =519 */
(PID.TID 0000.0001)                 6.757541173817516E+10,      /* I =520 */
(PID.TID 0000.0001)                 7.256353271748119E+10,      /* I =521 */
(PID.TID 0000.0001)                 7.699293007098555E+10,      /* I =522 */
(PID.TID 0000.0001)                 8.084683449728902E+10,      /* I =523 */
(PID.TID 0000.0001)                 8.410423102796223E+10,      /* I =524 */
(PID.TID 0000.0001)                 8.674306976737517E+10,      /* I =525 */
(PID.TID 0000.0001)                 8.874277443041928E+10,      /* I =526 */
(PID.TID 0000.0001)                 9.008620045350865E+10,      /* I =527 */
(PID.TID 0000.0001)                 9.076111290418457E+10,      /* I =528 */
(PID.TID 0000.0001)                 9.076111290422060E+10,      /* I =529 */
(PID.TID 0000.0001)                 9.008620045354469E+10,      /* I =530 */
(PID.TID 0000.0001)                 8.874277443041928E+10,      /* I =531 */
(PID.TID 0000.0001)                 8.674306976741121E+10,      /* I =532 */
(PID.TID 0000.0001)                 8.410423102799828E+10,      /* I =533 */
(PID.TID 0000.0001)                 8.084683449728902E+10,      /* I =534 */
(PID.TID 0000.0001)                 7.699293007098555E+10,      /* I =535 */
(PID.TID 0000.0001)                 7.256353271748119E+10,      /* I =536 */
(PID.TID 0000.0001)                 6.757541173817516E+10,      /* I =537 */
(PID.TID 0000.0001)                 6.203683527772523E+10,      /* I =538 */
(PID.TID 0000.0001)                 5.594154126611156E+10,      /* I =539 */
(PID.TID 0000.0001)                 4.925938996118163E+10,      /* I =540 */
(PID.TID 0000.0001)                 4.192037169898667E+10,      /* I =541 */
(PID.TID 0000.0001)                 3.378518544304265E+10,      /* I =542 */
(PID.TID 0000.0001)                 2.459906945574446E+10,      /* I =543 */
(PID.TID 0000.0001)                 1.401900702259215E+10,      /* I =544 */
(PID.TID 0000.0001)                 7.256353271748119E+10,      /* I =545 */
(PID.TID 0000.0001)                 7.316560555603816E+10,      /* I =546 */
(PID.TID 0000.0001)                 7.432809861291336E+10,      /* I =547 */
(PID.TID 0000.0001)                 7.597507578906308E+10,      /* I =548 */
(PID.TID 0000.0001)                 7.800802871993619E+10,      /* I =549 */
(PID.TID 0000.0001)                 8.031792520226384E+10,      /* I =550 */
(PID.TID 0000.0001)                 8.279477205479343E+10,      /* I =551 */
(PID.TID 0000.0001)                 8.533379325707961E+10,      /* I =552 */
(PID.TID 0000.0001)                 8.783871201160951E+10,      /* I =553 */
(PID.TID 0000.0001)                 9.022313873522023E+10,      /* I =554 */
(PID.TID 0000.0001)                 9.241098780606058E+10,      /* I =555 */
(PID.TID 0000.0001)                 9.433654646922043E+10,      /* I =556 */
(PID.TID 0000.0001)                 9.594452469251483E+10,      /* I =557 */
(PID.TID 0000.0001)                 9.719020454870135E+10,      /* I =558 */
(PID.TID 0000.0001)                 9.803968493821149E+10,      /* I =559 */
(PID.TID 0000.0001)                 9.847017339810080E+10,      /* I =560 */
(PID.TID 0000.0001)                 9.847017339806476E+10,      /* I =561 */
(PID.TID 0000.0001)                 9.803968493821149E+10,      /* I =562 */
(PID.TID 0000.0001)                 9.719020454873740E+10,      /* I =563 */
(PID.TID 0000.0001)                 9.594452469255087E+10,      /* I =564 */
(PID.TID 0000.0001)                 9.433654646922043E+10,      /* I =565 */
(PID.TID 0000.0001)                 9.241098780606058E+10,      /* I =566 */
(PID.TID 0000.0001)                 9.022313873522023E+10,      /* I =567 */
(PID.TID 0000.0001)                 8.783871201160951E+10,      /* I =568 */
(PID.TID 0000.0001)                 8.533379325707961E+10,      /* I =569 */
(PID.TID 0000.0001)                 8.279477205479343E+10,      /* I =570 */
(PID.TID 0000.0001)                 8.031792520226384E+10,      /* I =571 */
(PID.TID 0000.0001)                 7.800802871997223E+10,      /* I =572 */
(PID.TID 0000.0001)                 7.597507578906308E+10,      /* I =573 */
(PID.TID 0000.0001)                 7.432809861298544E+10,      /* I =574 */
(PID.TID 0000.0001)                 7.316560555600214E+10,      /* I =575 */
(PID.TID 0000.0001)                 7.256353271748119E+10,      /* I =576 */
(PID.TID 0000.0001)                 9.076111290422060E+10,      /* I =577 */
(PID.TID 0000.0001)                 9.103111035233499E+10,      /* I =578 */
(PID.TID 0000.0001)                 9.156064070993231E+10,      /* I =579 */
(PID.TID 0000.0001)                 9.232920428260213E+10,      /* I =580 */
(PID.TID 0000.0001)                 9.330709899483766E+10,      /* I =581 */
(PID.TID 0000.0001)                 9.445660930090860E+10,      /* I =582 */
(PID.TID 0000.0001)                 9.573349030317511E+10,      /* I =583 */
(PID.TID 0000.0001)                 9.708868016530809E+10,      /* I =584 */
(PID.TID 0000.0001)                 9.847017339806476E+10,      /* I =585 */
(PID.TID 0000.0001)                 9.982498936271980E+10,      /* I =586 */
(PID.TID 0000.0001)                 1.011011716698855E+11,      /* I =587 */
(PID.TID 0000.0001)                 1.022497537646060E+11,      /* I =588 */
(PID.TID 0000.0001)                 1.032266241858423E+11,      /* I =589 */
(PID.TID 0000.0001)                 1.039942233001552E+11,      /* I =590 */
(PID.TID 0000.0001)                 1.045230037451501E+11,      /* I =591 */
(PID.TID 0000.0001)     2 @  1.047926024841940E+11,             /* I =592:593 */
(PID.TID 0000.0001)                 1.045230037451861E+11,      /* I =594 */
(PID.TID 0000.0001)                 1.039942233001552E+11,      /* I =595 */
(PID.TID 0000.0001)                 1.032266241858783E+11,      /* I =596 */
(PID.TID 0000.0001)                 1.022497537646060E+11,      /* I =597 */
(PID.TID 0000.0001)                 1.011011716699215E+11,      /* I =598 */
(PID.TID 0000.0001)                 9.982498936268376E+10,      /* I =599 */
(PID.TID 0000.0001)                 9.847017339806476E+10,      /* I =600 */
(PID.TID 0000.0001)                 9.708868016527205E+10,      /* I =601 */
(PID.TID 0000.0001)                 9.573349030313907E+10,      /* I =602 */
(PID.TID 0000.0001)                 9.445660930090860E+10,      /* I =603 */
(PID.TID 0000.0001)                 9.330709899483766E+10,      /* I =604 */
(PID.TID 0000.0001)                 9.232920428256609E+10,      /* I =605 */
(PID.TID 0000.0001)                 9.156064070993231E+10,      /* I =606 */
(PID.TID 0000.0001)                 9.103111035233499E+10,      /* I =607 */
(PID.TID 0000.0001)                 9.076111290418457E+10,      /* I =608 */
(PID.TID 0000.0001)                 6.757541173817516E+10,      /* I =609 */
(PID.TID 0000.0001)                 6.830648821282825E+10,      /* I =610 */
(PID.TID 0000.0001)                 6.970852823518779E+10,      /* I =611 */
(PID.TID 0000.0001)                 7.167505933266579E+10,      /* I =612 */
(PID.TID 0000.0001)                 7.407378391965518E+10,      /* I =613 */
(PID.TID 0000.0001)                 7.676559153402333E+10,      /* I =614 */
(PID.TID 0000.0001)                 7.961744142441241E+10,      /* I =615 */
(PID.TID 0000.0001)                 8.250883164798820E+10,      /* I =616 */
(PID.TID 0000.0001)                 8.533379325707961E+10,      /* I =617 */
(PID.TID 0000.0001)                 8.800057596473148E+10,      /* I =618 */
(PID.TID 0000.0001)                 9.043054958589890E+10,      /* I =619 */
(PID.TID 0000.0001)                 9.255713331733807E+10,      /* I =620 */
(PID.TID 0000.0001)                 9.432506641773729E+10,      /* I =621 */
(PID.TID 0000.0001)                 9.569005670076813E+10,      /* I =622 */
(PID.TID 0000.0001)                 9.661871769577347E+10,      /* I =623 */
(PID.TID 0000.0001)     2 @  9.708868016527205E+10,             /* I =624:625 */
(PID.TID 0000.0001)                 9.661871769577347E+10,      /* I =626 */
(PID.TID 0000.0001)                 9.569005670073209E+10,      /* I =627 */
(PID.TID 0000.0001)                 9.432506641773729E+10,      /* I =628 */
(PID.TID 0000.0001)                 9.255713331730203E+10,      /* I =629 */
(PID.TID 0000.0001)                 9.043054958589890E+10,      /* I =630 */
(PID.TID 0000.0001)                 8.800057596473148E+10,      /* I =631 */
(PID.TID 0000.0001)                 8.533379325707961E+10,      /* I =632 */
(PID.TID 0000.0001)                 8.250883164795216E+10,      /* I =633 */
(PID.TID 0000.0001)                 7.961744142437637E+10,      /* I =634 */
(PID.TID 0000.0001)                 7.676559153402333E+10,      /* I =635 */
(PID.TID 0000.0001)                 7.407378391965518E+10,      /* I =636 */
(PID.TID 0000.0001)                 7.167505933266579E+10,      /* I =637 */
(PID.TID 0000.0001)                 6.970852823515175E+10,      /* I =638 */
(PID.TID 0000.0001)                 6.830648821282825E+10,      /* I =639 */
(PID.TID 0000.0001)                 6.757541173817516E+10,      /* I =640 */
(PID.TID 0000.0001)                 1.401900702255611E+10,      /* I =641 */
(PID.TID 0000.0001)                 2.459906945574446E+10,      /* I =642 */
(PID.TID 0000.0001)                 3.378518544307869E+10,      /* I =643 */
(PID.TID 0000.0001)                 4.192037169898667E+10,      /* I =644 */
(PID.TID 0000.0001)                 4.925938996118163E+10,      /* I =645 */
(PID.TID 0000.0001)                 5.594154126607553E+10,      /* I =646 */
(PID.TID 0000.0001)                 6.203683527772523E+10,      /* I =647 */
(PID.TID 0000.0001)                 6.757541173817516E+10,      /* I =648 */
(PID.TID 0000.0001)                 7.256353271748119E+10,      /* I =649 */
(PID.TID 0000.0001)                 7.699293007098555E+10,      /* I =650 */
(PID.TID 0000.0001)                 8.084683449728902E+10,      /* I =651 */
(PID.TID 0000.0001)                 8.410423102796223E+10,      /* I =652 */
(PID.TID 0000.0001)                 8.674306976737517E+10,      /* I =653 */
(PID.TID 0000.0001)                 8.874277443041928E+10,      /* I =654 */
(PID.TID 0000.0001)                 9.008620045350865E+10,      /* I =655 */
(PID.TID 0000.0001)                 9.076111290418457E+10,      /* I =656 */
(PID.TID 0000.0001)                 9.076111290422060E+10,      /* I =657 */
(PID.TID 0000.0001)                 9.008620045354469E+10,      /* I =658 */
(PID.TID 0000.0001)                 8.874277443041928E+10,      /* I =659 */
(PID.TID 0000.0001)                 8.674306976741121E+10,      /* I =660 */
(PID.TID 0000.0001)                 8.410423102799828E+10,      /* I =661 */
(PID.TID 0000.0001)                 8.084683449728902E+10,      /* I =662 */
(PID.TID 0000.0001)                 7.699293007098555E+10,      /* I =663 */
(PID.TID 0000.0001)                 7.256353271748119E+10,      /* I =664 */
(PID.TID 0000.0001)                 6.757541173817516E+10,      /* I =665 */
(PID.TID 0000.0001)                 6.203683527772523E+10,      /* I =666 */
(PID.TID 0000.0001)                 5.594154126611156E+10,      /* I =667 */
(PID.TID 0000.0001)                 4.925938996118163E+10,      /* I =668 */
(PID.TID 0000.0001)                 4.192037169898667E+10,      /* I =669 */
(PID.TID 0000.0001)                 3.378518544304265E+10,      /* I =670 */
(PID.TID 0000.0001)                 2.459906945574446E+10,      /* I =671 */
(PID.TID 0000.0001)                 1.401900702259215E+10,      /* I =672 */
(PID.TID 0000.0001)                 7.256353271748119E+10,      /* I =673 */
(PID.TID 0000.0001)                 7.316560555603816E+10,      /* I =674 */
(PID.TID 0000.0001)                 7.432809861291336E+10,      /* I =675 */
(PID.TID 0000.0001)                 7.597507578906308E+10,      /* I =676 */
(PID.TID 0000.0001)                 7.800802871993619E+10,      /* I =677 */
(PID.TID 0000.0001)                 8.031792520226384E+10,      /* I =678 */
(PID.TID 0000.0001)                 8.279477205479343E+10,      /* I =679 */
(PID.TID 0000.0001)                 8.533379325707961E+10,      /* I =680 */
(PID.TID 0000.0001)                 8.783871201160951E+10,      /* I =681 */
(PID.TID 0000.0001)                 9.022313873522023E+10,      /* I =682 */
(PID.TID 0000.0001)                 9.241098780606058E+10,      /* I =683 */
(PID.TID 0000.0001)                 9.433654646922043E+10,      /* I =684 */
(PID.TID 0000.0001)                 9.594452469251483E+10,      /* I =685 */
(PID.TID 0000.0001)                 9.719020454870135E+10,      /* I =686 */
(PID.TID 0000.0001)                 9.803968493821149E+10,      /* I =687 */
(PID.TID 0000.0001)                 9.847017339810080E+10,      /* I =688 */
(PID.TID 0000.0001)                 9.847017339806476E+10,      /* I =689 */
(PID.TID 0000.0001)                 9.803968493821149E+10,      /* I =690 */
(PID.TID 0000.0001)                 9.719020454873740E+10,      /* I =691 */
(PID.TID 0000.0001)                 9.594452469255087E+10,      /* I =692 */
(PID.TID 0000.0001)                 9.433654646922043E+10,      /* I =693 */
(PID.TID 0000.0001)                 9.241098780606058E+10,      /* I =694 */
(PID.TID 0000.0001)                 9.022313873522023E+10,      /* I =695 */
(PID.TID 0000.0001)                 8.783871201160951E+10,      /* I =696 */
(PID.TID 0000.0001)                 8.533379325707961E+10,      /* I =697 */
(PID.TID 0000.0001)                 8.279477205479343E+10,      /* I =698 */
(PID.TID 0000.0001)                 8.031792520226384E+10,      /* I =699 */
(PID.TID 0000.0001)                 7.800802871997223E+10,      /* I =700 */
(PID.TID 0000.0001)                 7.597507578906308E+10,      /* I =701 */
(PID.TID 0000.0001)                 7.432809861298544E+10,      /* I =702 */
(PID.TID 0000.0001)                 7.316560555600214E+10,      /* I =703 */
(PID.TID 0000.0001)                 7.256353271748119E+10,      /* I =704 */
(PID.TID 0000.0001)                 9.076111290422060E+10,      /* I =705 */
(PID.TID 0000.0001)                 9.103111035233499E+10,      /* I =706 */
(PID.TID 0000.0001)                 9.156064070993231E+10,      /* I =707 */
(PID.TID 0000.0001)                 9.232920428260213E+10,      /* I =708 */
(PID.TID 0000.0001)                 9.330709899483766E+10,      /* I =709 */
(PID.TID 0000.0001)                 9.445660930090860E+10,      /* I =710 */
(PID.TID 0000.0001)                 9.573349030317511E+10,      /* I =711 */
(PID.TID 0000.0001)                 9.708868016530809E+10,      /* I =712 */
(PID.TID 0000.0001)                 9.847017339806476E+10,      /* I =713 */
(PID.TID 0000.0001)                 9.982498936271980E+10,      /* I =714 */
(PID.TID 0000.0001)                 1.011011716698855E+11,      /* I =715 */
(PID.TID 0000.0001)                 1.022497537646060E+11,      /* I =716 */
(PID.TID 0000.0001)                 1.032266241858423E+11,      /* I =717 */
(PID.TID 0000.0001)                 1.039942233001552E+11,      /* I =718 */
(PID.TID 0000.0001)                 1.045230037451501E+11,      /* I =719 */
(PID.TID 0000.0001)     2 @  1.047926024841940E+11,             /* I =720:721 */
(PID.TID 0000.0001)                 1.045230037451861E+11,      /* I =722 */
(PID.TID 0000.0001)                 1.039942233001552E+11,      /* I =723 */
(PID.TID 0000.0001)                 1.032266241858783E+11,      /* I =724 */
(PID.TID 0000.0001)                 1.022497537646060E+11,      /* I =725 */
(PID.TID 0000.0001)                 1.011011716699215E+11,      /* I =726 */
(PID.TID 0000.0001)                 9.982498936268376E+10,      /* I =727 */
(PID.TID 0000.0001)                 9.847017339806476E+10,      /* I =728 */
(PID.TID 0000.0001)                 9.708868016527205E+10,      /* I =729 */
(PID.TID 0000.0001)                 9.573349030313907E+10,      /* I =730 */
(PID.TID 0000.0001)                 9.445660930090860E+10,      /* I =731 */
(PID.TID 0000.0001)                 9.330709899483766E+10,      /* I =732 */
(PID.TID 0000.0001)                 9.232920428256609E+10,      /* I =733 */
(PID.TID 0000.0001)                 9.156064070993231E+10,      /* I =734 */
(PID.TID 0000.0001)                 9.103111035233499E+10,      /* I =735 */
(PID.TID 0000.0001)                 9.076111290418457E+10,      /* I =736 */
(PID.TID 0000.0001)                 6.757541173817516E+10,      /* I =737 */
(PID.TID 0000.0001)                 6.830648821282825E+10,      /* I =738 */
(PID.TID 0000.0001)                 6.970852823518779E+10,      /* I =739 */
(PID.TID 0000.0001)                 7.167505933266579E+10,      /* I =740 */
(PID.TID 0000.0001)                 7.407378391965518E+10,      /* I =741 */
(PID.TID 0000.0001)                 7.676559153402333E+10,      /* I =742 */
(PID.TID 0000.0001)                 7.961744142441241E+10,      /* I =743 */
(PID.TID 0000.0001)                 8.250883164798820E+10,      /* I =744 */
(PID.TID 0000.0001)                 8.533379325707961E+10,      /* I =745 */
(PID.TID 0000.0001)                 8.800057596473148E+10,      /* I =746 */
(PID.TID 0000.0001)                 9.043054958589890E+10,      /* I =747 */
(PID.TID 0000.0001)                 9.255713331733807E+10,      /* I =748 */
(PID.TID 0000.0001)                 9.432506641773729E+10,      /* I =749 */
(PID.TID 0000.0001)                 9.569005670076813E+10,      /* I =750 */
(PID.TID 0000.0001)                 9.661871769577347E+10,      /* I =751 */
(PID.TID 0000.0001)     2 @  9.708868016527205E+10,             /* I =752:753 */
(PID.TID 0000.0001)                 9.661871769577347E+10,      /* I =754 */
(PID.TID 0000.0001)                 9.569005670073209E+10,      /* I =755 */
(PID.TID 0000.0001)                 9.432506641773729E+10,      /* I =756 */
(PID.TID 0000.0001)                 9.255713331730203E+10,      /* I =757 */
(PID.TID 0000.0001)                 9.043054958589890E+10,      /* I =758 */
(PID.TID 0000.0001)                 8.800057596473148E+10,      /* I =759 */
(PID.TID 0000.0001)                 8.533379325707961E+10,      /* I =760 */
(PID.TID 0000.0001)                 8.250883164795216E+10,      /* I =761 */
(PID.TID 0000.0001)                 7.961744142437637E+10,      /* I =762 */
(PID.TID 0000.0001)                 7.676559153402333E+10,      /* I =763 */
(PID.TID 0000.0001)                 7.407378391965518E+10,      /* I =764 */
(PID.TID 0000.0001)                 7.167505933266579E+10,      /* I =765 */
(PID.TID 0000.0001)                 6.970852823515175E+10,      /* I =766 */
(PID.TID 0000.0001)                 6.830648821282825E+10,      /* I =767 */
(PID.TID 0000.0001)                 6.757541173817516E+10       /* I =768 */
(PID.TID 0000.0001)     ;
(PID.TID 0000.0001) rA  =  /* rA (1,:,1,:) ( units: m^2 ) */
(PID.TID 0000.0001)                 1.401900702255611E+10,      /* J =  1 */
(PID.TID 0000.0001)                 2.459906945574446E+10,      /* J =  2 */
(PID.TID 0000.0001)                 3.378518544307869E+10,      /* J =  3 */
(PID.TID 0000.0001)                 4.192037169898667E+10,      /* J =  4 */
(PID.TID 0000.0001)                 4.925938996118163E+10,      /* J =  5 */
(PID.TID 0000.0001)                 5.594154126607553E+10,      /* J =  6 */
(PID.TID 0000.0001)                 6.203683527776127E+10,      /* J =  7 */
(PID.TID 0000.0001)                 6.757541173817516E+10       /* J =  8 */
(PID.TID 0000.0001)     ;
(PID.TID 0000.0001) rAw =  /* rAw(:,1,:,1) ( units: m^2 ) */
(PID.TID 0000.0001)                 1.216690346714270E+10,      /* I =  1 */
(PID.TID 0000.0001)                 1.974052138506315E+10,      /* I =  2 */
(PID.TID 0000.0001)                 2.943712825252015E+10,      /* I =  3 */
(PID.TID 0000.0001)                 3.801790263324359E+10,      /* I =  4 */
(PID.TID 0000.0001)                 4.571243814189866E+10,      /* I =  5 */
(PID.TID 0000.0001)                 5.269930713599979E+10,      /* I =  6 */
(PID.TID 0000.0001)                 5.907428494299063E+10,      /* I =  7 */
(PID.TID 0000.0001)                 6.488320895111514E+10,      /* I =  8 */
(PID.TID 0000.0001)                 7.014205907741882E+10,      /* I =  9 */
(PID.TID 0000.0001)                 7.484854821847499E+10,      /* I = 10 */
(PID.TID 0000.0001)                 7.898934631431560E+10,      /* I = 11 */
(PID.TID 0000.0001)                 8.254500894894537E+10,      /* I = 12 */
(PID.TID 0000.0001)                 8.549360686473492E+10,      /* I = 13 */
(PID.TID 0000.0001)                 8.781353403175085E+10,      /* I = 14 */
(PID.TID 0000.0001)                 8.948571540392021E+10,      /* I = 15 */
(PID.TID 0000.0001)                 9.049530583086168E+10,      /* I = 16 */
(PID.TID 0000.0001)                 9.083293515008307E+10,      /* I = 17 */
(PID.TID 0000.0001)                 9.049530583087070E+10,      /* I = 18 */
(PID.TID 0000.0001)                 8.948571540391121E+10,      /* I = 19 */
(PID.TID 0000.0001)                 8.781353403174185E+10,      /* I = 20 */
(PID.TID 0000.0001)                 8.549360686467184E+10,      /* I = 21 */
(PID.TID 0000.0001)                 8.254500894890933E+10,      /* I = 22 */
(PID.TID 0000.0001)                 7.898934631434262E+10,      /* I = 23 */
(PID.TID 0000.0001)                 7.484854821844795E+10,      /* I = 24 */
(PID.TID 0000.0001)                 7.014205907742783E+10,      /* I = 25 */
(PID.TID 0000.0001)                 6.488320895111514E+10,      /* I = 26 */
(PID.TID 0000.0001)                 5.907428494299063E+10,      /* I = 27 */
(PID.TID 0000.0001)                 5.269930713599078E+10,      /* I = 28 */
(PID.TID 0000.0001)                 4.571243814190767E+10,      /* I = 29 */
(PID.TID 0000.0001)                 3.801790263325260E+10,      /* I = 30 */
(PID.TID 0000.0001)                 2.943712825251114E+10,      /* I = 31 */
(PID.TID 0000.0001)                 1.974052138509018E+10,      /* I = 32 */
(PID.TID 0000.0001)                 7.248875782324815E+10,      /* I = 33 */
(PID.TID 0000.0001)                 7.279231679399365E+10,      /* I = 34 */
(PID.TID 0000.0001)                 7.368167655649474E+10,      /* I = 35 */
(PID.TID 0000.0001)                 7.509678831847641E+10,      /* I = 36 */
(PID.TID 0000.0001)                 7.694890654165292E+10,      /* I = 37 */
(PID.TID 0000.0001)                 7.913292536892735E+10,      /* I = 38 */
(PID.TID 0000.0001)                 8.153840828108624E+10,      /* I = 39 */
(PID.TID 0000.0001)                 8.405745909920529E+10,      /* I = 40 */
(PID.TID 0000.0001)                 8.658933893113814E+10,      /* I = 41 */
(PID.TID 0000.0001)                 8.904267216287007E+10,      /* I = 42 */
(PID.TID 0000.0001)                 9.133625108440211E+10,      /* I = 43 */
(PID.TID 0000.0001)                 9.339922083542212E+10,      /* I = 44 */
(PID.TID 0000.0001)                 9.517111234598198E+10,      /* I = 45 */
(PID.TID 0000.0001)                 9.660193530171867E+10,      /* I = 46 */
(PID.TID 0000.0001)                 9.765237883413150E+10,      /* I = 47 */
(PID.TID 0000.0001)                 9.829408090567543E+10,      /* I = 48 */
(PID.TID 0000.0001)                 9.850992024629108E+10,      /* I = 49 */
(PID.TID 0000.0001)                 9.829408090566643E+10,      /* I = 50 */
(PID.TID 0000.0001)                 9.765237883417654E+10,      /* I = 51 */
(PID.TID 0000.0001)                 9.660193530170966E+10,      /* I = 52 */
(PID.TID 0000.0001)                 9.517111234598198E+10,      /* I = 53 */
(PID.TID 0000.0001)                 9.339922083542212E+10,      /* I = 54 */
(PID.TID 0000.0001)                 9.133625108442915E+10,      /* I = 55 */
(PID.TID 0000.0001)                 8.904267216284305E+10,      /* I = 56 */
(PID.TID 0000.0001)                 8.658933893111111E+10,      /* I = 57 */
(PID.TID 0000.0001)                 8.405745909919627E+10,      /* I = 58 */
(PID.TID 0000.0001)                 8.153840828111327E+10,      /* I = 59 */
(PID.TID 0000.0001)                 7.913292536890033E+10,      /* I = 60 */
(PID.TID 0000.0001)                 7.694890654164391E+10,      /* I = 61 */
(PID.TID 0000.0001)                 7.509678831851245E+10,      /* I = 62 */
(PID.TID 0000.0001)                 7.368167655646770E+10,      /* I = 63 */
(PID.TID 0000.0001)                 7.279231679395761E+10,      /* I = 64 */
(PID.TID 0000.0001)                 9.071447638299399E+10,      /* I = 65 */
(PID.TID 0000.0001)                 9.085012105610597E+10,      /* I = 66 */
(PID.TID 0000.0001)                 9.125179254955583E+10,      /* I = 67 */
(PID.TID 0000.0001)                 9.190392048045309E+10,      /* I = 68 */
(PID.TID 0000.0001)                 9.278126467409492E+10,      /* I = 69 */
(PID.TID 0000.0001)                 9.384993610263170E+10,      /* I = 70 */
(PID.TID 0000.0001)                 9.506874487174457E+10,      /* I = 71 */
(PID.TID 0000.0001)                 9.639080978465117E+10,      /* I = 72 */
(PID.TID 0000.0001)                 9.776536132335065E+10,      /* I = 73 */
(PID.TID 0000.0001)                 9.913967116446748E+10,      /* I = 74 */
(PID.TID 0000.0001)                 1.004610434085146E+11,      /* I = 75 */
(PID.TID 0000.0001)                 1.016788034168886E+11,      /* I = 76 */
(PID.TID 0000.0001)                 1.027462190489479E+11,      /* I = 77 */
(PID.TID 0000.0001)                 1.036222871661027E+11,      /* I = 78 */
(PID.TID 0000.0001)                 1.042733173971964E+11,      /* I = 79 */
(PID.TID 0000.0001)                 1.046742473574501E+11,      /* I = 80 */
(PID.TID 0000.0001)                 1.048096527455915E+11,      /* I = 81 */
(PID.TID 0000.0001)                 1.046742473574591E+11,      /* I = 82 */
(PID.TID 0000.0001)                 1.042733173971784E+11,      /* I = 83 */
(PID.TID 0000.0001)                 1.036222871660937E+11,      /* I = 84 */
(PID.TID 0000.0001)                 1.027462190489479E+11,      /* I = 85 */
(PID.TID 0000.0001)                 1.016788034168886E+11,      /* I = 86 */
(PID.TID 0000.0001)                 1.004610434084966E+11,      /* I = 87 */
(PID.TID 0000.0001)                 9.913967116446748E+10,      /* I = 88 */
(PID.TID 0000.0001)                 9.776536132332361E+10,      /* I = 89 */
(PID.TID 0000.0001)                 9.639080978466919E+10,      /* I = 90 */
(PID.TID 0000.0001)                 9.506874487171754E+10,      /* I = 91 */
(PID.TID 0000.0001)                 9.384993610260466E+10,      /* I = 92 */
(PID.TID 0000.0001)                 9.278126467408592E+10,      /* I = 93 */
(PID.TID 0000.0001)                 9.190392048045309E+10,      /* I = 94 */
(PID.TID 0000.0001)                 9.125179254954683E+10,      /* I = 95 */
(PID.TID 0000.0001)                 9.085012105606993E+10,      /* I = 96 */
(PID.TID 0000.0001)                 6.748840226738273E+10,      /* I = 97 */
(PID.TID 0000.0001)                 6.785762228965186E+10,      /* I = 98 */
(PID.TID 0000.0001)                 6.893429052929407E+10,      /* I = 99 */
(PID.TID 0000.0001)                 7.063282762453648E+10,      /* I =100 */
(PID.TID 0000.0001)                 7.283130776162505E+10,      /* I =101 */
(PID.TID 0000.0001)                 7.539208669246643E+10,      /* I =102 */
(PID.TID 0000.0001)                 7.817800519391208E+10,      /* I =103 */
(PID.TID 0000.0001)                 8.106189722872533E+10,      /* I =104 */
(PID.TID 0000.0001)                 8.393053257714168E+10,      /* I =105 */
(PID.TID 0000.0001)                 8.668522207917874E+10,      /* I =106 */
(PID.TID 0000.0001)                 8.924097252669591E+10,      /* I =107 */
(PID.TID 0000.0001)                 9.152533954246133E+10,      /* I =108 */
(PID.TID 0000.0001)                 9.347751054428943E+10,      /* I =109 */
(PID.TID 0000.0001)                 9.504776953558653E+10,      /* I =110 */
(PID.TID 0000.0001)                 9.619730346663052E+10,      /* I =111 */
(PID.TID 0000.0001)                 9.689823457954172E+10,      /* I =112 */
(PID.TID 0000.0001)                 9.713377776174072E+10,      /* I =113 */
(PID.TID 0000.0001)                 9.689823457951468E+10,      /* I =114 */
(PID.TID 0000.0001)                 9.619730346663052E+10,      /* I =115 */
(PID.TID 0000.0001)                 9.504776953557753E+10,      /* I =116 */
(PID.TID 0000.0001)                 9.347751054425339E+10,      /* I =117 */
(PID.TID 0000.0001)                 9.152533954245232E+10,      /* I =118 */
(PID.TID 0000.0001)                 8.924097252668690E+10,      /* I =119 */
(PID.TID 0000.0001)                 8.668522207915172E+10,      /* I =120 */
(PID.TID 0000.0001)                 8.393053257718672E+10,      /* I =121 */
(PID.TID 0000.0001)                 8.106189722871632E+10,      /* I =122 */
(PID.TID 0000.0001)                 7.817800519388504E+10,      /* I =123 */
(PID.TID 0000.0001)                 7.539208669248445E+10,      /* I =124 */
(PID.TID 0000.0001)                 7.283130776157999E+10,      /* I =125 */
(PID.TID 0000.0001)                 7.063282762452747E+10,      /* I =126 */
(PID.TID 0000.0001)                 6.893429052933911E+10,      /* I =127 */
(PID.TID 0000.0001)                 6.785762228965186E+10,      /* I =128 */
(PID.TID 0000.0001)                 1.216690346714270E+10,      /* I =129 */
(PID.TID 0000.0001)                 1.974052138506315E+10,      /* I =130 */
(PID.TID 0000.0001)                 2.943712825252015E+10,      /* I =131 */
(PID.TID 0000.0001)                 3.801790263324359E+10,      /* I =132 */
(PID.TID 0000.0001)                 4.571243814189866E+10,      /* I =133 */
(PID.TID 0000.0001)                 5.269930713599979E+10,      /* I =134 */
(PID.TID 0000.0001)                 5.907428494299063E+10,      /* I =135 */
(PID.TID 0000.0001)                 6.488320895111514E+10,      /* I =136 */
(PID.TID 0000.0001)                 7.014205907741882E+10,      /* I =137 */
(PID.TID 0000.0001)                 7.484854821847499E+10,      /* I =138 */
(PID.TID 0000.0001)                 7.898934631431560E+10,      /* I =139 */
(PID.TID 0000.0001)                 8.254500894894537E+10,      /* I =140 */
(PID.TID 0000.0001)                 8.549360686473492E+10,      /* I =141 */
(PID.TID 0000.0001)                 8.781353403175085E+10,      /* I =142 */
(PID.TID 0000.0001)                 8.948571540392021E+10,      /* I =143 */
(PID.TID 0000.0001)                 9.049530583086168E+10,      /* I =144 */
(PID.TID 0000.0001)                 9.083293515008307E+10,      /* I =145 */
(PID.TID 0000.0001)                 9.049530583087070E+10,      /* I =146 */
(PID.TID 0000.0001)                 8.948571540391121E+10,      /* I =147 */
(PID.TID 0000.0001)                 8.781353403174185E+10,      /* I =148 */
(PID.TID 0000.0001)                 8.549360686467184E+10,      /* I =149 */
(PID.TID 0000.0001)                 8.254500894890933E+10,      /* I =150 */
(PID.TID 0000.0001)                 7.898934631434262E+10,      /* I =151 */
(PID.TID 0000.0001)                 7.484854821844795E+10,      /* I =152 */
(PID.TID 0000.0001)                 7.014205907742783E+10,      /* I =153 */
(PID.TID 0000.0001)                 6.488320895111514E+10,      /* I =154 */
(PID.TID 0000.0001)                 5.907428494299063E+10,      /* I =155 */
(PID.TID 0000.0001)                 5.269930713599078E+10,      /* I =156 */
(PID.TID 0000.0001)                 4.571243814190767E+10,      /* I =157 */
(PID.TID 0000.0001)                 3.801790263325260E+10,      /* I =158 */
(PID.TID 0000.0001)                 2.943712825251114E+10,      /* I =159 */
(PID.TID 0000.0001)                 1.974052138509018E+10,      /* I =160 */
(PID.TID 0000.0001)                 7.248875782324815E+10,      /* I =161 */
(PID.TID 0000.0001)                 7.279231679399365E+10,      /* I =162 */
(PID.TID 0000.0001)                 7.368167655649474E+10,      /* I =163 */
(PID.TID 0000.0001)                 7.509678831847641E+10,      /* I =164 */
(PID.TID 0000.0001)                 7.694890654165292E+10,      /* I =165 */
(PID.TID 0000.0001)                 7.913292536892735E+10,      /* I =166 */
(PID.TID 0000.0001)                 8.153840828108624E+10,      /* I =167 */
(PID.TID 0000.0001)                 8.405745909920529E+10,      /* I =168 */
(PID.TID 0000.0001)                 8.658933893113814E+10,      /* I =169 */
(PID.TID 0000.0001)                 8.904267216287007E+10,      /* I =170 */
(PID.TID 0000.0001)                 9.133625108440211E+10,      /* I =171 */
(PID.TID 0000.0001)                 9.339922083542212E+10,      /* I =172 */
(PID.TID 0000.0001)                 9.517111234598198E+10,      /* I =173 */
(PID.TID 0000.0001)                 9.660193530171867E+10,      /* I =174 */
(PID.TID 0000.0001)                 9.765237883413150E+10,      /* I =175 */
(PID.TID 0000.0001)                 9.829408090567543E+10,      /* I =176 */
(PID.TID 0000.0001)                 9.850992024629108E+10,      /* I =177 */
(PID.TID 0000.0001)                 9.829408090566643E+10,      /* I =178 */
(PID.TID 0000.0001)                 9.765237883417654E+10,      /* I =179 */
(PID.TID 0000.0001)                 9.660193530170966E+10,      /* I =180 */
(PID.TID 0000.0001)                 9.517111234598198E+10,      /* I =181 */
(PID.TID 0000.0001)                 9.339922083542212E+10,      /* I =182 */
(PID.TID 0000.0001)                 9.133625108442915E+10,      /* I =183 */
(PID.TID 0000.0001)                 8.904267216284305E+10,      /* I =184 */
(PID.TID 0000.0001)                 8.658933893111111E+10,      /* I =185 */
(PID.TID 0000.0001)                 8.405745909919627E+10,      /* I =186 */
(PID.TID 0000.0001)                 8.153840828111327E+10,      /* I =187 */
(PID.TID 0000.0001)                 7.913292536890033E+10,      /* I =188 */
(PID.TID 0000.0001)                 7.694890654164391E+10,      /* I =189 */
(PID.TID 0000.0001)                 7.509678831851245E+10,      /* I =190 */
(PID.TID 0000.0001)                 7.368167655646770E+10,      /* I =191 */
(PID.TID 0000.0001)                 7.279231679395761E+10,      /* I =192 */
(PID.TID 0000.0001)                 9.071447638299399E+10,      /* I =193 */
(PID.TID 0000.0001)                 9.085012105610597E+10,      /* I =194 */
(PID.TID 0000.0001)                 9.125179254955583E+10,      /* I =195 */
(PID.TID 0000.0001)                 9.190392048045309E+10,      /* I =196 */
(PID.TID 0000.0001)                 9.278126467409492E+10,      /* I =197 */
(PID.TID 0000.0001)                 9.384993610263170E+10,      /* I =198 */
(PID.TID 0000.0001)                 9.506874487174457E+10,      /* I =199 */
(PID.TID 0000.0001)                 9.639080978465117E+10,      /* I =200 */
(PID.TID 0000.0001)                 9.776536132335065E+10,      /* I =201 */
(PID.TID 0000.0001)                 9.913967116446748E+10,      /* I =202 */
(PID.TID 0000.0001)                 1.004610434085146E+11,      /* I =203 */
(PID.TID 0000.0001)                 1.016788034168886E+11,      /* I =204 */
(PID.TID 0000.0001)                 1.027462190489479E+11,      /* I =205 */
(PID.TID 0000.0001)                 1.036222871661027E+11,      /* I =206 */
(PID.TID 0000.0001)                 1.042733173971964E+11,      /* I =207 */
(PID.TID 0000.0001)                 1.046742473574501E+11,      /* I =208 */
(PID.TID 0000.0001)                 1.048096527455915E+11,      /* I =209 */
(PID.TID 0000.0001)                 1.046742473574591E+11,      /* I =210 */
(PID.TID 0000.0001)                 1.042733173971784E+11,      /* I =211 */
(PID.TID 0000.0001)                 1.036222871660937E+11,      /* I =212 */
(PID.TID 0000.0001)                 1.027462190489479E+11,      /* I =213 */
(PID.TID 0000.0001)                 1.016788034168886E+11,      /* I =214 */
(PID.TID 0000.0001)                 1.004610434084966E+11,      /* I =215 */
(PID.TID 0000.0001)                 9.913967116446748E+10,      /* I =216 */
(PID.TID 0000.0001)                 9.776536132332361E+10,      /* I =217 */
(PID.TID 0000.0001)                 9.639080978466919E+10,      /* I =218 */
(PID.TID 0000.0001)                 9.506874487171754E+10,      /* I =219 */
(PID.TID 0000.0001)                 9.384993610260466E+10,      /* I =220 */
(PID.TID 0000.0001)                 9.278126467408592E+10,      /* I =221 */
(PID.TID 0000.0001)                 9.190392048045309E+10,      /* I =222 */
(PID.TID 0000.0001)                 9.125179254954683E+10,      /* I =223 */
(PID.TID 0000.0001)                 9.085012105606993E+10,      /* I =224 */
(PID.TID 0000.0001)                 6.748840226738273E+10,      /* I =225 */
(PID.TID 0000.0001)                 6.785762228965186E+10,      /* I =226 */
(PID.TID 0000.0001)                 6.893429052929407E+10,      /* I =227 */
(PID.TID 0000.0001)                 7.063282762453648E+10,      /* I =228 */
(PID.TID 0000.0001)                 7.283130776162505E+10,      /* I =229 */
(PID.TID 0000.0001)                 7.539208669246643E+10,      /* I =230 */
(PID.TID 0000.0001)                 7.817800519391208E+10,      /* I =231 */
(PID.TID 0000.0001)                 8.106189722872533E+10,      /* I =232 */
(PID.TID 0000.0001)                 8.393053257714168E+10,      /* I =233 */
(PID.TID 0000.0001)                 8.668522207917874E+10,      /* I =234 */
(PID.TID 0000.0001)                 8.924097252669591E+10,      /* I =235 */
(PID.TID 0000.0001)                 9.152533954246133E+10,      /* I =236 */
(PID.TID 0000.0001)                 9.347751054428943E+10,      /* I =237 */
(PID.TID 0000.0001)                 9.504776953558653E+10,      /* I =238 */
(PID.TID 0000.0001)                 9.619730346663052E+10,      /* I =239 */
(PID.TID 0000.0001)                 9.689823457954172E+10,      /* I =240 */
(PID.TID 0000.0001)                 9.713377776174072E+10,      /* I =241 */
(PID.TID 0000.0001)                 9.689823457951468E+10,      /* I =242 */
(PID.TID 0000.0001)                 9.619730346663052E+10,      /* I =243 */
(PID.TID 0000.0001)                 9.504776953557753E+10,      /* I =244 */
(PID.TID 0000.0001)                 9.347751054425339E+10,      /* I =245 */
(PID.TID 0000.0001)                 9.152533954245232E+10,      /* I =246 */
(PID.TID 0000.0001)                 8.924097252668690E+10,      /* I =247 */
(PID.TID 0000.0001)                 8.668522207915172E+10,      /* I =248 */
(PID.TID 0000.0001)                 8.393053257718672E+10,      /* I =249 */
(PID.TID 0000.0001)                 8.106189722871632E+10,      /* I =250 */
(PID.TID 0000.0001)                 7.817800519388504E+10,      /* I =251 */
(PID.TID 0000.0001)                 7.539208669248445E+10,      /* I =252 */
(PID.TID 0000.0001)                 7.283130776157999E+10,      /* I =253 */
(PID.TID 0000.0001)                 7.063282762452747E+10,      /* I =254 */
(PID.TID 0000.0001)                 6.893429052933911E+10,      /* I =255 */
(PID.TID 0000.0001)                 6.785762228965186E+10,      /* I =256 */
(PID.TID 0000.0001)                 1.216690346714270E+10,      /* I =257 */
(PID.TID 0000.0001)                 1.974052138506315E+10,      /* I =258 */
(PID.TID 0000.0001)                 2.943712825252015E+10,      /* I =259 */
(PID.TID 0000.0001)                 3.801790263324359E+10,      /* I =260 */
(PID.TID 0000.0001)                 4.571243814189866E+10,      /* I =261 */
(PID.TID 0000.0001)                 5.269930713599979E+10,      /* I =262 */
(PID.TID 0000.0001)                 5.907428494299063E+10,      /* I =263 */
(PID.TID 0000.0001)                 6.488320895111514E+10,      /* I =264 */
(PID.TID 0000.0001)                 7.014205907741882E+10,      /* I =265 */
(PID.TID 0000.0001)                 7.484854821847499E+10,      /* I =266 */
(PID.TID 0000.0001)                 7.898934631431560E+10,      /* I =267 */
(PID.TID 0000.0001)                 8.254500894894537E+10,      /* I =268 */
(PID.TID 0000.0001)                 8.549360686473492E+10,      /* I =269 */
(PID.TID 0000.0001)                 8.781353403175085E+10,      /* I =270 */
(PID.TID 0000.0001)                 8.948571540392021E+10,      /* I =271 */
(PID.TID 0000.0001)                 9.049530583086168E+10,      /* I =272 */
(PID.TID 0000.0001)                 9.083293515008307E+10,      /* I =273 */
(PID.TID 0000.0001)                 9.049530583087070E+10,      /* I =274 */
(PID.TID 0000.0001)                 8.948571540391121E+10,      /* I =275 */
(PID.TID 0000.0001)                 8.781353403174185E+10,      /* I =276 */
(PID.TID 0000.0001)                 8.549360686467184E+10,      /* I =277 */
(PID.TID 0000.0001)                 8.254500894890933E+10,      /* I =278 */
(PID.TID 0000.0001)                 7.898934631434262E+10,      /* I =279 */
(PID.TID 0000.0001)                 7.484854821844795E+10,      /* I =280 */
(PID.TID 0000.0001)                 7.014205907742783E+10,      /* I =281 */
(PID.TID 0000.0001)                 6.488320895111514E+10,      /* I =282 */
(PID.TID 0000.0001)                 5.907428494299063E+10,      /* I =283 */
(PID.TID 0000.0001)                 5.269930713599078E+10,      /* I =284 */
(PID.TID 0000.0001)                 4.571243814190767E+10,      /* I =285 */
(PID.TID 0000.0001)                 3.801790263325260E+10,      /* I =286 */
(PID.TID 0000.0001)                 2.943712825251114E+10,      /* I =287 */
(PID.TID 0000.0001)                 1.974052138509018E+10,      /* I =288 */
(PID.TID 0000.0001)                 7.248875782324815E+10,      /* I =289 */
(PID.TID 0000.0001)                 7.279231679399365E+10,      /* I =290 */
(PID.TID 0000.0001)                 7.368167655649474E+10,      /* I =291 */
(PID.TID 0000.0001)                 7.509678831847641E+10,      /* I =292 */
(PID.TID 0000.0001)                 7.694890654165292E+10,      /* I =293 */
(PID.TID 0000.0001)                 7.913292536892735E+10,      /* I =294 */
(PID.TID 0000.0001)                 8.153840828108624E+10,      /* I =295 */
(PID.TID 0000.0001)                 8.405745909920529E+10,      /* I =296 */
(PID.TID 0000.0001)                 8.658933893113814E+10,      /* I =297 */
(PID.TID 0000.0001)                 8.904267216287007E+10,      /* I =298 */
(PID.TID 0000.0001)                 9.133625108440211E+10,      /* I =299 */
(PID.TID 0000.0001)                 9.339922083542212E+10,      /* I =300 */
(PID.TID 0000.0001)                 9.517111234598198E+10,      /* I =301 */
(PID.TID 0000.0001)                 9.660193530171867E+10,      /* I =302 */
(PID.TID 0000.0001)                 9.765237883413150E+10,      /* I =303 */
(PID.TID 0000.0001)                 9.829408090567543E+10,      /* I =304 */
(PID.TID 0000.0001)                 9.850992024629108E+10,      /* I =305 */
(PID.TID 0000.0001)                 9.829408090566643E+10,      /* I =306 */
(PID.TID 0000.0001)                 9.765237883417654E+10,      /* I =307 */
(PID.TID 0000.0001)                 9.660193530170966E+10,      /* I =308 */
(PID.TID 0000.0001)                 9.517111234598198E+10,      /* I =309 */
(PID.TID 0000.0001)                 9.339922083542212E+10,      /* I =310 */
(PID.TID 0000.0001)                 9.133625108442915E+10,      /* I =311 */
(PID.TID 0000.0001)                 8.904267216284305E+10,      /* I =312 */
(PID.TID 0000.0001)                 8.658933893111111E+10,      /* I =313 */
(PID.TID 0000.0001)                 8.405745909919627E+10,      /* I =314 */
(PID.TID 0000.0001)                 8.153840828111327E+10,      /* I =315 */
(PID.TID 0000.0001)                 7.913292536890033E+10,      /* I =316 */
(PID.TID 0000.0001)                 7.694890654164391E+10,      /* I =317 */
(PID.TID 0000.0001)                 7.509678831851245E+10,      /* I =318 */
(PID.TID 0000.0001)                 7.368167655646770E+10,      /* I =319 */
(PID.TID 0000.0001)                 7.279231679395761E+10,      /* I =320 */
(PID.TID 0000.0001)                 9.071447638299399E+10,      /* I =321 */
(PID.TID 0000.0001)                 9.085012105610597E+10,      /* I =322 */
(PID.TID 0000.0001)                 9.125179254955583E+10,      /* I =323 */
(PID.TID 0000.0001)                 9.190392048045309E+10,      /* I =324 */
(PID.TID 0000.0001)                 9.278126467409492E+10,      /* I =325 */
(PID.TID 0000.0001)                 9.384993610263170E+10,      /* I =326 */
(PID.TID 0000.0001)                 9.506874487174457E+10,      /* I =327 */
(PID.TID 0000.0001)                 9.639080978465117E+10,      /* I =328 */
(PID.TID 0000.0001)                 9.776536132335065E+10,      /* I =329 */
(PID.TID 0000.0001)                 9.913967116446748E+10,      /* I =330 */
(PID.TID 0000.0001)                 1.004610434085146E+11,      /* I =331 */
(PID.TID 0000.0001)                 1.016788034168886E+11,      /* I =332 */
(PID.TID 0000.0001)                 1.027462190489479E+11,      /* I =333 */
(PID.TID 0000.0001)                 1.036222871661027E+11,      /* I =334 */
(PID.TID 0000.0001)                 1.042733173971964E+11,      /* I =335 */
(PID.TID 0000.0001)                 1.046742473574501E+11,      /* I =336 */
(PID.TID 0000.0001)                 1.048096527455915E+11,      /* I =337 */
(PID.TID 0000.0001)                 1.046742473574591E+11,      /* I =338 */
(PID.TID 0000.0001)                 1.042733173971784E+11,      /* I =339 */
(PID.TID 0000.0001)                 1.036222871660937E+11,      /* I =340 */
(PID.TID 0000.0001)                 1.027462190489479E+11,      /* I =341 */
(PID.TID 0000.0001)                 1.016788034168886E+11,      /* I =342 */
(PID.TID 0000.0001)                 1.004610434084966E+11,      /* I =343 */
(PID.TID 0000.0001)                 9.913967116446748E+10,      /* I =344 */
(PID.TID 0000.0001)                 9.776536132332361E+10,      /* I =345 */
(PID.TID 0000.0001)                 9.639080978466919E+10,      /* I =346 */
(PID.TID 0000.0001)                 9.506874487171754E+10,      /* I =347 */
(PID.TID 0000.0001)                 9.384993610260466E+10,      /* I =348 */
(PID.TID 0000.0001)                 9.278126467408592E+10,      /* I =349 */
(PID.TID 0000.0001)                 9.190392048045309E+10,      /* I =350 */
(PID.TID 0000.0001)                 9.125179254954683E+10,      /* I =351 */
(PID.TID 0000.0001)                 9.085012105606993E+10,      /* I =352 */
(PID.TID 0000.0001)                 6.748840226738273E+10,      /* I =353 */
(PID.TID 0000.0001)                 6.785762228965186E+10,      /* I =354 */
(PID.TID 0000.0001)                 6.893429052929407E+10,      /* I =355 */
(PID.TID 0000.0001)                 7.063282762453648E+10,      /* I =356 */
(PID.TID 0000.0001)                 7.283130776162505E+10,      /* I =357 */
(PID.TID 0000.0001)                 7.539208669246643E+10,      /* I =358 */
(PID.TID 0000.0001)                 7.817800519391208E+10,      /* I =359 */
(PID.TID 0000.0001)                 8.106189722872533E+10,      /* I =360 */
(PID.TID 0000.0001)                 8.393053257714168E+10,      /* I =361 */
(PID.TID 0000.0001)                 8.668522207917874E+10,      /* I =362 */
(PID.TID 0000.0001)                 8.924097252669591E+10,      /* I =363 */
(PID.TID 0000.0001)                 9.152533954246133E+10,      /* I =364 */
(PID.TID 0000.0001)                 9.347751054428943E+10,      /* I =365 */
(PID.TID 0000.0001)                 9.504776953558653E+10,      /* I =366 */
(PID.TID 0000.0001)                 9.619730346663052E+10,      /* I =367 */
(PID.TID 0000.0001)                 9.689823457954172E+10,      /* I =368 */
(PID.TID 0000.0001)                 9.713377776174072E+10,      /* I =369 */
(PID.TID 0000.0001)                 9.689823457951468E+10,      /* I =370 */
(PID.TID 0000.0001)                 9.619730346663052E+10,      /* I =371 */
(PID.TID 0000.0001)                 9.504776953557753E+10,      /* I =372 */
(PID.TID 0000.0001)                 9.347751054425339E+10,      /* I =373 */
(PID.TID 0000.0001)                 9.152533954245232E+10,      /* I =374 */
(PID.TID 0000.0001)                 8.924097252668690E+10,      /* I =375 */
(PID.TID 0000.0001)                 8.668522207915172E+10,      /* I =376 */
(PID.TID 0000.0001)                 8.393053257718672E+10,      /* I =377 */
(PID.TID 0000.0001)                 8.106189722871632E+10,      /* I =378 */
(PID.TID 0000.0001)                 7.817800519388504E+10,      /* I =379 */
(PID.TID 0000.0001)                 7.539208669248445E+10,      /* I =380 */
(PID.TID 0000.0001)                 7.283130776157999E+10,      /* I =381 */
(PID.TID 0000.0001)                 7.063282762452747E+10,      /* I =382 */
(PID.TID 0000.0001)                 6.893429052933911E+10,      /* I =383 */
(PID.TID 0000.0001)                 6.785762228965186E+10,      /* I =384 */
(PID.TID 0000.0001)                 1.216690346714270E+10,      /* I =385 */
(PID.TID 0000.0001)                 1.974052138506315E+10,      /* I =386 */
(PID.TID 0000.0001)                 2.943712825252015E+10,      /* I =387 */
(PID.TID 0000.0001)                 3.801790263324359E+10,      /* I =388 */
(PID.TID 0000.0001)                 4.571243814189866E+10,      /* I =389 */
(PID.TID 0000.0001)                 5.269930713599979E+10,      /* I =390 */
(PID.TID 0000.0001)                 5.907428494299063E+10,      /* I =391 */
(PID.TID 0000.0001)                 6.488320895111514E+10,      /* I =392 */
(PID.TID 0000.0001)                 7.014205907741882E+10,      /* I =393 */
(PID.TID 0000.0001)                 7.484854821847499E+10,      /* I =394 */
(PID.TID 0000.0001)                 7.898934631431560E+10,      /* I =395 */
(PID.TID 0000.0001)                 8.254500894894537E+10,      /* I =396 */
(PID.TID 0000.0001)                 8.549360686473492E+10,      /* I =397 */
(PID.TID 0000.0001)                 8.781353403175085E+10,      /* I =398 */
(PID.TID 0000.0001)                 8.948571540392021E+10,      /* I =399 */
(PID.TID 0000.0001)                 9.049530583086168E+10,      /* I =400 */
(PID.TID 0000.0001)                 9.083293515008307E+10,      /* I =401 */
(PID.TID 0000.0001)                 9.049530583087070E+10,      /* I =402 */
(PID.TID 0000.0001)                 8.948571540391121E+10,      /* I =403 */
(PID.TID 0000.0001)                 8.781353403174185E+10,      /* I =404 */
(PID.TID 0000.0001)                 8.549360686467184E+10,      /* I =405 */
(PID.TID 0000.0001)                 8.254500894890933E+10,      /* I =406 */
(PID.TID 0000.0001)                 7.898934631434262E+10,      /* I =407 */
(PID.TID 0000.0001)                 7.484854821844795E+10,      /* I =408 */
(PID.TID 0000.0001)                 7.014205907742783E+10,      /* I =409 */
(PID.TID 0000.0001)                 6.488320895111514E+10,      /* I =410 */
(PID.TID 0000.0001)                 5.907428494299063E+10,      /* I =411 */
(PID.TID 0000.0001)                 5.269930713599078E+10,      /* I =412 */
(PID.TID 0000.0001)                 4.571243814190767E+10,      /* I =413 */
(PID.TID 0000.0001)                 3.801790263325260E+10,      /* I =414 */
(PID.TID 0000.0001)                 2.943712825251114E+10,      /* I =415 */
(PID.TID 0000.0001)                 1.974052138509018E+10,      /* I =416 */
(PID.TID 0000.0001)                 7.248875782324815E+10,      /* I =417 */
(PID.TID 0000.0001)                 7.279231679399365E+10,      /* I =418 */
(PID.TID 0000.0001)                 7.368167655649474E+10,      /* I =419 */
(PID.TID 0000.0001)                 7.509678831847641E+10,      /* I =420 */
(PID.TID 0000.0001)                 7.694890654165292E+10,      /* I =421 */
(PID.TID 0000.0001)                 7.913292536892735E+10,      /* I =422 */
(PID.TID 0000.0001)                 8.153840828108624E+10,      /* I =423 */
(PID.TID 0000.0001)                 8.405745909920529E+10,      /* I =424 */
(PID.TID 0000.0001)                 8.658933893113814E+10,      /* I =425 */
(PID.TID 0000.0001)                 8.904267216287007E+10,      /* I =426 */
(PID.TID 0000.0001)                 9.133625108440211E+10,      /* I =427 */
(PID.TID 0000.0001)                 9.339922083542212E+10,      /* I =428 */
(PID.TID 0000.0001)                 9.517111234598198E+10,      /* I =429 */
(PID.TID 0000.0001)                 9.660193530171867E+10,      /* I =430 */
(PID.TID 0000.0001)                 9.765237883413150E+10,      /* I =431 */
(PID.TID 0000.0001)                 9.829408090567543E+10,      /* I =432 */
(PID.TID 0000.0001)                 9.850992024629108E+10,      /* I =433 */
(PID.TID 0000.0001)                 9.829408090566643E+10,      /* I =434 */
(PID.TID 0000.0001)                 9.765237883417654E+10,      /* I =435 */
(PID.TID 0000.0001)                 9.660193530170966E+10,      /* I =436 */
(PID.TID 0000.0001)                 9.517111234598198E+10,      /* I =437 */
(PID.TID 0000.0001)                 9.339922083542212E+10,      /* I =438 */
(PID.TID 0000.0001)                 9.133625108442915E+10,      /* I =439 */
(PID.TID 0000.0001)                 8.904267216284305E+10,      /* I =440 */
(PID.TID 0000.0001)                 8.658933893111111E+10,      /* I =441 */
(PID.TID 0000.0001)                 8.405745909919627E+10,      /* I =442 */
(PID.TID 0000.0001)                 8.153840828111327E+10,      /* I =443 */
(PID.TID 0000.0001)                 7.913292536890033E+10,      /* I =444 */
(PID.TID 0000.0001)                 7.694890654164391E+10,      /* I =445 */
(PID.TID 0000.0001)                 7.509678831851245E+10,      /* I =446 */
(PID.TID 0000.0001)                 7.368167655646770E+10,      /* I =447 */
(PID.TID 0000.0001)                 7.279231679395761E+10,      /* I =448 */
(PID.TID 0000.0001)                 9.071447638299399E+10,      /* I =449 */
(PID.TID 0000.0001)                 9.085012105610597E+10,      /* I =450 */
(PID.TID 0000.0001)                 9.125179254955583E+10,      /* I =451 */
(PID.TID 0000.0001)                 9.190392048045309E+10,      /* I =452 */
(PID.TID 0000.0001)                 9.278126467409492E+10,      /* I =453 */
(PID.TID 0000.0001)                 9.384993610263170E+10,      /* I =454 */
(PID.TID 0000.0001)                 9.506874487174457E+10,      /* I =455 */
(PID.TID 0000.0001)                 9.639080978465117E+10,      /* I =456 */
(PID.TID 0000.0001)                 9.776536132335065E+10,      /* I =457 */
(PID.TID 0000.0001)                 9.913967116446748E+10,      /* I =458 */
(PID.TID 0000.0001)                 1.004610434085146E+11,      /* I =459 */
(PID.TID 0000.0001)                 1.016788034168886E+11,      /* I =460 */
(PID.TID 0000.0001)                 1.027462190489479E+11,      /* I =461 */
(PID.TID 0000.0001)                 1.036222871661027E+11,      /* I =462 */
(PID.TID 0000.0001)                 1.042733173971964E+11,      /* I =463 */
(PID.TID 0000.0001)                 1.046742473574501E+11,      /* I =464 */
(PID.TID 0000.0001)                 1.048096527455915E+11,      /* I =465 */
(PID.TID 0000.0001)                 1.046742473574591E+11,      /* I =466 */
(PID.TID 0000.0001)                 1.042733173971784E+11,      /* I =467 */
(PID.TID 0000.0001)                 1.036222871660937E+11,      /* I =468 */
(PID.TID 0000.0001)                 1.027462190489479E+11,      /* I =469 */
(PID.TID 0000.0001)                 1.016788034168886E+11,      /* I =470 */
(PID.TID 0000.0001)                 1.004610434084966E+11,      /* I =471 */
(PID.TID 0000.0001)                 9.913967116446748E+10,      /* I =472 */
(PID.TID 0000.0001)                 9.776536132332361E+10,      /* I =473 */
(PID.TID 0000.0001)                 9.639080978466919E+10,      /* I =474 */
(PID.TID 0000.0001)                 9.506874487171754E+10,      /* I =475 */
(PID.TID 0000.0001)                 9.384993610260466E+10,      /* I =476 */
(PID.TID 0000.0001)                 9.278126467408592E+10,      /* I =477 */
(PID.TID 0000.0001)                 9.190392048045309E+10,      /* I =478 */
(PID.TID 0000.0001)                 9.125179254954683E+10,      /* I =479 */
(PID.TID 0000.0001)                 9.085012105606993E+10,      /* I =480 */
(PID.TID 0000.0001)                 6.748840226738273E+10,      /* I =481 */
(PID.TID 0000.0001)                 6.785762228965186E+10,      /* I =482 */
(PID.TID 0000.0001)                 6.893429052929407E+10,      /* I =483 */
(PID.TID 0000.0001)                 7.063282762453648E+10,      /* I =484 */
(PID.TID 0000.0001)                 7.283130776162505E+10,      /* I =485 */
(PID.TID 0000.0001)                 7.539208669246643E+10,      /* I =486 */
(PID.TID 0000.0001)                 7.817800519391208E+10,      /* I =487 */
(PID.TID 0000.0001)                 8.106189722872533E+10,      /* I =488 */
(PID.TID 0000.0001)                 8.393053257714168E+10,      /* I =489 */
(PID.TID 0000.0001)                 8.668522207917874E+10,      /* I =490 */
(PID.TID 0000.0001)                 8.924097252669591E+10,      /* I =491 */
(PID.TID 0000.0001)                 9.152533954246133E+10,      /* I =492 */
(PID.TID 0000.0001)                 9.347751054428943E+10,      /* I =493 */
(PID.TID 0000.0001)                 9.504776953558653E+10,      /* I =494 */
(PID.TID 0000.0001)                 9.619730346663052E+10,      /* I =495 */
(PID.TID 0000.0001)                 9.689823457954172E+10,      /* I =496 */
(PID.TID 0000.0001)                 9.713377776174072E+10,      /* I =497 */
(PID.TID 0000.0001)                 9.689823457951468E+10,      /* I =498 */
(PID.TID 0000.0001)                 9.619730346663052E+10,      /* I =499 */
(PID.TID 0000.0001)                 9.504776953557753E+10,      /* I =500 */
(PID.TID 0000.0001)                 9.347751054425339E+10,      /* I =501 */
(PID.TID 0000.0001)                 9.152533954245232E+10,      /* I =502 */
(PID.TID 0000.0001)                 8.924097252668690E+10,      /* I =503 */
(PID.TID 0000.0001)                 8.668522207915172E+10,      /* I =504 */
(PID.TID 0000.0001)                 8.393053257718672E+10,      /* I =505 */
(PID.TID 0000.0001)                 8.106189722871632E+10,      /* I =506 */
(PID.TID 0000.0001)                 7.817800519388504E+10,      /* I =507 */
(PID.TID 0000.0001)                 7.539208669248445E+10,      /* I =508 */
(PID.TID 0000.0001)                 7.283130776157999E+10,      /* I =509 */
(PID.TID 0000.0001)                 7.063282762452747E+10,      /* I =510 */
(PID.TID 0000.0001)                 6.893429052933911E+10,      /* I =511 */
(PID.TID 0000.0001)                 6.785762228965186E+10,      /* I =512 */
(PID.TID 0000.0001)                 1.216690346714270E+10,      /* I =513 */
(PID.TID 0000.0001)                 1.974052138506315E+10,      /* I =514 */
(PID.TID 0000.0001)                 2.943712825252015E+10,      /* I =515 */
(PID.TID 0000.0001)                 3.801790263324359E+10,      /* I =516 */
(PID.TID 0000.0001)                 4.571243814189866E+10,      /* I =517 */
(PID.TID 0000.0001)                 5.269930713599979E+10,      /* I =518 */
(PID.TID 0000.0001)                 5.907428494299063E+10,      /* I =519 */
(PID.TID 0000.0001)                 6.488320895111514E+10,      /* I =520 */
(PID.TID 0000.0001)                 7.014205907741882E+10,      /* I =521 */
(PID.TID 0000.0001)                 7.484854821847499E+10,      /* I =522 */
(PID.TID 0000.0001)                 7.898934631431560E+10,      /* I =523 */
(PID.TID 0000.0001)                 8.254500894894537E+10,      /* I =524 */
(PID.TID 0000.0001)                 8.549360686473492E+10,      /* I =525 */
(PID.TID 0000.0001)                 8.781353403175085E+10,      /* I =526 */
(PID.TID 0000.0001)                 8.948571540392021E+10,      /* I =527 */
(PID.TID 0000.0001)                 9.049530583086168E+10,      /* I =528 */
(PID.TID 0000.0001)                 9.083293515008307E+10,      /* I =529 */
(PID.TID 0000.0001)                 9.049530583087070E+10,      /* I =530 */
(PID.TID 0000.0001)                 8.948571540391121E+10,      /* I =531 */
(PID.TID 0000.0001)                 8.781353403174185E+10,      /* I =532 */
(PID.TID 0000.0001)                 8.549360686467184E+10,      /* I =533 */
(PID.TID 0000.0001)                 8.254500894890933E+10,      /* I =534 */
(PID.TID 0000.0001)                 7.898934631434262E+10,      /* I =535 */
(PID.TID 0000.0001)                 7.484854821844795E+10,      /* I =536 */
(PID.TID 0000.0001)                 7.014205907742783E+10,      /* I =537 */
(PID.TID 0000.0001)                 6.488320895111514E+10,      /* I =538 */
(PID.TID 0000.0001)                 5.907428494299063E+10,      /* I =539 */
(PID.TID 0000.0001)                 5.269930713599078E+10,      /* I =540 */
(PID.TID 0000.0001)                 4.571243814190767E+10,      /* I =541 */
(PID.TID 0000.0001)                 3.801790263325260E+10,      /* I =542 */
(PID.TID 0000.0001)                 2.943712825251114E+10,      /* I =543 */
(PID.TID 0000.0001)                 1.974052138509018E+10,      /* I =544 */
(PID.TID 0000.0001)                 7.248875782324815E+10,      /* I =545 */
(PID.TID 0000.0001)                 7.279231679399365E+10,      /* I =546 */
(PID.TID 0000.0001)                 7.368167655649474E+10,      /* I =547 */
(PID.TID 0000.0001)                 7.509678831847641E+10,      /* I =548 */
(PID.TID 0000.0001)                 7.694890654165292E+10,      /* I =549 */
(PID.TID 0000.0001)                 7.913292536892735E+10,      /* I =550 */
(PID.TID 0000.0001)                 8.153840828108624E+10,      /* I =551 */
(PID.TID 0000.0001)                 8.405745909920529E+10,      /* I =552 */
(PID.TID 0000.0001)                 8.658933893113814E+10,      /* I =553 */
(PID.TID 0000.0001)                 8.904267216287007E+10,      /* I =554 */
(PID.TID 0000.0001)                 9.133625108440211E+10,      /* I =555 */
(PID.TID 0000.0001)                 9.339922083542212E+10,      /* I =556 */
(PID.TID 0000.0001)                 9.517111234598198E+10,      /* I =557 */
(PID.TID 0000.0001)                 9.660193530171867E+10,      /* I =558 */
(PID.TID 0000.0001)                 9.765237883413150E+10,      /* I =559 */
(PID.TID 0000.0001)                 9.829408090567543E+10,      /* I =560 */
(PID.TID 0000.0001)                 9.850992024629108E+10,      /* I =561 */
(PID.TID 0000.0001)                 9.829408090566643E+10,      /* I =562 */
(PID.TID 0000.0001)                 9.765237883417654E+10,      /* I =563 */
(PID.TID 0000.0001)                 9.660193530170966E+10,      /* I =564 */
(PID.TID 0000.0001)                 9.517111234598198E+10,      /* I =565 */
(PID.TID 0000.0001)                 9.339922083542212E+10,      /* I =566 */
(PID.TID 0000.0001)                 9.133625108442915E+10,      /* I =567 */
(PID.TID 0000.0001)                 8.904267216284305E+10,      /* I =568 */
(PID.TID 0000.0001)                 8.658933893111111E+10,      /* I =569 */
(PID.TID 0000.0001)                 8.405745909919627E+10,      /* I =570 */
(PID.TID 0000.0001)                 8.153840828111327E+10,      /* I =571 */
(PID.TID 0000.0001)                 7.913292536890033E+10,      /* I =572 */
(PID.TID 0000.0001)                 7.694890654164391E+10,      /* I =573 */
(PID.TID 0000.0001)                 7.509678831851245E+10,      /* I =574 */
(PID.TID 0000.0001)                 7.368167655646770E+10,      /* I =575 */
(PID.TID 0000.0001)                 7.279231679395761E+10,      /* I =576 */
(PID.TID 0000.0001)                 9.071447638299399E+10,      /* I =577 */
(PID.TID 0000.0001)                 9.085012105610597E+10,      /* I =578 */
(PID.TID 0000.0001)                 9.125179254955583E+10,      /* I =579 */
(PID.TID 0000.0001)                 9.190392048045309E+10,      /* I =580 */
(PID.TID 0000.0001)                 9.278126467409492E+10,      /* I =581 */
(PID.TID 0000.0001)                 9.384993610263170E+10,      /* I =582 */
(PID.TID 0000.0001)                 9.506874487174457E+10,      /* I =583 */
(PID.TID 0000.0001)                 9.639080978465117E+10,      /* I =584 */
(PID.TID 0000.0001)                 9.776536132335065E+10,      /* I =585 */
(PID.TID 0000.0001)                 9.913967116446748E+10,      /* I =586 */
(PID.TID 0000.0001)                 1.004610434085146E+11,      /* I =587 */
(PID.TID 0000.0001)                 1.016788034168886E+11,      /* I =588 */
(PID.TID 0000.0001)                 1.027462190489479E+11,      /* I =589 */
(PID.TID 0000.0001)                 1.036222871661027E+11,      /* I =590 */
(PID.TID 0000.0001)                 1.042733173971964E+11,      /* I =591 */
(PID.TID 0000.0001)                 1.046742473574501E+11,      /* I =592 */
(PID.TID 0000.0001)                 1.048096527455915E+11,      /* I =593 */
(PID.TID 0000.0001)                 1.046742473574591E+11,      /* I =594 */
(PID.TID 0000.0001)                 1.042733173971784E+11,      /* I =595 */
(PID.TID 0000.0001)                 1.036222871660937E+11,      /* I =596 */
(PID.TID 0000.0001)                 1.027462190489479E+11,      /* I =597 */
(PID.TID 0000.0001)                 1.016788034168886E+11,      /* I =598 */
(PID.TID 0000.0001)                 1.004610434084966E+11,      /* I =599 */
(PID.TID 0000.0001)                 9.913967116446748E+10,      /* I =600 */
(PID.TID 0000.0001)                 9.776536132332361E+10,      /* I =601 */
(PID.TID 0000.0001)                 9.639080978466919E+10,      /* I =602 */
(PID.TID 0000.0001)                 9.506874487171754E+10,      /* I =603 */
(PID.TID 0000.0001)                 9.384993610260466E+10,      /* I =604 */
(PID.TID 0000.0001)                 9.278126467408592E+10,      /* I =605 */
(PID.TID 0000.0001)                 9.190392048045309E+10,      /* I =606 */
(PID.TID 0000.0001)                 9.125179254954683E+10,      /* I =607 */
(PID.TID 0000.0001)                 9.085012105606993E+10,      /* I =608 */
(PID.TID 0000.0001)                 6.748840226738273E+10,      /* I =609 */
(PID.TID 0000.0001)                 6.785762228965186E+10,      /* I =610 */
(PID.TID 0000.0001)                 6.893429052929407E+10,      /* I =611 */
(PID.TID 0000.0001)                 7.063282762453648E+10,      /* I =612 */
(PID.TID 0000.0001)                 7.283130776162505E+10,      /* I =613 */
(PID.TID 0000.0001)                 7.539208669246643E+10,      /* I =614 */
(PID.TID 0000.0001)                 7.817800519391208E+10,      /* I =615 */
(PID.TID 0000.0001)                 8.106189722872533E+10,      /* I =616 */
(PID.TID 0000.0001)                 8.393053257714168E+10,      /* I =617 */
(PID.TID 0000.0001)                 8.668522207917874E+10,      /* I =618 */
(PID.TID 0000.0001)                 8.924097252669591E+10,      /* I =619 */
(PID.TID 0000.0001)                 9.152533954246133E+10,      /* I =620 */
(PID.TID 0000.0001)                 9.347751054428943E+10,      /* I =621 */
(PID.TID 0000.0001)                 9.504776953558653E+10,      /* I =622 */
(PID.TID 0000.0001)                 9.619730346663052E+10,      /* I =623 */
(PID.TID 0000.0001)                 9.689823457954172E+10,      /* I =624 */
(PID.TID 0000.0001)                 9.713377776174072E+10,      /* I =625 */
(PID.TID 0000.0001)                 9.689823457951468E+10,      /* I =626 */
(PID.TID 0000.0001)                 9.619730346663052E+10,      /* I =627 */
(PID.TID 0000.0001)                 9.504776953557753E+10,      /* I =628 */
(PID.TID 0000.0001)                 9.347751054425339E+10,      /* I =629 */
(PID.TID 0000.0001)                 9.152533954245232E+10,      /* I =630 */
(PID.TID 0000.0001)                 8.924097252668690E+10,      /* I =631 */
(PID.TID 0000.0001)                 8.668522207915172E+10,      /* I =632 */
(PID.TID 0000.0001)                 8.393053257718672E+10,      /* I =633 */
(PID.TID 0000.0001)                 8.106189722871632E+10,      /* I =634 */
(PID.TID 0000.0001)                 7.817800519388504E+10,      /* I =635 */
(PID.TID 0000.0001)                 7.539208669248445E+10,      /* I =636 */
(PID.TID 0000.0001)                 7.283130776157999E+10,      /* I =637 */
(PID.TID 0000.0001)                 7.063282762452747E+10,      /* I =638 */
(PID.TID 0000.0001)                 6.893429052933911E+10,      /* I =639 */
(PID.TID 0000.0001)                 6.785762228965186E+10,      /* I =640 */
(PID.TID 0000.0001)                 1.216690346714270E+10,      /* I =641 */
(PID.TID 0000.0001)                 1.974052138506315E+10,      /* I =642 */
(PID.TID 0000.0001)                 2.943712825252015E+10,      /* I =643 */
(PID.TID 0000.0001)                 3.801790263324359E+10,      /* I =644 */
(PID.TID 0000.0001)                 4.571243814189866E+10,      /* I =645 */
(PID.TID 0000.0001)                 5.269930713599979E+10,      /* I =646 */
(PID.TID 0000.0001)                 5.907428494299063E+10,      /* I =647 */
(PID.TID 0000.0001)                 6.488320895111514E+10,      /* I =648 */
(PID.TID 0000.0001)                 7.014205907741882E+10,      /* I =649 */
(PID.TID 0000.0001)                 7.484854821847499E+10,      /* I =650 */
(PID.TID 0000.0001)                 7.898934631431560E+10,      /* I =651 */
(PID.TID 0000.0001)                 8.254500894894537E+10,      /* I =652 */
(PID.TID 0000.0001)                 8.549360686473492E+10,      /* I =653 */
(PID.TID 0000.0001)                 8.781353403175085E+10,      /* I =654 */
(PID.TID 0000.0001)                 8.948571540392021E+10,      /* I =655 */
(PID.TID 0000.0001)                 9.049530583086168E+10,      /* I =656 */
(PID.TID 0000.0001)                 9.083293515008307E+10,      /* I =657 */
(PID.TID 0000.0001)                 9.049530583087070E+10,      /* I =658 */
(PID.TID 0000.0001)                 8.948571540391121E+10,      /* I =659 */
(PID.TID 0000.0001)                 8.781353403174185E+10,      /* I =660 */
(PID.TID 0000.0001)                 8.549360686467184E+10,      /* I =661 */
(PID.TID 0000.0001)                 8.254500894890933E+10,      /* I =662 */
(PID.TID 0000.0001)                 7.898934631434262E+10,      /* I =663 */
(PID.TID 0000.0001)                 7.484854821844795E+10,      /* I =664 */
(PID.TID 0000.0001)                 7.014205907742783E+10,      /* I =665 */
(PID.TID 0000.0001)                 6.488320895111514E+10,      /* I =666 */
(PID.TID 0000.0001)                 5.907428494299063E+10,      /* I =667 */
(PID.TID 0000.0001)                 5.269930713599078E+10,      /* I =668 */
(PID.TID 0000.0001)                 4.571243814190767E+10,      /* I =669 */
(PID.TID 0000.0001)                 3.801790263325260E+10,      /* I =670 */
(PID.TID 0000.0001)                 2.943712825251114E+10,      /* I =671 */
(PID.TID 0000.0001)                 1.974052138509018E+10,      /* I =672 */
(PID.TID 0000.0001)                 7.248875782324815E+10,      /* I =673 */
(PID.TID 0000.0001)                 7.279231679399365E+10,      /* I =674 */
(PID.TID 0000.0001)                 7.368167655649474E+10,      /* I =675 */
(PID.TID 0000.0001)                 7.509678831847641E+10,      /* I =676 */
(PID.TID 0000.0001)                 7.694890654165292E+10,      /* I =677 */
(PID.TID 0000.0001)                 7.913292536892735E+10,      /* I =678 */
(PID.TID 0000.0001)                 8.153840828108624E+10,      /* I =679 */
(PID.TID 0000.0001)                 8.405745909920529E+10,      /* I =680 */
(PID.TID 0000.0001)                 8.658933893113814E+10,      /* I =681 */
(PID.TID 0000.0001)                 8.904267216287007E+10,      /* I =682 */
(PID.TID 0000.0001)                 9.133625108440211E+10,      /* I =683 */
(PID.TID 0000.0001)                 9.339922083542212E+10,      /* I =684 */
(PID.TID 0000.0001)                 9.517111234598198E+10,      /* I =685 */
(PID.TID 0000.0001)                 9.660193530171867E+10,      /* I =686 */
(PID.TID 0000.0001)                 9.765237883413150E+10,      /* I =687 */
(PID.TID 0000.0001)                 9.829408090567543E+10,      /* I =688 */
(PID.TID 0000.0001)                 9.850992024629108E+10,      /* I =689 */
(PID.TID 0000.0001)                 9.829408090566643E+10,      /* I =690 */
(PID.TID 0000.0001)                 9.765237883417654E+10,      /* I =691 */
(PID.TID 0000.0001)                 9.660193530170966E+10,      /* I =692 */
(PID.TID 0000.0001)                 9.517111234598198E+10,      /* I =693 */
(PID.TID 0000.0001)                 9.339922083542212E+10,      /* I =694 */
(PID.TID 0000.0001)                 9.133625108442915E+10,      /* I =695 */
(PID.TID 0000.0001)                 8.904267216284305E+10,      /* I =696 */
(PID.TID 0000.0001)                 8.658933893111111E+10,      /* I =697 */
(PID.TID 0000.0001)                 8.405745909919627E+10,      /* I =698 */
(PID.TID 0000.0001)                 8.153840828111327E+10,      /* I =699 */
(PID.TID 0000.0001)                 7.913292536890033E+10,      /* I =700 */
(PID.TID 0000.0001)                 7.694890654164391E+10,      /* I =701 */
(PID.TID 0000.0001)                 7.509678831851245E+10,      /* I =702 */
(PID.TID 0000.0001)                 7.368167655646770E+10,      /* I =703 */
(PID.TID 0000.0001)                 7.279231679395761E+10,      /* I =704 */
(PID.TID 0000.0001)                 9.071447638299399E+10,      /* I =705 */
(PID.TID 0000.0001)                 9.085012105610597E+10,      /* I =706 */
(PID.TID 0000.0001)                 9.125179254955583E+10,      /* I =707 */
(PID.TID 0000.0001)                 9.190392048045309E+10,      /* I =708 */
(PID.TID 0000.0001)                 9.278126467409492E+10,      /* I =709 */
(PID.TID 0000.0001)                 9.384993610263170E+10,      /* I =710 */
(PID.TID 0000.0001)                 9.506874487174457E+10,      /* I =711 */
(PID.TID 0000.0001)                 9.639080978465117E+10,      /* I =712 */
(PID.TID 0000.0001)                 9.776536132335065E+10,      /* I =713 */
(PID.TID 0000.0001)                 9.913967116446748E+10,      /* I =714 */
(PID.TID 0000.0001)                 1.004610434085146E+11,      /* I =715 */
(PID.TID 0000.0001)                 1.016788034168886E+11,      /* I =716 */
(PID.TID 0000.0001)                 1.027462190489479E+11,      /* I =717 */
(PID.TID 0000.0001)                 1.036222871661027E+11,      /* I =718 */
(PID.TID 0000.0001)                 1.042733173971964E+11,      /* I =719 */
(PID.TID 0000.0001)                 1.046742473574501E+11,      /* I =720 */
(PID.TID 0000.0001)                 1.048096527455915E+11,      /* I =721 */
(PID.TID 0000.0001)                 1.046742473574591E+11,      /* I =722 */
(PID.TID 0000.0001)                 1.042733173971784E+11,      /* I =723 */
(PID.TID 0000.0001)                 1.036222871660937E+11,      /* I =724 */
(PID.TID 0000.0001)                 1.027462190489479E+11,      /* I =725 */
(PID.TID 0000.0001)                 1.016788034168886E+11,      /* I =726 */
(PID.TID 0000.0001)                 1.004610434084966E+11,      /* I =727 */
(PID.TID 0000.0001)                 9.913967116446748E+10,      /* I =728 */
(PID.TID 0000.0001)                 9.776536132332361E+10,      /* I =729 */
(PID.TID 0000.0001)                 9.639080978466919E+10,      /* I =730 */
(PID.TID 0000.0001)                 9.506874487171754E+10,      /* I =731 */
(PID.TID 0000.0001)                 9.384993610260466E+10,      /* I =732 */
(PID.TID 0000.0001)                 9.278126467408592E+10,      /* I =733 */
(PID.TID 0000.0001)                 9.190392048045309E+10,      /* I =734 */
(PID.TID 0000.0001)                 9.125179254954683E+10,      /* I =735 */
(PID.TID 0000.0001)                 9.085012105606993E+10,      /* I =736 */
(PID.TID 0000.0001)                 6.748840226738273E+10,      /* I =737 */
(PID.TID 0000.0001)                 6.785762228965186E+10,      /* I =738 */
(PID.TID 0000.0001)                 6.893429052929407E+10,      /* I =739 */
(PID.TID 0000.0001)                 7.063282762453648E+10,      /* I =740 */
(PID.TID 0000.0001)                 7.283130776162505E+10,      /* I =741 */
(PID.TID 0000.0001)                 7.539208669246643E+10,      /* I =742 */
(PID.TID 0000.0001)                 7.817800519391208E+10,      /* I =743 */
(PID.TID 0000.0001)                 8.106189722872533E+10,      /* I =744 */
(PID.TID 0000.0001)                 8.393053257714168E+10,      /* I =745 */
(PID.TID 0000.0001)                 8.668522207917874E+10,      /* I =746 */
(PID.TID 0000.0001)                 8.924097252669591E+10,      /* I =747 */
(PID.TID 0000.0001)                 9.152533954246133E+10,      /* I =748 */
(PID.TID 0000.0001)                 9.347751054428943E+10,      /* I =749 */
(PID.TID 0000.0001)                 9.504776953558653E+10,      /* I =750 */
(PID.TID 0000.0001)                 9.619730346663052E+10,      /* I =751 */
(PID.TID 0000.0001)                 9.689823457954172E+10,      /* I =752 */
(PID.TID 0000.0001)                 9.713377776174072E+10,      /* I =753 */
(PID.TID 0000.0001)                 9.689823457951468E+10,      /* I =754 */
(PID.TID 0000.0001)                 9.619730346663052E+10,      /* I =755 */
(PID.TID 0000.0001)                 9.504776953557753E+10,      /* I =756 */
(PID.TID 0000.0001)                 9.347751054425339E+10,      /* I =757 */
(PID.TID 0000.0001)                 9.152533954245232E+10,      /* I =758 */
(PID.TID 0000.0001)                 8.924097252668690E+10,      /* I =759 */
(PID.TID 0000.0001)                 8.668522207915172E+10,      /* I =760 */
(PID.TID 0000.0001)                 8.393053257718672E+10,      /* I =761 */
(PID.TID 0000.0001)                 8.106189722871632E+10,      /* I =762 */
(PID.TID 0000.0001)                 7.817800519388504E+10,      /* I =763 */
(PID.TID 0000.0001)                 7.539208669248445E+10,      /* I =764 */
(PID.TID 0000.0001)                 7.283130776157999E+10,      /* I =765 */
(PID.TID 0000.0001)                 7.063282762452747E+10,      /* I =766 */
(PID.TID 0000.0001)                 6.893429052933911E+10,      /* I =767 */
(PID.TID 0000.0001)                 6.785762228965186E+10       /* I =768 */
(PID.TID 0000.0001)     ;
(PID.TID 0000.0001) rAw =  /* rAw(1,:,1,:) ( units: m^2 ) */
(PID.TID 0000.0001)                 1.216690346714270E+10,      /* J =  1 */
(PID.TID 0000.0001)                 2.390126200743558E+10,      /* J =  2 */
(PID.TID 0000.0001)                 3.341968103208270E+10,      /* J =  3 */
(PID.TID 0000.0001)                 4.168532893152940E+10,      /* J =  4 */
(PID.TID 0000.0001)                 4.909074590409593E+10,      /* J =  5 */
(PID.TID 0000.0001)                 5.581203765722643E+10,      /* J =  6 */
(PID.TID 0000.0001)                 6.193257577506788E+10,      /* J =  7 */
(PID.TID 0000.0001)                 6.748840226738273E+10       /* J =  8 */
(PID.TID 0000.0001)     ;
(PID.TID 0000.0001) rAs =  /* rAs(:,1,:,1) ( units: m^2 ) */
(PID.TID 0000.0001)                 1.216690346714270E+10,      /* I =  1 */
(PID.TID 0000.0001)                 2.390126200743558E+10,      /* I =  2 */
(PID.TID 0000.0001)                 3.341968103208270E+10,      /* I =  3 */
(PID.TID 0000.0001)                 4.168532893152940E+10,      /* I =  4 */
(PID.TID 0000.0001)                 4.909074590409593E+10,      /* I =  5 */
(PID.TID 0000.0001)                 5.581203765722643E+10,      /* I =  6 */
(PID.TID 0000.0001)                 6.193257577506788E+10,      /* I =  7 */
(PID.TID 0000.0001)                 6.748840226738273E+10,      /* I =  8 */
(PID.TID 0000.0001)                 7.248875782324815E+10,      /* I =  9 */
(PID.TID 0000.0001)                 7.692702995909871E+10,      /* I = 10 */
(PID.TID 0000.0001)                 8.078743937057304E+10,      /* I = 11 */
(PID.TID 0000.0001)                 8.404959656062837E+10,      /* I = 12 */
(PID.TID 0000.0001)                 8.669186205742538E+10,      /* I = 13 */
(PID.TID 0000.0001)                 8.869393350723613E+10,      /* I = 14 */
(PID.TID 0000.0001)                 9.003884657168852E+10,      /* I = 15 */
(PID.TID 0000.0001)     2 @  9.071447638299399E+10,             /* I = 16: 17 */
(PID.TID 0000.0001)                 9.003884657168852E+10,      /* I = 18 */
(PID.TID 0000.0001)                 8.869393350723613E+10,      /* I = 19 */
(PID.TID 0000.0001)                 8.669186205742538E+10,      /* I = 20 */
(PID.TID 0000.0001)                 8.404959656062837E+10,      /* I = 21 */
(PID.TID 0000.0001)                 8.078743937057304E+10,      /* I = 22 */
(PID.TID 0000.0001)                 7.692702995909871E+10,      /* I = 23 */
(PID.TID 0000.0001)                 7.248875782324815E+10,      /* I = 24 */
(PID.TID 0000.0001)                 6.748840226738273E+10,      /* I = 25 */
(PID.TID 0000.0001)                 6.193257577506788E+10,      /* I = 26 */
(PID.TID 0000.0001)                 5.581203765722643E+10,      /* I = 27 */
(PID.TID 0000.0001)                 4.909074590409593E+10,      /* I = 28 */
(PID.TID 0000.0001)                 4.168532893152940E+10,      /* I = 29 */
(PID.TID 0000.0001)                 3.341968103208270E+10,      /* I = 30 */
(PID.TID 0000.0001)                 2.390126200743558E+10,      /* I = 31 */
(PID.TID 0000.0001)                 1.216690346714270E+10,      /* I = 32 */
(PID.TID 0000.0001)                 7.014205907741882E+10,      /* I = 33 */
(PID.TID 0000.0001)                 7.080359444504936E+10,      /* I = 34 */
(PID.TID 0000.0001)                 7.207697049620459E+10,      /* I = 35 */
(PID.TID 0000.0001)                 7.387277930931242E+10,      /* I = 36 */
(PID.TID 0000.0001)                 7.607731167898732E+10,      /* I = 37 */
(PID.TID 0000.0001)                 7.856766377620157E+10,      /* I = 38 */
(PID.TID 0000.0001)                 8.122290115046133E+10,      /* I = 39 */
(PID.TID 0000.0001)                 8.393053257718672E+10,      /* I = 40 */
(PID.TID 0000.0001)                 8.658933893113814E+10,      /* I = 41 */
(PID.TID 0000.0001)                 8.911005636635672E+10,      /* I = 42 */
(PID.TID 0000.0001)                 9.141512166179512E+10,      /* I = 43 */
(PID.TID 0000.0001)                 9.343821140059109E+10,      /* I = 44 */
(PID.TID 0000.0001)                 9.512391461452121E+10,      /* I = 45 */
(PID.TID 0000.0001)                 9.642763033423941E+10,      /* I = 46 */
(PID.TID 0000.0001)                 9.731565189660542E+10,      /* I = 47 */
(PID.TID 0000.0001)                 9.776536132332361E+10,      /* I = 48 */
(PID.TID 0000.0001)                 9.776536132335065E+10,      /* I = 49 */
(PID.TID 0000.0001)                 9.731565189661444E+10,      /* I = 50 */
(PID.TID 0000.0001)                 9.642763033424841E+10,      /* I = 51 */
(PID.TID 0000.0001)                 9.512391461453923E+10,      /* I = 52 */
(PID.TID 0000.0001)                 9.343821140062714E+10,      /* I = 53 */
(PID.TID 0000.0001)                 9.141512166177710E+10,      /* I = 54 */
(PID.TID 0000.0001)                 8.911005636639276E+10,      /* I = 55 */
(PID.TID 0000.0001)                 8.658933893111111E+10,      /* I = 56 */
(PID.TID 0000.0001)                 8.393053257714168E+10,      /* I = 57 */
(PID.TID 0000.0001)                 8.122290115048837E+10,      /* I = 58 */
(PID.TID 0000.0001)                 7.856766377623761E+10,      /* I = 59 */
(PID.TID 0000.0001)                 7.607731167900534E+10,      /* I = 60 */
(PID.TID 0000.0001)                 7.387277930931242E+10,      /* I = 61 */
(PID.TID 0000.0001)                 7.207697049617757E+10,      /* I = 62 */
(PID.TID 0000.0001)                 7.080359444504936E+10,      /* I = 63 */
(PID.TID 0000.0001)                 7.014205907742783E+10,      /* I = 64 */
(PID.TID 0000.0001)                 9.083293515008307E+10,      /* I = 65 */
(PID.TID 0000.0001)                 9.110170898494536E+10,      /* I = 66 */
(PID.TID 0000.0001)                 9.162886297688426E+10,      /* I = 67 */
(PID.TID 0000.0001)                 9.239403136821951E+10,      /* I = 68 */
(PID.TID 0000.0001)                 9.336769520564153E+10,      /* I = 69 */
(PID.TID 0000.0001)                 9.451235404855287E+10,      /* I = 70 */
(PID.TID 0000.0001)                 9.578399259392229E+10,      /* I = 71 */
(PID.TID 0000.0001)                 9.713377776174072E+10,      /* I = 72 */
(PID.TID 0000.0001)                 9.850992024629108E+10,      /* I = 73 */
(PID.TID 0000.0001)                 9.985963523714983E+10,      /* I = 74 */
(PID.TID 0000.0001)                 1.011311375396738E+11,      /* I = 75 */
(PID.TID 0000.0001)                 1.022756055022041E+11,      /* I = 76 */
(PID.TID 0000.0001)                 1.032490462723345E+11,      /* I = 77 */
(PID.TID 0000.0001)                 1.040139933533592E+11,      /* I = 78 */
(PID.TID 0000.0001)                 1.045409681097387E+11,      /* I = 79 */
(PID.TID 0000.0001)     2 @  1.048096527455915E+11,             /* I = 80: 81 */
(PID.TID 0000.0001)                 1.045409681097387E+11,      /* I = 82 */
(PID.TID 0000.0001)                 1.040139933533592E+11,      /* I = 83 */
(PID.TID 0000.0001)                 1.032490462723345E+11,      /* I = 84 */
(PID.TID 0000.0001)                 1.022756055022041E+11,      /* I = 85 */
(PID.TID 0000.0001)                 1.011311375396738E+11,      /* I = 86 */
(PID.TID 0000.0001)                 9.985963523714983E+10,      /* I = 87 */
(PID.TID 0000.0001)                 9.850992024629108E+10,      /* I = 88 */
(PID.TID 0000.0001)                 9.713377776174072E+10,      /* I = 89 */
(PID.TID 0000.0001)                 9.578399259392229E+10,      /* I = 90 */
(PID.TID 0000.0001)                 9.451235404855287E+10,      /* I = 91 */
(PID.TID 0000.0001)                 9.336769520564153E+10,      /* I = 92 */
(PID.TID 0000.0001)                 9.239403136821951E+10,      /* I = 93 */
(PID.TID 0000.0001)                 9.162886297688426E+10,      /* I = 94 */
(PID.TID 0000.0001)                 9.110170898494536E+10,      /* I = 95 */
(PID.TID 0000.0001)                 9.083293515008307E+10,      /* I = 96 */
(PID.TID 0000.0001)                 7.014205907742783E+10,      /* I = 97 */
(PID.TID 0000.0001)                 7.080359444504936E+10,      /* I = 98 */
(PID.TID 0000.0001)                 7.207697049617757E+10,      /* I = 99 */
(PID.TID 0000.0001)                 7.387277930931242E+10,      /* I =100 */
(PID.TID 0000.0001)                 7.607731167900534E+10,      /* I =101 */
(PID.TID 0000.0001)                 7.856766377623761E+10,      /* I =102 */
(PID.TID 0000.0001)                 8.122290115048837E+10,      /* I =103 */
(PID.TID 0000.0001)                 8.393053257714168E+10,      /* I =104 */
(PID.TID 0000.0001)                 8.658933893111111E+10,      /* I =105 */
(PID.TID 0000.0001)                 8.911005636639276E+10,      /* I =106 */
(PID.TID 0000.0001)                 9.141512166177710E+10,      /* I =107 */
(PID.TID 0000.0001)                 9.343821140062714E+10,      /* I =108 */
(PID.TID 0000.0001)                 9.512391461453923E+10,      /* I =109 */
(PID.TID 0000.0001)                 9.642763033424841E+10,      /* I =110 */
(PID.TID 0000.0001)                 9.731565189661444E+10,      /* I =111 */
(PID.TID 0000.0001)                 9.776536132335065E+10,      /* I =112 */
(PID.TID 0000.0001)                 9.776536132332361E+10,      /* I =113 */
(PID.TID 0000.0001)                 9.731565189660542E+10,      /* I =114 */
(PID.TID 0000.0001)                 9.642763033423941E+10,      /* I =115 */
(PID.TID 0000.0001)                 9.512391461452121E+10,      /* I =116 */
(PID.TID 0000.0001)                 9.343821140059109E+10,      /* I =117 */
(PID.TID 0000.0001)                 9.141512166179512E+10,      /* I =118 */
(PID.TID 0000.0001)                 8.911005636635672E+10,      /* I =119 */
(PID.TID 0000.0001)                 8.658933893113814E+10,      /* I =120 */
(PID.TID 0000.0001)                 8.393053257718672E+10,      /* I =121 */
(PID.TID 0000.0001)                 8.122290115046133E+10,      /* I =122 */
(PID.TID 0000.0001)                 7.856766377620157E+10,      /* I =123 */
(PID.TID 0000.0001)                 7.607731167898732E+10,      /* I =124 */
(PID.TID 0000.0001)                 7.387277930931242E+10,      /* I =125 */
(PID.TID 0000.0001)                 7.207697049620459E+10,      /* I =126 */
(PID.TID 0000.0001)                 7.080359444504936E+10,      /* I =127 */
(PID.TID 0000.0001)                 7.014205907741882E+10,      /* I =128 */
(PID.TID 0000.0001)                 1.216690346714270E+10,      /* I =129 */
(PID.TID 0000.0001)                 2.390126200743558E+10,      /* I =130 */
(PID.TID 0000.0001)                 3.341968103208270E+10,      /* I =131 */
(PID.TID 0000.0001)                 4.168532893152940E+10,      /* I =132 */
(PID.TID 0000.0001)                 4.909074590409593E+10,      /* I =133 */
(PID.TID 0000.0001)                 5.581203765722643E+10,      /* I =134 */
(PID.TID 0000.0001)                 6.193257577506788E+10,      /* I =135 */
(PID.TID 0000.0001)                 6.748840226738273E+10,      /* I =136 */
(PID.TID 0000.0001)                 7.248875782324815E+10,      /* I =137 */
(PID.TID 0000.0001)                 7.692702995909871E+10,      /* I =138 */
(PID.TID 0000.0001)                 8.078743937057304E+10,      /* I =139 */
(PID.TID 0000.0001)                 8.404959656062837E+10,      /* I =140 */
(PID.TID 0000.0001)                 8.669186205742538E+10,      /* I =141 */
(PID.TID 0000.0001)                 8.869393350723613E+10,      /* I =142 */
(PID.TID 0000.0001)                 9.003884657168852E+10,      /* I =143 */
(PID.TID 0000.0001)     2 @  9.071447638299399E+10,             /* I =144:145 */
(PID.TID 0000.0001)                 9.003884657168852E+10,      /* I =146 */
(PID.TID 0000.0001)                 8.869393350723613E+10,      /* I =147 */
(PID.TID 0000.0001)                 8.669186205742538E+10,      /* I =148 */
(PID.TID 0000.0001)                 8.404959656062837E+10,      /* I =149 */
(PID.TID 0000.0001)                 8.078743937057304E+10,      /* I =150 */
(PID.TID 0000.0001)                 7.692702995909871E+10,      /* I =151 */
(PID.TID 0000.0001)                 7.248875782324815E+10,      /* I =152 */
(PID.TID 0000.0001)                 6.748840226738273E+10,      /* I =153 */
(PID.TID 0000.0001)                 6.193257577506788E+10,      /* I =154 */
(PID.TID 0000.0001)                 5.581203765722643E+10,      /* I =155 */
(PID.TID 0000.0001)                 4.909074590409593E+10,      /* I =156 */
(PID.TID 0000.0001)                 4.168532893152940E+10,      /* I =157 */
(PID.TID 0000.0001)                 3.341968103208270E+10,      /* I =158 */
(PID.TID 0000.0001)                 2.390126200743558E+10,      /* I =159 */
(PID.TID 0000.0001)                 1.216690346714270E+10,      /* I =160 */
(PID.TID 0000.0001)                 7.014205907741882E+10,      /* I =161 */
(PID.TID 0000.0001)                 7.080359444504936E+10,      /* I =162 */
(PID.TID 0000.0001)                 7.207697049620459E+10,      /* I =163 */
(PID.TID 0000.0001)                 7.387277930931242E+10,      /* I =164 */
(PID.TID 0000.0001)                 7.607731167898732E+10,      /* I =165 */
(PID.TID 0000.0001)                 7.856766377620157E+10,      /* I =166 */
(PID.TID 0000.0001)                 8.122290115046133E+10,      /* I =167 */
(PID.TID 0000.0001)                 8.393053257718672E+10,      /* I =168 */
(PID.TID 0000.0001)                 8.658933893113814E+10,      /* I =169 */
(PID.TID 0000.0001)                 8.911005636635672E+10,      /* I =170 */
(PID.TID 0000.0001)                 9.141512166179512E+10,      /* I =171 */
(PID.TID 0000.0001)                 9.343821140059109E+10,      /* I =172 */
(PID.TID 0000.0001)                 9.512391461452121E+10,      /* I =173 */
(PID.TID 0000.0001)                 9.642763033423941E+10,      /* I =174 */
(PID.TID 0000.0001)                 9.731565189660542E+10,      /* I =175 */
(PID.TID 0000.0001)                 9.776536132332361E+10,      /* I =176 */
(PID.TID 0000.0001)                 9.776536132335065E+10,      /* I =177 */
(PID.TID 0000.0001)                 9.731565189661444E+10,      /* I =178 */
(PID.TID 0000.0001)                 9.642763033424841E+10,      /* I =179 */
(PID.TID 0000.0001)                 9.512391461453923E+10,      /* I =180 */
(PID.TID 0000.0001)                 9.343821140062714E+10,      /* I =181 */
(PID.TID 0000.0001)                 9.141512166177710E+10,      /* I =182 */
(PID.TID 0000.0001)                 8.911005636639276E+10,      /* I =183 */
(PID.TID 0000.0001)                 8.658933893111111E+10,      /* I =184 */
(PID.TID 0000.0001)                 8.393053257714168E+10,      /* I =185 */
(PID.TID 0000.0001)                 8.122290115048837E+10,      /* I =186 */
(PID.TID 0000.0001)                 7.856766377623761E+10,      /* I =187 */
(PID.TID 0000.0001)                 7.607731167900534E+10,      /* I =188 */
(PID.TID 0000.0001)                 7.387277930931242E+10,      /* I =189 */
(PID.TID 0000.0001)                 7.207697049617757E+10,      /* I =190 */
(PID.TID 0000.0001)                 7.080359444504936E+10,      /* I =191 */
(PID.TID 0000.0001)                 7.014205907742783E+10,      /* I =192 */
(PID.TID 0000.0001)                 9.083293515008307E+10,      /* I =193 */
(PID.TID 0000.0001)                 9.110170898494536E+10,      /* I =194 */
(PID.TID 0000.0001)                 9.162886297688426E+10,      /* I =195 */
(PID.TID 0000.0001)                 9.239403136821951E+10,      /* I =196 */
(PID.TID 0000.0001)                 9.336769520564153E+10,      /* I =197 */
(PID.TID 0000.0001)                 9.451235404855287E+10,      /* I =198 */
(PID.TID 0000.0001)                 9.578399259392229E+10,      /* I =199 */
(PID.TID 0000.0001)                 9.713377776174072E+10,      /* I =200 */
(PID.TID 0000.0001)                 9.850992024629108E+10,      /* I =201 */
(PID.TID 0000.0001)                 9.985963523714983E+10,      /* I =202 */
(PID.TID 0000.0001)                 1.011311375396738E+11,      /* I =203 */
(PID.TID 0000.0001)                 1.022756055022041E+11,      /* I =204 */
(PID.TID 0000.0001)                 1.032490462723345E+11,      /* I =205 */
(PID.TID 0000.0001)                 1.040139933533592E+11,      /* I =206 */
(PID.TID 0000.0001)                 1.045409681097387E+11,      /* I =207 */
(PID.TID 0000.0001)     2 @  1.048096527455915E+11,             /* I =208:209 */
(PID.TID 0000.0001)                 1.045409681097387E+11,      /* I =210 */
(PID.TID 0000.0001)                 1.040139933533592E+11,      /* I =211 */
(PID.TID 0000.0001)                 1.032490462723345E+11,      /* I =212 */
(PID.TID 0000.0001)                 1.022756055022041E+11,      /* I =213 */
(PID.TID 0000.0001)                 1.011311375396738E+11,      /* I =214 */
(PID.TID 0000.0001)                 9.985963523714983E+10,      /* I =215 */
(PID.TID 0000.0001)                 9.850992024629108E+10,      /* I =216 */
(PID.TID 0000.0001)                 9.713377776174072E+10,      /* I =217 */
(PID.TID 0000.0001)                 9.578399259392229E+10,      /* I =218 */
(PID.TID 0000.0001)                 9.451235404855287E+10,      /* I =219 */
(PID.TID 0000.0001)                 9.336769520564153E+10,      /* I =220 */
(PID.TID 0000.0001)                 9.239403136821951E+10,      /* I =221 */
(PID.TID 0000.0001)                 9.162886297688426E+10,      /* I =222 */
(PID.TID 0000.0001)                 9.110170898494536E+10,      /* I =223 */
(PID.TID 0000.0001)                 9.083293515008307E+10,      /* I =224 */
(PID.TID 0000.0001)                 7.014205907742783E+10,      /* I =225 */
(PID.TID 0000.0001)                 7.080359444504936E+10,      /* I =226 */
(PID.TID 0000.0001)                 7.207697049617757E+10,      /* I =227 */
(PID.TID 0000.0001)                 7.387277930931242E+10,      /* I =228 */
(PID.TID 0000.0001)                 7.607731167900534E+10,      /* I =229 */
(PID.TID 0000.0001)                 7.856766377623761E+10,      /* I =230 */
(PID.TID 0000.0001)                 8.122290115048837E+10,      /* I =231 */
(PID.TID 0000.0001)                 8.393053257714168E+10,      /* I =232 */
(PID.TID 0000.0001)                 8.658933893111111E+10,      /* I =233 */
(PID.TID 0000.0001)                 8.911005636639276E+10,      /* I =234 */
(PID.TID 0000.0001)                 9.141512166177710E+10,      /* I =235 */
(PID.TID 0000.0001)                 9.343821140062714E+10,      /* I =236 */
(PID.TID 0000.0001)                 9.512391461453923E+10,      /* I =237 */
(PID.TID 0000.0001)                 9.642763033424841E+10,      /* I =238 */
(PID.TID 0000.0001)                 9.731565189661444E+10,      /* I =239 */
(PID.TID 0000.0001)                 9.776536132335065E+10,      /* I =240 */
(PID.TID 0000.0001)                 9.776536132332361E+10,      /* I =241 */
(PID.TID 0000.0001)                 9.731565189660542E+10,      /* I =242 */
(PID.TID 0000.0001)                 9.642763033423941E+10,      /* I =243 */
(PID.TID 0000.0001)                 9.512391461452121E+10,      /* I =244 */
(PID.TID 0000.0001)                 9.343821140059109E+10,      /* I =245 */
(PID.TID 0000.0001)                 9.141512166179512E+10,      /* I =246 */
(PID.TID 0000.0001)                 8.911005636635672E+10,      /* I =247 */
(PID.TID 0000.0001)                 8.658933893113814E+10,      /* I =248 */
(PID.TID 0000.0001)                 8.393053257718672E+10,      /* I =249 */
(PID.TID 0000.0001)                 8.122290115046133E+10,      /* I =250 */
(PID.TID 0000.0001)                 7.856766377620157E+10,      /* I =251 */
(PID.TID 0000.0001)                 7.607731167898732E+10,      /* I =252 */
(PID.TID 0000.0001)                 7.387277930931242E+10,      /* I =253 */
(PID.TID 0000.0001)                 7.207697049620459E+10,      /* I =254 */
(PID.TID 0000.0001)                 7.080359444504936E+10,      /* I =255 */
(PID.TID 0000.0001)                 7.014205907741882E+10,      /* I =256 */
(PID.TID 0000.0001)                 1.216690346714270E+10,      /* I =257 */
(PID.TID 0000.0001)                 2.390126200743558E+10,      /* I =258 */
(PID.TID 0000.0001)                 3.341968103208270E+10,      /* I =259 */
(PID.TID 0000.0001)                 4.168532893152940E+10,      /* I =260 */
(PID.TID 0000.0001)                 4.909074590409593E+10,      /* I =261 */
(PID.TID 0000.0001)                 5.581203765722643E+10,      /* I =262 */
(PID.TID 0000.0001)                 6.193257577506788E+10,      /* I =263 */
(PID.TID 0000.0001)                 6.748840226738273E+10,      /* I =264 */
(PID.TID 0000.0001)                 7.248875782324815E+10,      /* I =265 */
(PID.TID 0000.0001)                 7.692702995909871E+10,      /* I =266 */
(PID.TID 0000.0001)                 8.078743937057304E+10,      /* I =267 */
(PID.TID 0000.0001)                 8.404959656062837E+10,      /* I =268 */
(PID.TID 0000.0001)                 8.669186205742538E+10,      /* I =269 */
(PID.TID 0000.0001)                 8.869393350723613E+10,      /* I =270 */
(PID.TID 0000.0001)                 9.003884657168852E+10,      /* I =271 */
(PID.TID 0000.0001)     2 @  9.071447638299399E+10,             /* I =272:273 */
(PID.TID 0000.0001)                 9.003884657168852E+10,      /* I =274 */
(PID.TID 0000.0001)                 8.869393350723613E+10,      /* I =275 */
(PID.TID 0000.0001)                 8.669186205742538E+10,      /* I =276 */
(PID.TID 0000.0001)                 8.404959656062837E+10,      /* I =277 */
(PID.TID 0000.0001)                 8.078743937057304E+10,      /* I =278 */
(PID.TID 0000.0001)                 7.692702995909871E+10,      /* I =279 */
(PID.TID 0000.0001)                 7.248875782324815E+10,      /* I =280 */
(PID.TID 0000.0001)                 6.748840226738273E+10,      /* I =281 */
(PID.TID 0000.0001)                 6.193257577506788E+10,      /* I =282 */
(PID.TID 0000.0001)                 5.581203765722643E+10,      /* I =283 */
(PID.TID 0000.0001)                 4.909074590409593E+10,      /* I =284 */
(PID.TID 0000.0001)                 4.168532893152940E+10,      /* I =285 */
(PID.TID 0000.0001)                 3.341968103208270E+10,      /* I =286 */
(PID.TID 0000.0001)                 2.390126200743558E+10,      /* I =287 */
(PID.TID 0000.0001)                 1.216690346714270E+10,      /* I =288 */
(PID.TID 0000.0001)                 7.014205907741882E+10,      /* I =289 */
(PID.TID 0000.0001)                 7.080359444504936E+10,      /* I =290 */
(PID.TID 0000.0001)                 7.207697049620459E+10,      /* I =291 */
(PID.TID 0000.0001)                 7.387277930931242E+10,      /* I =292 */
(PID.TID 0000.0001)                 7.607731167898732E+10,      /* I =293 */
(PID.TID 0000.0001)                 7.856766377620157E+10,      /* I =294 */
(PID.TID 0000.0001)                 8.122290115046133E+10,      /* I =295 */
(PID.TID 0000.0001)                 8.393053257718672E+10,      /* I =296 */
(PID.TID 0000.0001)                 8.658933893113814E+10,      /* I =297 */
(PID.TID 0000.0001)                 8.911005636635672E+10,      /* I =298 */
(PID.TID 0000.0001)                 9.141512166179512E+10,      /* I =299 */
(PID.TID 0000.0001)                 9.343821140059109E+10,      /* I =300 */
(PID.TID 0000.0001)                 9.512391461452121E+10,      /* I =301 */
(PID.TID 0000.0001)                 9.642763033423941E+10,      /* I =302 */
(PID.TID 0000.0001)                 9.731565189660542E+10,      /* I =303 */
(PID.TID 0000.0001)                 9.776536132332361E+10,      /* I =304 */
(PID.TID 0000.0001)                 9.776536132335065E+10,      /* I =305 */
(PID.TID 0000.0001)                 9.731565189661444E+10,      /* I =306 */
(PID.TID 0000.0001)                 9.642763033424841E+10,      /* I =307 */
(PID.TID 0000.0001)                 9.512391461453923E+10,      /* I =308 */
(PID.TID 0000.0001)                 9.343821140062714E+10,      /* I =309 */
(PID.TID 0000.0001)                 9.141512166177710E+10,      /* I =310 */
(PID.TID 0000.0001)                 8.911005636639276E+10,      /* I =311 */
(PID.TID 0000.0001)                 8.658933893111111E+10,      /* I =312 */
(PID.TID 0000.0001)                 8.393053257714168E+10,      /* I =313 */
(PID.TID 0000.0001)                 8.122290115048837E+10,      /* I =314 */
(PID.TID 0000.0001)                 7.856766377623761E+10,      /* I =315 */
(PID.TID 0000.0001)                 7.607731167900534E+10,      /* I =316 */
(PID.TID 0000.0001)                 7.387277930931242E+10,      /* I =317 */
(PID.TID 0000.0001)                 7.207697049617757E+10,      /* I =318 */
(PID.TID 0000.0001)                 7.080359444504936E+10,      /* I =319 */
(PID.TID 0000.0001)                 7.014205907742783E+10,      /* I =320 */
(PID.TID 0000.0001)                 9.083293515008307E+10,      /* I =321 */
(PID.TID 0000.0001)                 9.110170898494536E+10,      /* I =322 */
(PID.TID 0000.0001)                 9.162886297688426E+10,      /* I =323 */
(PID.TID 0000.0001)                 9.239403136821951E+10,      /* I =324 */
(PID.TID 0000.0001)                 9.336769520564153E+10,      /* I =325 */
(PID.TID 0000.0001)                 9.451235404855287E+10,      /* I =326 */
(PID.TID 0000.0001)                 9.578399259392229E+10,      /* I =327 */
(PID.TID 0000.0001)                 9.713377776174072E+10,      /* I =328 */
(PID.TID 0000.0001)                 9.850992024629108E+10,      /* I =329 */
(PID.TID 0000.0001)                 9.985963523714983E+10,      /* I =330 */
(PID.TID 0000.0001)                 1.011311375396738E+11,      /* I =331 */
(PID.TID 0000.0001)                 1.022756055022041E+11,      /* I =332 */
(PID.TID 0000.0001)                 1.032490462723345E+11,      /* I =333 */
(PID.TID 0000.0001)                 1.040139933533592E+11,      /* I =334 */
(PID.TID 0000.0001)                 1.045409681097387E+11,      /* I =335 */
(PID.TID 0000.0001)     2 @  1.048096527455915E+11,             /* I =336:337 */
(PID.TID 0000.0001)                 1.045409681097387E+11,      /* I =338 */
(PID.TID 0000.0001)                 1.040139933533592E+11,      /* I =339 */
(PID.TID 0000.0001)                 1.032490462723345E+11,      /* I =340 */
(PID.TID 0000.0001)                 1.022756055022041E+11,      /* I =341 */
(PID.TID 0000.0001)                 1.011311375396738E+11,      /* I =342 */
(PID.TID 0000.0001)                 9.985963523714983E+10,      /* I =343 */
(PID.TID 0000.0001)                 9.850992024629108E+10,      /* I =344 */
(PID.TID 0000.0001)                 9.713377776174072E+10,      /* I =345 */
(PID.TID 0000.0001)                 9.578399259392229E+10,      /* I =346 */
(PID.TID 0000.0001)                 9.451235404855287E+10,      /* I =347 */
(PID.TID 0000.0001)                 9.336769520564153E+10,      /* I =348 */
(PID.TID 0000.0001)                 9.239403136821951E+10,      /* I =349 */
(PID.TID 0000.0001)                 9.162886297688426E+10,      /* I =350 */
(PID.TID 0000.0001)                 9.110170898494536E+10,      /* I =351 */
(PID.TID 0000.0001)                 9.083293515008307E+10,      /* I =352 */
(PID.TID 0000.0001)                 7.014205907742783E+10,      /* I =353 */
(PID.TID 0000.0001)                 7.080359444504936E+10,      /* I =354 */
(PID.TID 0000.0001)                 7.207697049617757E+10,      /* I =355 */
(PID.TID 0000.0001)                 7.387277930931242E+10,      /* I =356 */
(PID.TID 0000.0001)                 7.607731167900534E+10,      /* I =357 */
(PID.TID 0000.0001)                 7.856766377623761E+10,      /* I =358 */
(PID.TID 0000.0001)                 8.122290115048837E+10,      /* I =359 */
(PID.TID 0000.0001)                 8.393053257714168E+10,      /* I =360 */
(PID.TID 0000.0001)                 8.658933893111111E+10,      /* I =361 */
(PID.TID 0000.0001)                 8.911005636639276E+10,      /* I =362 */
(PID.TID 0000.0001)                 9.141512166177710E+10,      /* I =363 */
(PID.TID 0000.0001)                 9.343821140062714E+10,      /* I =364 */
(PID.TID 0000.0001)                 9.512391461453923E+10,      /* I =365 */
(PID.TID 0000.0001)                 9.642763033424841E+10,      /* I =366 */
(PID.TID 0000.0001)                 9.731565189661444E+10,      /* I =367 */
(PID.TID 0000.0001)                 9.776536132335065E+10,      /* I =368 */
(PID.TID 0000.0001)                 9.776536132332361E+10,      /* I =369 */
(PID.TID 0000.0001)                 9.731565189660542E+10,      /* I =370 */
(PID.TID 0000.0001)                 9.642763033423941E+10,      /* I =371 */
(PID.TID 0000.0001)                 9.512391461452121E+10,      /* I =372 */
(PID.TID 0000.0001)                 9.343821140059109E+10,      /* I =373 */
(PID.TID 0000.0001)                 9.141512166179512E+10,      /* I =374 */
(PID.TID 0000.0001)                 8.911005636635672E+10,      /* I =375 */
(PID.TID 0000.0001)                 8.658933893113814E+10,      /* I =376 */
(PID.TID 0000.0001)                 8.393053257718672E+10,      /* I =377 */
(PID.TID 0000.0001)                 8.122290115046133E+10,      /* I =378 */
(PID.TID 0000.0001)                 7.856766377620157E+10,      /* I =379 */
(PID.TID 0000.0001)                 7.607731167898732E+10,      /* I =380 */
(PID.TID 0000.0001)                 7.387277930931242E+10,      /* I =381 */
(PID.TID 0000.0001)                 7.207697049620459E+10,      /* I =382 */
(PID.TID 0000.0001)                 7.080359444504936E+10,      /* I =383 */
(PID.TID 0000.0001)                 7.014205907741882E+10,      /* I =384 */
(PID.TID 0000.0001)                 1.216690346714270E+10,      /* I =385 */
(PID.TID 0000.0001)                 2.390126200743558E+10,      /* I =386 */
(PID.TID 0000.0001)                 3.341968103208270E+10,      /* I =387 */
(PID.TID 0000.0001)                 4.168532893152940E+10,      /* I =388 */
(PID.TID 0000.0001)                 4.909074590409593E+10,      /* I =389 */
(PID.TID 0000.0001)                 5.581203765722643E+10,      /* I =390 */
(PID.TID 0000.0001)                 6.193257577506788E+10,      /* I =391 */
(PID.TID 0000.0001)                 6.748840226738273E+10,      /* I =392 */
(PID.TID 0000.0001)                 7.248875782324815E+10,      /* I =393 */
(PID.TID 0000.0001)                 7.692702995909871E+10,      /* I =394 */
(PID.TID 0000.0001)                 8.078743937057304E+10,      /* I =395 */
(PID.TID 0000.0001)                 8.404959656062837E+10,      /* I =396 */
(PID.TID 0000.0001)                 8.669186205742538E+10,      /* I =397 */
(PID.TID 0000.0001)                 8.869393350723613E+10,      /* I =398 */
(PID.TID 0000.0001)                 9.003884657168852E+10,      /* I =399 */
(PID.TID 0000.0001)     2 @  9.071447638299399E+10,             /* I =400:401 */
(PID.TID 0000.0001)                 9.003884657168852E+10,      /* I =402 */
(PID.TID 0000.0001)                 8.869393350723613E+10,      /* I =403 */
(PID.TID 0000.0001)                 8.669186205742538E+10,      /* I =404 */
(PID.TID 0000.0001)                 8.404959656062837E+10,      /* I =405 */
(PID.TID 0000.0001)                 8.078743937057304E+10,      /* I =406 */
(PID.TID 0000.0001)                 7.692702995909871E+10,      /* I =407 */
(PID.TID 0000.0001)                 7.248875782324815E+10,      /* I =408 */
(PID.TID 0000.0001)                 6.748840226738273E+10,      /* I =409 */
(PID.TID 0000.0001)                 6.193257577506788E+10,      /* I =410 */
(PID.TID 0000.0001)                 5.581203765722643E+10,      /* I =411 */
(PID.TID 0000.0001)                 4.909074590409593E+10,      /* I =412 */
(PID.TID 0000.0001)                 4.168532893152940E+10,      /* I =413 */
(PID.TID 0000.0001)                 3.341968103208270E+10,      /* I =414 */
(PID.TID 0000.0001)                 2.390126200743558E+10,      /* I =415 */
(PID.TID 0000.0001)                 1.216690346714270E+10,      /* I =416 */
(PID.TID 0000.0001)                 7.014205907741882E+10,      /* I =417 */
(PID.TID 0000.0001)                 7.080359444504936E+10,      /* I =418 */
(PID.TID 0000.0001)                 7.207697049620459E+10,      /* I =419 */
(PID.TID 0000.0001)                 7.387277930931242E+10,      /* I =420 */
(PID.TID 0000.0001)                 7.607731167898732E+10,      /* I =421 */
(PID.TID 0000.0001)                 7.856766377620157E+10,      /* I =422 */
(PID.TID 0000.0001)                 8.122290115046133E+10,      /* I =423 */
(PID.TID 0000.0001)                 8.393053257718672E+10,      /* I =424 */
(PID.TID 0000.0001)                 8.658933893113814E+10,      /* I =425 */
(PID.TID 0000.0001)                 8.911005636635672E+10,      /* I =426 */
(PID.TID 0000.0001)                 9.141512166179512E+10,      /* I =427 */
(PID.TID 0000.0001)                 9.343821140059109E+10,      /* I =428 */
(PID.TID 0000.0001)                 9.512391461452121E+10,      /* I =429 */
(PID.TID 0000.0001)                 9.642763033423941E+10,      /* I =430 */
(PID.TID 0000.0001)                 9.731565189660542E+10,      /* I =431 */
(PID.TID 0000.0001)                 9.776536132332361E+10,      /* I =432 */
(PID.TID 0000.0001)                 9.776536132335065E+10,      /* I =433 */
(PID.TID 0000.0001)                 9.731565189661444E+10,      /* I =434 */
(PID.TID 0000.0001)                 9.642763033424841E+10,      /* I =435 */
(PID.TID 0000.0001)                 9.512391461453923E+10,      /* I =436 */
(PID.TID 0000.0001)                 9.343821140062714E+10,      /* I =437 */
(PID.TID 0000.0001)                 9.141512166177710E+10,      /* I =438 */
(PID.TID 0000.0001)                 8.911005636639276E+10,      /* I =439 */
(PID.TID 0000.0001)                 8.658933893111111E+10,      /* I =440 */
(PID.TID 0000.0001)                 8.393053257714168E+10,      /* I =441 */
(PID.TID 0000.0001)                 8.122290115048837E+10,      /* I =442 */
(PID.TID 0000.0001)                 7.856766377623761E+10,      /* I =443 */
(PID.TID 0000.0001)                 7.607731167900534E+10,      /* I =444 */
(PID.TID 0000.0001)                 7.387277930931242E+10,      /* I =445 */
(PID.TID 0000.0001)                 7.207697049617757E+10,      /* I =446 */
(PID.TID 0000.0001)                 7.080359444504936E+10,      /* I =447 */
(PID.TID 0000.0001)                 7.014205907742783E+10,      /* I =448 */
(PID.TID 0000.0001)                 9.083293515008307E+10,      /* I =449 */
(PID.TID 0000.0001)                 9.110170898494536E+10,      /* I =450 */
(PID.TID 0000.0001)                 9.162886297688426E+10,      /* I =451 */
(PID.TID 0000.0001)                 9.239403136821951E+10,      /* I =452 */
(PID.TID 0000.0001)                 9.336769520564153E+10,      /* I =453 */
(PID.TID 0000.0001)                 9.451235404855287E+10,      /* I =454 */
(PID.TID 0000.0001)                 9.578399259392229E+10,      /* I =455 */
(PID.TID 0000.0001)                 9.713377776174072E+10,      /* I =456 */
(PID.TID 0000.0001)                 9.850992024629108E+10,      /* I =457 */
(PID.TID 0000.0001)                 9.985963523714983E+10,      /* I =458 */
(PID.TID 0000.0001)                 1.011311375396738E+11,      /* I =459 */
(PID.TID 0000.0001)                 1.022756055022041E+11,      /* I =460 */
(PID.TID 0000.0001)                 1.032490462723345E+11,      /* I =461 */
(PID.TID 0000.0001)                 1.040139933533592E+11,      /* I =462 */
(PID.TID 0000.0001)                 1.045409681097387E+11,      /* I =463 */
(PID.TID 0000.0001)     2 @  1.048096527455915E+11,             /* I =464:465 */
(PID.TID 0000.0001)                 1.045409681097387E+11,      /* I =466 */
(PID.TID 0000.0001)                 1.040139933533592E+11,      /* I =467 */
(PID.TID 0000.0001)                 1.032490462723345E+11,      /* I =468 */
(PID.TID 0000.0001)                 1.022756055022041E+11,      /* I =469 */
(PID.TID 0000.0001)                 1.011311375396738E+11,      /* I =470 */
(PID.TID 0000.0001)                 9.985963523714983E+10,      /* I =471 */
(PID.TID 0000.0001)                 9.850992024629108E+10,      /* I =472 */
(PID.TID 0000.0001)                 9.713377776174072E+10,      /* I =473 */
(PID.TID 0000.0001)                 9.578399259392229E+10,      /* I =474 */
(PID.TID 0000.0001)                 9.451235404855287E+10,      /* I =475 */
(PID.TID 0000.0001)                 9.336769520564153E+10,      /* I =476 */
(PID.TID 0000.0001)                 9.239403136821951E+10,      /* I =477 */
(PID.TID 0000.0001)                 9.162886297688426E+10,      /* I =478 */
(PID.TID 0000.0001)                 9.110170898494536E+10,      /* I =479 */
(PID.TID 0000.0001)                 9.083293515008307E+10,      /* I =480 */
(PID.TID 0000.0001)                 7.014205907742783E+10,      /* I =481 */
(PID.TID 0000.0001)                 7.080359444504936E+10,      /* I =482 */
(PID.TID 0000.0001)                 7.207697049617757E+10,      /* I =483 */
(PID.TID 0000.0001)                 7.387277930931242E+10,      /* I =484 */
(PID.TID 0000.0001)                 7.607731167900534E+10,      /* I =485 */
(PID.TID 0000.0001)                 7.856766377623761E+10,      /* I =486 */
(PID.TID 0000.0001)                 8.122290115048837E+10,      /* I =487 */
(PID.TID 0000.0001)                 8.393053257714168E+10,      /* I =488 */
(PID.TID 0000.0001)                 8.658933893111111E+10,      /* I =489 */
(PID.TID 0000.0001)                 8.911005636639276E+10,      /* I =490 */
(PID.TID 0000.0001)                 9.141512166177710E+10,      /* I =491 */
(PID.TID 0000.0001)                 9.343821140062714E+10,      /* I =492 */
(PID.TID 0000.0001)                 9.512391461453923E+10,      /* I =493 */
(PID.TID 0000.0001)                 9.642763033424841E+10,      /* I =494 */
(PID.TID 0000.0001)                 9.731565189661444E+10,      /* I =495 */
(PID.TID 0000.0001)                 9.776536132335065E+10,      /* I =496 */
(PID.TID 0000.0001)                 9.776536132332361E+10,      /* I =497 */
(PID.TID 0000.0001)                 9.731565189660542E+10,      /* I =498 */
(PID.TID 0000.0001)                 9.642763033423941E+10,      /* I =499 */
(PID.TID 0000.0001)                 9.512391461452121E+10,      /* I =500 */
(PID.TID 0000.0001)                 9.343821140059109E+10,      /* I =501 */
(PID.TID 0000.0001)                 9.141512166179512E+10,      /* I =502 */
(PID.TID 0000.0001)                 8.911005636635672E+10,      /* I =503 */
(PID.TID 0000.0001)                 8.658933893113814E+10,      /* I =504 */
(PID.TID 0000.0001)                 8.393053257718672E+10,      /* I =505 */
(PID.TID 0000.0001)                 8.122290115046133E+10,      /* I =506 */
(PID.TID 0000.0001)                 7.856766377620157E+10,      /* I =507 */
(PID.TID 0000.0001)                 7.607731167898732E+10,      /* I =508 */
(PID.TID 0000.0001)                 7.387277930931242E+10,      /* I =509 */
(PID.TID 0000.0001)                 7.207697049620459E+10,      /* I =510 */
(PID.TID 0000.0001)                 7.080359444504936E+10,      /* I =511 */
(PID.TID 0000.0001)                 7.014205907741882E+10,      /* I =512 */
(PID.TID 0000.0001)                 1.216690346714270E+10,      /* I =513 */
(PID.TID 0000.0001)                 2.390126200743558E+10,      /* I =514 */
(PID.TID 0000.0001)                 3.341968103208270E+10,      /* I =515 */
(PID.TID 0000.0001)                 4.168532893152940E+10,      /* I =516 */
(PID.TID 0000.0001)                 4.909074590409593E+10,      /* I =517 */
(PID.TID 0000.0001)                 5.581203765722643E+10,      /* I =518 */
(PID.TID 0000.0001)                 6.193257577506788E+10,      /* I =519 */
(PID.TID 0000.0001)                 6.748840226738273E+10,      /* I =520 */
(PID.TID 0000.0001)                 7.248875782324815E+10,      /* I =521 */
(PID.TID 0000.0001)                 7.692702995909871E+10,      /* I =522 */
(PID.TID 0000.0001)                 8.078743937057304E+10,      /* I =523 */
(PID.TID 0000.0001)                 8.404959656062837E+10,      /* I =524 */
(PID.TID 0000.0001)                 8.669186205742538E+10,      /* I =525 */
(PID.TID 0000.0001)                 8.869393350723613E+10,      /* I =526 */
(PID.TID 0000.0001)                 9.003884657168852E+10,      /* I =527 */
(PID.TID 0000.0001)     2 @  9.071447638299399E+10,             /* I =528:529 */
(PID.TID 0000.0001)                 9.003884657168852E+10,      /* I =530 */
(PID.TID 0000.0001)                 8.869393350723613E+10,      /* I =531 */
(PID.TID 0000.0001)                 8.669186205742538E+10,      /* I =532 */
(PID.TID 0000.0001)                 8.404959656062837E+10,      /* I =533 */
(PID.TID 0000.0001)                 8.078743937057304E+10,      /* I =534 */
(PID.TID 0000.0001)                 7.692702995909871E+10,      /* I =535 */
(PID.TID 0000.0001)                 7.248875782324815E+10,      /* I =536 */
(PID.TID 0000.0001)                 6.748840226738273E+10,      /* I =537 */
(PID.TID 0000.0001)                 6.193257577506788E+10,      /* I =538 */
(PID.TID 0000.0001)                 5.581203765722643E+10,      /* I =539 */
(PID.TID 0000.0001)                 4.909074590409593E+10,      /* I =540 */
(PID.TID 0000.0001)                 4.168532893152940E+10,      /* I =541 */
(PID.TID 0000.0001)                 3.341968103208270E+10,      /* I =542 */
(PID.TID 0000.0001)                 2.390126200743558E+10,      /* I =543 */
(PID.TID 0000.0001)                 1.216690346714270E+10,      /* I =544 */
(PID.TID 0000.0001)                 7.014205907741882E+10,      /* I =545 */
(PID.TID 0000.0001)                 7.080359444504936E+10,      /* I =546 */
(PID.TID 0000.0001)                 7.207697049620459E+10,      /* I =547 */
(PID.TID 0000.0001)                 7.387277930931242E+10,      /* I =548 */
(PID.TID 0000.0001)                 7.607731167898732E+10,      /* I =549 */
(PID.TID 0000.0001)                 7.856766377620157E+10,      /* I =550 */
(PID.TID 0000.0001)                 8.122290115046133E+10,      /* I =551 */
(PID.TID 0000.0001)                 8.393053257718672E+10,      /* I =552 */
(PID.TID 0000.0001)                 8.658933893113814E+10,      /* I =553 */
(PID.TID 0000.0001)                 8.911005636635672E+10,      /* I =554 */
(PID.TID 0000.0001)                 9.141512166179512E+10,      /* I =555 */
(PID.TID 0000.0001)                 9.343821140059109E+10,      /* I =556 */
(PID.TID 0000.0001)                 9.512391461452121E+10,      /* I =557 */
(PID.TID 0000.0001)                 9.642763033423941E+10,      /* I =558 */
(PID.TID 0000.0001)                 9.731565189660542E+10,      /* I =559 */
(PID.TID 0000.0001)                 9.776536132332361E+10,      /* I =560 */
(PID.TID 0000.0001)                 9.776536132335065E+10,      /* I =561 */
(PID.TID 0000.0001)                 9.731565189661444E+10,      /* I =562 */
(PID.TID 0000.0001)                 9.642763033424841E+10,      /* I =563 */
(PID.TID 0000.0001)                 9.512391461453923E+10,      /* I =564 */
(PID.TID 0000.0001)                 9.343821140062714E+10,      /* I =565 */
(PID.TID 0000.0001)                 9.141512166177710E+10,      /* I =566 */
(PID.TID 0000.0001)                 8.911005636639276E+10,      /* I =567 */
(PID.TID 0000.0001)                 8.658933893111111E+10,      /* I =568 */
(PID.TID 0000.0001)                 8.393053257714168E+10,      /* I =569 */
(PID.TID 0000.0001)                 8.122290115048837E+10,      /* I =570 */
(PID.TID 0000.0001)                 7.856766377623761E+10,      /* I =571 */
(PID.TID 0000.0001)                 7.607731167900534E+10,      /* I =572 */
(PID.TID 0000.0001)                 7.387277930931242E+10,      /* I =573 */
(PID.TID 0000.0001)                 7.207697049617757E+10,      /* I =574 */
(PID.TID 0000.0001)                 7.080359444504936E+10,      /* I =575 */
(PID.TID 0000.0001)                 7.014205907742783E+10,      /* I =576 */
(PID.TID 0000.0001)                 9.083293515008307E+10,      /* I =577 */
(PID.TID 0000.0001)                 9.110170898494536E+10,      /* I =578 */
(PID.TID 0000.0001)                 9.162886297688426E+10,      /* I =579 */
(PID.TID 0000.0001)                 9.239403136821951E+10,      /* I =580 */
(PID.TID 0000.0001)                 9.336769520564153E+10,      /* I =581 */
(PID.TID 0000.0001)                 9.451235404855287E+10,      /* I =582 */
(PID.TID 0000.0001)                 9.578399259392229E+10,      /* I =583 */
(PID.TID 0000.0001)                 9.713377776174072E+10,      /* I =584 */
(PID.TID 0000.0001)                 9.850992024629108E+10,      /* I =585 */
(PID.TID 0000.0001)                 9.985963523714983E+10,      /* I =586 */
(PID.TID 0000.0001)                 1.011311375396738E+11,      /* I =587 */
(PID.TID 0000.0001)                 1.022756055022041E+11,      /* I =588 */
(PID.TID 0000.0001)                 1.032490462723345E+11,      /* I =589 */
(PID.TID 0000.0001)                 1.040139933533592E+11,      /* I =590 */
(PID.TID 0000.0001)                 1.045409681097387E+11,      /* I =591 */
(PID.TID 0000.0001)     2 @  1.048096527455915E+11,             /* I =592:593 */
(PID.TID 0000.0001)                 1.045409681097387E+11,      /* I =594 */
(PID.TID 0000.0001)                 1.040139933533592E+11,      /* I =595 */
(PID.TID 0000.0001)                 1.032490462723345E+11,      /* I =596 */
(PID.TID 0000.0001)                 1.022756055022041E+11,      /* I =597 */
(PID.TID 0000.0001)                 1.011311375396738E+11,      /* I =598 */
(PID.TID 0000.0001)                 9.985963523714983E+10,      /* I =599 */
(PID.TID 0000.0001)                 9.850992024629108E+10,      /* I =600 */
(PID.TID 0000.0001)                 9.713377776174072E+10,      /* I =601 */
(PID.TID 0000.0001)                 9.578399259392229E+10,      /* I =602 */
(PID.TID 0000.0001)                 9.451235404855287E+10,      /* I =603 */
(PID.TID 0000.0001)                 9.336769520564153E+10,      /* I =604 */
(PID.TID 0000.0001)                 9.239403136821951E+10,      /* I =605 */
(PID.TID 0000.0001)                 9.162886297688426E+10,      /* I =606 */
(PID.TID 0000.0001)                 9.110170898494536E+10,      /* I =607 */
(PID.TID 0000.0001)                 9.083293515008307E+10,      /* I =608 */
(PID.TID 0000.0001)                 7.014205907742783E+10,      /* I =609 */
(PID.TID 0000.0001)                 7.080359444504936E+10,      /* I =610 */
(PID.TID 0000.0001)                 7.207697049617757E+10,      /* I =611 */
(PID.TID 0000.0001)                 7.387277930931242E+10,      /* I =612 */
(PID.TID 0000.0001)                 7.607731167900534E+10,      /* I =613 */
(PID.TID 0000.0001)                 7.856766377623761E+10,      /* I =614 */
(PID.TID 0000.0001)                 8.122290115048837E+10,      /* I =615 */
(PID.TID 0000.0001)                 8.393053257714168E+10,      /* I =616 */
(PID.TID 0000.0001)                 8.658933893111111E+10,      /* I =617 */
(PID.TID 0000.0001)                 8.911005636639276E+10,      /* I =618 */
(PID.TID 0000.0001)                 9.141512166177710E+10,      /* I =619 */
(PID.TID 0000.0001)                 9.343821140062714E+10,      /* I =620 */
(PID.TID 0000.0001)                 9.512391461453923E+10,      /* I =621 */
(PID.TID 0000.0001)                 9.642763033424841E+10,      /* I =622 */
(PID.TID 0000.0001)                 9.731565189661444E+10,      /* I =623 */
(PID.TID 0000.0001)                 9.776536132335065E+10,      /* I =624 */
(PID.TID 0000.0001)                 9.776536132332361E+10,      /* I =625 */
(PID.TID 0000.0001)                 9.731565189660542E+10,      /* I =626 */
(PID.TID 0000.0001)                 9.642763033423941E+10,      /* I =627 */
(PID.TID 0000.0001)                 9.512391461452121E+10,      /* I =628 */
(PID.TID 0000.0001)                 9.343821140059109E+10,      /* I =629 */
(PID.TID 0000.0001)                 9.141512166179512E+10,      /* I =630 */
(PID.TID 0000.0001)                 8.911005636635672E+10,      /* I =631 */
(PID.TID 0000.0001)                 8.658933893113814E+10,      /* I =632 */
(PID.TID 0000.0001)                 8.393053257718672E+10,      /* I =633 */
(PID.TID 0000.0001)                 8.122290115046133E+10,      /* I =634 */
(PID.TID 0000.0001)                 7.856766377620157E+10,      /* I =635 */
(PID.TID 0000.0001)                 7.607731167898732E+10,      /* I =636 */
(PID.TID 0000.0001)                 7.387277930931242E+10,      /* I =637 */
(PID.TID 0000.0001)                 7.207697049620459E+10,      /* I =638 */
(PID.TID 0000.0001)                 7.080359444504936E+10,      /* I =639 */
(PID.TID 0000.0001)                 7.014205907741882E+10,      /* I =640 */
(PID.TID 0000.0001)                 1.216690346714270E+10,      /* I =641 */
(PID.TID 0000.0001)                 2.390126200743558E+10,      /* I =642 */
(PID.TID 0000.0001)                 3.341968103208270E+10,      /* I =643 */
(PID.TID 0000.0001)                 4.168532893152940E+10,      /* I =644 */
(PID.TID 0000.0001)                 4.909074590409593E+10,      /* I =645 */
(PID.TID 0000.0001)                 5.581203765722643E+10,      /* I =646 */
(PID.TID 0000.0001)                 6.193257577506788E+10,      /* I =647 */
(PID.TID 0000.0001)                 6.748840226738273E+10,      /* I =648 */
(PID.TID 0000.0001)                 7.248875782324815E+10,      /* I =649 */
(PID.TID 0000.0001)                 7.692702995909871E+10,      /* I =650 */
(PID.TID 0000.0001)                 8.078743937057304E+10,      /* I =651 */
(PID.TID 0000.0001)                 8.404959656062837E+10,      /* I =652 */
(PID.TID 0000.0001)                 8.669186205742538E+10,      /* I =653 */
(PID.TID 0000.0001)                 8.869393350723613E+10,      /* I =654 */
(PID.TID 0000.0001)                 9.003884657168852E+10,      /* I =655 */
(PID.TID 0000.0001)     2 @  9.071447638299399E+10,             /* I =656:657 */
(PID.TID 0000.0001)                 9.003884657168852E+10,      /* I =658 */
(PID.TID 0000.0001)                 8.869393350723613E+10,      /* I =659 */
(PID.TID 0000.0001)                 8.669186205742538E+10,      /* I =660 */
(PID.TID 0000.0001)                 8.404959656062837E+10,      /* I =661 */
(PID.TID 0000.0001)                 8.078743937057304E+10,      /* I =662 */
(PID.TID 0000.0001)                 7.692702995909871E+10,      /* I =663 */
(PID.TID 0000.0001)                 7.248875782324815E+10,      /* I =664 */
(PID.TID 0000.0001)                 6.748840226738273E+10,      /* I =665 */
(PID.TID 0000.0001)                 6.193257577506788E+10,      /* I =666 */
(PID.TID 0000.0001)                 5.581203765722643E+10,      /* I =667 */
(PID.TID 0000.0001)                 4.909074590409593E+10,      /* I =668 */
(PID.TID 0000.0001)                 4.168532893152940E+10,      /* I =669 */
(PID.TID 0000.0001)                 3.341968103208270E+10,      /* I =670 */
(PID.TID 0000.0001)                 2.390126200743558E+10,      /* I =671 */
(PID.TID 0000.0001)                 1.216690346714270E+10,      /* I =672 */
(PID.TID 0000.0001)                 7.014205907741882E+10,      /* I =673 */
(PID.TID 0000.0001)                 7.080359444504936E+10,      /* I =674 */
(PID.TID 0000.0001)                 7.207697049620459E+10,      /* I =675 */
(PID.TID 0000.0001)                 7.387277930931242E+10,      /* I =676 */
(PID.TID 0000.0001)                 7.607731167898732E+10,      /* I =677 */
(PID.TID 0000.0001)                 7.856766377620157E+10,      /* I =678 */
(PID.TID 0000.0001)                 8.122290115046133E+10,      /* I =679 */
(PID.TID 0000.0001)                 8.393053257718672E+10,      /* I =680 */
(PID.TID 0000.0001)                 8.658933893113814E+10,      /* I =681 */
(PID.TID 0000.0001)                 8.911005636635672E+10,      /* I =682 */
(PID.TID 0000.0001)                 9.141512166179512E+10,      /* I =683 */
(PID.TID 0000.0001)                 9.343821140059109E+10,      /* I =684 */
(PID.TID 0000.0001)                 9.512391461452121E+10,      /* I =685 */
(PID.TID 0000.0001)                 9.642763033423941E+10,      /* I =686 */
(PID.TID 0000.0001)                 9.731565189660542E+10,      /* I =687 */
(PID.TID 0000.0001)                 9.776536132332361E+10,      /* I =688 */
(PID.TID 0000.0001)                 9.776536132335065E+10,      /* I =689 */
(PID.TID 0000.0001)                 9.731565189661444E+10,      /* I =690 */
(PID.TID 0000.0001)                 9.642763033424841E+10,      /* I =691 */
(PID.TID 0000.0001)                 9.512391461453923E+10,      /* I =692 */
(PID.TID 0000.0001)                 9.343821140062714E+10,      /* I =693 */
(PID.TID 0000.0001)                 9.141512166177710E+10,      /* I =694 */
(PID.TID 0000.0001)                 8.911005636639276E+10,      /* I =695 */
(PID.TID 0000.0001)                 8.658933893111111E+10,      /* I =696 */
(PID.TID 0000.0001)                 8.393053257714168E+10,      /* I =697 */
(PID.TID 0000.0001)                 8.122290115048837E+10,      /* I =698 */
(PID.TID 0000.0001)                 7.856766377623761E+10,      /* I =699 */
(PID.TID 0000.0001)                 7.607731167900534E+10,      /* I =700 */
(PID.TID 0000.0001)                 7.387277930931242E+10,      /* I =701 */
(PID.TID 0000.0001)                 7.207697049617757E+10,      /* I =702 */
(PID.TID 0000.0001)                 7.080359444504936E+10,      /* I =703 */
(PID.TID 0000.0001)                 7.014205907742783E+10,      /* I =704 */
(PID.TID 0000.0001)                 9.083293515008307E+10,      /* I =705 */
(PID.TID 0000.0001)                 9.110170898494536E+10,      /* I =706 */
(PID.TID 0000.0001)                 9.162886297688426E+10,      /* I =707 */
(PID.TID 0000.0001)                 9.239403136821951E+10,      /* I =708 */
(PID.TID 0000.0001)                 9.336769520564153E+10,      /* I =709 */
(PID.TID 0000.0001)                 9.451235404855287E+10,      /* I =710 */
(PID.TID 0000.0001)                 9.578399259392229E+10,      /* I =711 */
(PID.TID 0000.0001)                 9.713377776174072E+10,      /* I =712 */
(PID.TID 0000.0001)                 9.850992024629108E+10,      /* I =713 */
(PID.TID 0000.0001)                 9.985963523714983E+10,      /* I =714 */
(PID.TID 0000.0001)                 1.011311375396738E+11,      /* I =715 */
(PID.TID 0000.0001)                 1.022756055022041E+11,      /* I =716 */
(PID.TID 0000.0001)                 1.032490462723345E+11,      /* I =717 */
(PID.TID 0000.0001)                 1.040139933533592E+11,      /* I =718 */
(PID.TID 0000.0001)                 1.045409681097387E+11,      /* I =719 */
(PID.TID 0000.0001)     2 @  1.048096527455915E+11,             /* I =720:721 */
(PID.TID 0000.0001)                 1.045409681097387E+11,      /* I =722 */
(PID.TID 0000.0001)                 1.040139933533592E+11,      /* I =723 */
(PID.TID 0000.0001)                 1.032490462723345E+11,      /* I =724 */
(PID.TID 0000.0001)                 1.022756055022041E+11,      /* I =725 */
(PID.TID 0000.0001)                 1.011311375396738E+11,      /* I =726 */
(PID.TID 0000.0001)                 9.985963523714983E+10,      /* I =727 */
(PID.TID 0000.0001)                 9.850992024629108E+10,      /* I =728 */
(PID.TID 0000.0001)                 9.713377776174072E+10,      /* I =729 */
(PID.TID 0000.0001)                 9.578399259392229E+10,      /* I =730 */
(PID.TID 0000.0001)                 9.451235404855287E+10,      /* I =731 */
(PID.TID 0000.0001)                 9.336769520564153E+10,      /* I =732 */
(PID.TID 0000.0001)                 9.239403136821951E+10,      /* I =733 */
(PID.TID 0000.0001)                 9.162886297688426E+10,      /* I =734 */
(PID.TID 0000.0001)                 9.110170898494536E+10,      /* I =735 */
(PID.TID 0000.0001)                 9.083293515008307E+10,      /* I =736 */
(PID.TID 0000.0001)                 7.014205907742783E+10,      /* I =737 */
(PID.TID 0000.0001)                 7.080359444504936E+10,      /* I =738 */
(PID.TID 0000.0001)                 7.207697049617757E+10,      /* I =739 */
(PID.TID 0000.0001)                 7.387277930931242E+10,      /* I =740 */
(PID.TID 0000.0001)                 7.607731167900534E+10,      /* I =741 */
(PID.TID 0000.0001)                 7.856766377623761E+10,      /* I =742 */
(PID.TID 0000.0001)                 8.122290115048837E+10,      /* I =743 */
(PID.TID 0000.0001)                 8.393053257714168E+10,      /* I =744 */
(PID.TID 0000.0001)                 8.658933893111111E+10,      /* I =745 */
(PID.TID 0000.0001)                 8.911005636639276E+10,      /* I =746 */
(PID.TID 0000.0001)                 9.141512166177710E+10,      /* I =747 */
(PID.TID 0000.0001)                 9.343821140062714E+10,      /* I =748 */
(PID.TID 0000.0001)                 9.512391461453923E+10,      /* I =749 */
(PID.TID 0000.0001)                 9.642763033424841E+10,      /* I =750 */
(PID.TID 0000.0001)                 9.731565189661444E+10,      /* I =751 */
(PID.TID 0000.0001)                 9.776536132335065E+10,      /* I =752 */
(PID.TID 0000.0001)                 9.776536132332361E+10,      /* I =753 */
(PID.TID 0000.0001)                 9.731565189660542E+10,      /* I =754 */
(PID.TID 0000.0001)                 9.642763033423941E+10,      /* I =755 */
(PID.TID 0000.0001)                 9.512391461452121E+10,      /* I =756 */
(PID.TID 0000.0001)                 9.343821140059109E+10,      /* I =757 */
(PID.TID 0000.0001)                 9.141512166179512E+10,      /* I =758 */
(PID.TID 0000.0001)                 8.911005636635672E+10,      /* I =759 */
(PID.TID 0000.0001)                 8.658933893113814E+10,      /* I =760 */
(PID.TID 0000.0001)                 8.393053257718672E+10,      /* I =761 */
(PID.TID 0000.0001)                 8.122290115046133E+10,      /* I =762 */
(PID.TID 0000.0001)                 7.856766377620157E+10,      /* I =763 */
(PID.TID 0000.0001)                 7.607731167898732E+10,      /* I =764 */
(PID.TID 0000.0001)                 7.387277930931242E+10,      /* I =765 */
(PID.TID 0000.0001)                 7.207697049620459E+10,      /* I =766 */
(PID.TID 0000.0001)                 7.080359444504936E+10,      /* I =767 */
(PID.TID 0000.0001)                 7.014205907741882E+10       /* I =768 */
(PID.TID 0000.0001)     ;
(PID.TID 0000.0001) rAs =  /* rAs(1,:,1,:) ( units: m^2 ) */
(PID.TID 0000.0001)                 1.216690346714270E+10,      /* J =  1 */
(PID.TID 0000.0001)                 1.974052138506315E+10,      /* J =  2 */
(PID.TID 0000.0001)                 2.943712825252015E+10,      /* J =  3 */
(PID.TID 0000.0001)                 3.801790263324359E+10,      /* J =  4 */
(PID.TID 0000.0001)                 4.571243814189866E+10,      /* J =  5 */
(PID.TID 0000.0001)                 5.269930713599979E+10,      /* J =  6 */
(PID.TID 0000.0001)                 5.907428494299063E+10,      /* J =  7 */
(PID.TID 0000.0001)                 6.488320895111514E+10       /* J =  8 */
(PID.TID 0000.0001)     ;
(PID.TID 0000.0001) globalArea = /* Integrated horizontal Area (m^2) */
(PID.TID 0000.0001)                 4.538924019823574E+14
(PID.TID 0000.0001)     ;
(PID.TID 0000.0001) // =======================================================
(PID.TID 0000.0001) // End of Model config. summary
(PID.TID 0000.0001) // =======================================================
(PID.TID 0000.0001) 
(PID.TID 0000.0001) == Packages configuration : Check & print summary ==
(PID.TID 0000.0001) 
(PID.TID 0000.0001) // =======================================================
(PID.TID 0000.0001) // CONFIG_CHECK : Normal End
(PID.TID 0000.0001) // =======================================================
(PID.TID 0000.0001) 
(PID.TID 0000.0001) // =======================================================
(PID.TID 0000.0001) // Field Initial Temperature at iteration          1
(PID.TID 0000.0001) // CMIN =          1.500000000000000E+01
(PID.TID 0000.0001) // CMAX =          1.500000000000000E+01
(PID.TID 0000.0001) // CINT =          0.000000000000000E+00
(PID.TID 0000.0001) // SYMBOLS (CMIN->CMAX): -abcdefghijklmnopqrstuvwxyz+
(PID.TID 0000.0001) //                  0.0: .
(PID.TID 0000.0001) // RANGE I (Lo:Hi:Step):(   1: 768:   1)
(PID.TID 0000.0001) // RANGE J (Lo:Hi:Step):(   8:   1:  -1)
(PID.TID 0000.0001) // RANGE K (Lo:Hi:Step):(   1:   1:   1)
(PID.TID 0000.0001) // =======================================================
(PID.TID 0000.0001) // =======================================================
(PID.TID 0000.0001) // END OF FIELD                                          =
(PID.TID 0000.0001) // =======================================================
(PID.TID 0000.0001) 
(PID.TID 0000.0001) // =======================================================
(PID.TID 0000.0001) // Field Initial Salinity at iteration          1
(PID.TID 0000.0001) // CMIN =          1.000000000000000E+32
(PID.TID 0000.0001) // CMAX =         -1.000000000000000E+32
(PID.TID 0000.0001) // CINT =          0.000000000000000E+00
(PID.TID 0000.0001) // SYMBOLS (CMIN->CMAX): -abcdefghijklmnopqrstuvwxyz+
(PID.TID 0000.0001) //                  0.0: .
(PID.TID 0000.0001) // RANGE I (Lo:Hi:Step):(   1: 768:   1)
(PID.TID 0000.0001) // RANGE J (Lo:Hi:Step):(   8:   1:  -1)
(PID.TID 0000.0001) // RANGE K (Lo:Hi:Step):(   1:   1:   1)
(PID.TID 0000.0001) // =======================================================
(PID.TID 0000.0001) // =======================================================
(PID.TID 0000.0001) // END OF FIELD                                          =
(PID.TID 0000.0001) // =======================================================
(PID.TID 0000.0001) 
(PID.TID 0000.0001)  MDS_READ_FIELD: opening global file: ssh_eq.bin
(PID.TID 0000.0001) Start initial hydrostatic pressure computation
(PID.TID 0000.0001) Pressure is predetermined for buoyancyRelation OCEANIC
(PID.TID 0000.0001) 
(PID.TID 0000.0001) // =======================================================
(PID.TID 0000.0001) // Model current state
(PID.TID 0000.0001) // =======================================================
(PID.TID 0000.0001) 
(PID.TID 0000.0001) // =======================================================
(PID.TID 0000.0001) // Begin MONITOR dynamic field statistics
(PID.TID 0000.0001) // =======================================================
(PID.TID 0000.0001) %MON time_tsnumber                =                     0
(PID.TID 0000.0001) %MON time_secondsf                =   0.0000000000000E+00
(PID.TID 0000.0001) %MON dynstat_eta_max              =   9.5367171719996E+00
(PID.TID 0000.0001) %MON dynstat_eta_min              =   0.0000000000000E+00
(PID.TID 0000.0001) %MON dynstat_eta_mean             =   5.6129684401127E-02
(PID.TID 0000.0001) %MON dynstat_eta_sd               =   5.6844641421500E-01
(PID.TID 0000.0001) %MON dynstat_eta_del2             =   5.0384311464417E-03
(PID.TID 0000.0001) %MON dynstat_uvel_max             =   0.0000000000000E+00
(PID.TID 0000.0001) %MON dynstat_uvel_min             =   0.0000000000000E+00
(PID.TID 0000.0001) %MON dynstat_uvel_mean            =   0.0000000000000E+00
(PID.TID 0000.0001) %MON dynstat_uvel_sd              =   0.0000000000000E+00
(PID.TID 0000.0001) %MON dynstat_uvel_del2            =   0.0000000000000E+00
(PID.TID 0000.0001) %MON dynstat_vvel_max             =   0.0000000000000E+00
(PID.TID 0000.0001) %MON dynstat_vvel_min             =   0.0000000000000E+00
(PID.TID 0000.0001) %MON dynstat_vvel_mean            =   0.0000000000000E+00
(PID.TID 0000.0001) %MON dynstat_vvel_sd              =   0.0000000000000E+00
(PID.TID 0000.0001) %MON dynstat_vvel_del2            =   0.0000000000000E+00
(PID.TID 0000.0001) %MON dynstat_wvel_max             =   0.0000000000000E+00
(PID.TID 0000.0001) %MON dynstat_wvel_min             =   0.0000000000000E+00
(PID.TID 0000.0001) %MON dynstat_wvel_mean            =   0.0000000000000E+00
(PID.TID 0000.0001) %MON dynstat_wvel_sd              =   0.0000000000000E+00
(PID.TID 0000.0001) %MON dynstat_wvel_del2            =   0.0000000000000E+00
(PID.TID 0000.0001) %MON dynstat_theta_max            =   1.5000000000000E+01
(PID.TID 0000.0001) %MON dynstat_theta_min            =   1.5000000000000E+01
(PID.TID 0000.0001) %MON dynstat_theta_mean           =   1.5000000000000E+01
(PID.TID 0000.0001) %MON dynstat_theta_sd             =   1.7763568394003E-15
(PID.TID 0000.0001) %MON dynstat_theta_del2           =   0.0000000000000E+00
(PID.TID 0000.0001) %MON dynstat_salt_max             =   0.0000000000000E+00
(PID.TID 0000.0001) %MON dynstat_salt_min             =   0.0000000000000E+00
(PID.TID 0000.0001) %MON dynstat_salt_mean            =   0.0000000000000E+00
(PID.TID 0000.0001) %MON dynstat_salt_sd              =   0.0000000000000E+00
(PID.TID 0000.0001) %MON dynstat_salt_del2            =   0.0000000000000E+00
(PID.TID 0000.0001) %MON extforcing_qnet_max          =   0.0000000000000E+00
(PID.TID 0000.0001) %MON extforcing_qnet_min          =   0.0000000000000E+00
(PID.TID 0000.0001) %MON extforcing_qnet_mean         =   0.0000000000000E+00
(PID.TID 0000.0001) %MON extforcing_qnet_sd           =   0.0000000000000E+00
(PID.TID 0000.0001) %MON extforcing_qnet_del2         =   0.0000000000000E+00
(PID.TID 0000.0001) %MON extforcing_qsw_max           =   0.0000000000000E+00
(PID.TID 0000.0001) %MON extforcing_qsw_min           =   0.0000000000000E+00
(PID.TID 0000.0001) %MON extforcing_qsw_mean          =   0.0000000000000E+00
(PID.TID 0000.0001) %MON extforcing_qsw_sd            =   0.0000000000000E+00
(PID.TID 0000.0001) %MON extforcing_qsw_del2          =   0.0000000000000E+00
(PID.TID 0000.0001) %MON extforcing_empmr_max         =   0.0000000000000E+00
(PID.TID 0000.0001) %MON extforcing_empmr_min         =   0.0000000000000E+00
(PID.TID 0000.0001) %MON extforcing_empmr_mean        =   0.0000000000000E+00
(PID.TID 0000.0001) %MON extforcing_empmr_sd          =   0.0000000000000E+00
(PID.TID 0000.0001) %MON extforcing_empmr_del2        =   0.0000000000000E+00
(PID.TID 0000.0001) %MON advcfl_uvel_max              =   0.0000000000000E+00
(PID.TID 0000.0001) %MON advcfl_vvel_max              =   0.0000000000000E+00
(PID.TID 0000.0001) %MON advcfl_wvel_max              =   0.0000000000000E+00
(PID.TID 0000.0001) %MON advcfl_W_hf_max              =   0.0000000000000E+00
(PID.TID 0000.0001) %MON pe_b_mean                    =   1.1726083037870E-03
(PID.TID 0000.0001) %MON ke_max                       =   0.0000000000000E+00
(PID.TID 0000.0001) %MON ke_mean                      =   0.0000000000000E+00
(PID.TID 0000.0001) %MON ke_vol                       =   6.2001702110790E+17
(PID.TID 0000.0001) %MON vort_r_min                   =   0.0000000000000E+00
(PID.TID 0000.0001) %MON vort_r_max                   =   0.0000000000000E+00
(PID.TID 0000.0001) %MON vort_a_mean                  =   4.2916559760387E-21
(PID.TID 0000.0001) %MON vort_a_sd                    =   8.8130260173797E-05
(PID.TID 0000.0001) %MON vort_p_mean                  =   4.3511624968410E-21
(PID.TID 0000.0001) %MON vort_p_sd                    =   8.9588950369082E-05
(PID.TID 0000.0001) %MON surfExpan_theta_mean         =   0.0000000000000E+00
(PID.TID 0000.0001) %MON surfExpan_salt_mean          =   0.0000000000000E+00
(PID.TID 0000.0001) // =======================================================
(PID.TID 0000.0001) // End MONITOR dynamic field statistics
(PID.TID 0000.0001) // =======================================================
 cg2d: Sum(rhs),rhsMax =  -2.57319988105478E+01  3.54777297546879E+03
(PID.TID 0000.0001)                    cg2d_init_res =    7.45534229389584E-02
(PID.TID 0000.0001)                       cg2d_iters =     5
(PID.TID 0000.0001)                         cg2d_res =    2.62126939861728E-14
(PID.TID 0000.0001) // =======================================================
(PID.TID 0000.0001) // Begin MONITOR dynamic field statistics
(PID.TID 0000.0001) // =======================================================
(PID.TID 0000.0001) %MON time_tsnumber                =                     1
(PID.TID 0000.0001) %MON time_secondsf                =   9.0000000000000E+02
(PID.TID 0000.0001) %MON dynstat_eta_max              =   9.3615701337835E+00
(PID.TID 0000.0001) %MON dynstat_eta_min              =   0.0000000000000E+00
(PID.TID 0000.0001) %MON dynstat_eta_mean             =   5.6129684401127E-02
(PID.TID 0000.0001) %MON dynstat_eta_sd               =   5.6069754844196E-01
(PID.TID 0000.0001) %MON dynstat_eta_del2             =   4.8982800264786E-03
(PID.TID 0000.0001) %MON dynstat_uvel_max             =   7.7147300763397E-02
(PID.TID 0000.0001) %MON dynstat_uvel_min             =  -7.7147300763397E-02
(PID.TID 0000.0001) %MON dynstat_uvel_mean            =  -1.0081715594978E-19
(PID.TID 0000.0001) %MON dynstat_uvel_sd              =   5.6077842779355E-03
(PID.TID 0000.0001) %MON dynstat_uvel_del2            =   9.1215421494408E-05
(PID.TID 0000.0001) %MON dynstat_vvel_max             =   7.7147300763397E-02
(PID.TID 0000.0001) %MON dynstat_vvel_min             =  -7.7147300763397E-02
(PID.TID 0000.0001) %MON dynstat_vvel_mean            =  -9.5626794180291E-20
(PID.TID 0000.0001) %MON dynstat_vvel_sd              =   5.6330570111323E-03
(PID.TID 0000.0001) %MON dynstat_vvel_del2            =   9.2047527145699E-05
(PID.TID 0000.0001) %MON dynstat_wvel_max             =   1.5172354266439E-04
(PID.TID 0000.0001) %MON dynstat_wvel_min             =  -3.8921564048023E-04
(PID.TID 0000.0001) %MON dynstat_wvel_mean            =   8.7120816601198E-23
(PID.TID 0000.0001) %MON dynstat_wvel_sd              =   2.3424981056329E-05
(PID.TID 0000.0001) %MON dynstat_wvel_del2            =   6.9362182025622E-07
(PID.TID 0000.0001) %MON dynstat_theta_max            =   1.5000000000000E+01
(PID.TID 0000.0001) %MON dynstat_theta_min            =   1.5000000000000E+01
(PID.TID 0000.0001) %MON dynstat_theta_mean           =   1.5000000000000E+01
(PID.TID 0000.0001) %MON dynstat_theta_sd             =   1.7763568394003E-15
(PID.TID 0000.0001) %MON dynstat_theta_del2           =   0.0000000000000E+00
(PID.TID 0000.0001) %MON dynstat_salt_max             =   0.0000000000000E+00
(PID.TID 0000.0001) %MON dynstat_salt_min             =   0.0000000000000E+00
(PID.TID 0000.0001) %MON dynstat_salt_mean            =   0.0000000000000E+00
(PID.TID 0000.0001) %MON dynstat_salt_sd              =   0.0000000000000E+00
(PID.TID 0000.0001) %MON dynstat_salt_del2            =   0.0000000000000E+00
(PID.TID 0000.0001) %MON extforcing_qnet_max          =   0.0000000000000E+00
(PID.TID 0000.0001) %MON extforcing_qnet_min          =   0.0000000000000E+00
(PID.TID 0000.0001) %MON extforcing_qnet_mean         =   0.0000000000000E+00
(PID.TID 0000.0001) %MON extforcing_qnet_sd           =   0.0000000000000E+00
(PID.TID 0000.0001) %MON extforcing_qnet_del2         =   0.0000000000000E+00
(PID.TID 0000.0001) %MON extforcing_qsw_max           =   0.0000000000000E+00
(PID.TID 0000.0001) %MON extforcing_qsw_min           =   0.0000000000000E+00
(PID.TID 0000.0001) %MON extforcing_qsw_mean          =   0.0000000000000E+00
(PID.TID 0000.0001) %MON extforcing_qsw_sd            =   0.0000000000000E+00
(PID.TID 0000.0001) %MON extforcing_qsw_del2          =   0.0000000000000E+00
(PID.TID 0000.0001) %MON extforcing_empmr_max         =   0.0000000000000E+00
(PID.TID 0000.0001) %MON extforcing_empmr_min         =   0.0000000000000E+00
(PID.TID 0000.0001) %MON extforcing_empmr_mean        =   0.0000000000000E+00
(PID.TID 0000.0001) %MON extforcing_empmr_sd          =   0.0000000000000E+00
(PID.TID 0000.0001) %MON extforcing_empmr_del2        =   0.0000000000000E+00
(PID.TID 0000.0001) %MON advcfl_uvel_max              =   2.1568620180715E-04
(PID.TID 0000.0001) %MON advcfl_vvel_max              =   2.1568620180715E-04
(PID.TID 0000.0001) %MON advcfl_wvel_max              =   5.1287566095491E-04
(PID.TID 0000.0001) %MON advcfl_W_hf_max              =   0.0000000000000E+00
(PID.TID 0000.0001) %MON pe_b_mean                    =   1.1411636019518E-03
(PID.TID 0000.0001) %MON ke_max                       =   3.1369118816719E-03
(PID.TID 0000.0001) %MON ke_mean                      =   3.1444701835171E-05
(PID.TID 0000.0001) %MON ke_vol                       =   6.2001702110790E+17
(PID.TID 0000.0001) %MON vort_r_min                   =  -1.0543782938326E-22
(PID.TID 0000.0001) %MON vort_r_max                   =   1.0543782938326E-22
(PID.TID 0000.0001) %MON vort_a_mean                  =   4.2916559760387E-21
(PID.TID 0000.0001) %MON vort_a_sd                    =   8.8130260173797E-05
(PID.TID 0000.0001) %MON vort_p_mean                  =   4.3511624968410E-21
(PID.TID 0000.0001) %MON vort_p_sd                    =   8.9588950369082E-05
(PID.TID 0000.0001) %MON surfExpan_theta_mean         =  -2.7565920378140E-21
(PID.TID 0000.0001) %MON surfExpan_salt_mean          =   0.0000000000000E+00
(PID.TID 0000.0001) // =======================================================
(PID.TID 0000.0001) // End MONITOR dynamic field statistics
(PID.TID 0000.0001) // =======================================================
 cg2d: Sum(rhs),rhsMax =  -2.72405400607102E+01  3.35130249919416E+03
(PID.TID 0000.0001)                    cg2d_init_res =    2.30513679581007E-01
(PID.TID 0000.0001)                       cg2d_iters =     5
(PID.TID 0000.0001)                         cg2d_res =    7.93771983739460E-14
(PID.TID 0000.0001) // =======================================================
(PID.TID 0000.0001) // Begin MONITOR dynamic field statistics
(PID.TID 0000.0001) // =======================================================
(PID.TID 0000.0001) %MON time_tsnumber                =                     2
(PID.TID 0000.0001) %MON time_secondsf                =   1.8000000000000E+03
(PID.TID 0000.0001) %MON dynstat_eta_max              =   8.8449236650182E+00
(PID.TID 0000.0001) %MON dynstat_eta_min              =   0.0000000000000E+00
(PID.TID 0000.0001) %MON dynstat_eta_mean             =   5.6129684401127E-02
(PID.TID 0000.0001) %MON dynstat_eta_sd               =   5.3837031245735E-01
(PID.TID 0000.0001) %MON dynstat_eta_del2             =   4.4872698466466E-03
(PID.TID 0000.0001) %MON dynstat_uvel_max             =   1.5007040890998E-01
(PID.TID 0000.0001) %MON dynstat_uvel_min             =  -1.5007040890998E-01
(PID.TID 0000.0001) %MON dynstat_uvel_mean            =  -2.0032692499910E-19
(PID.TID 0000.0001) %MON dynstat_uvel_sd              =   1.0938208670282E-02
(PID.TID 0000.0001) %MON dynstat_uvel_del2            =   1.7201803134655E-04
(PID.TID 0000.0001) %MON dynstat_vvel_max             =   1.5007040890998E-01
(PID.TID 0000.0001) %MON dynstat_vvel_min             =  -1.5007040890998E-01
(PID.TID 0000.0001) %MON dynstat_vvel_mean            =  -3.5137688626918E-20
(PID.TID 0000.0001) %MON dynstat_vvel_sd              =   1.0987504152361E-02
(PID.TID 0000.0001) %MON dynstat_vvel_del2            =   1.7358725257759E-04
(PID.TID 0000.0001) %MON dynstat_wvel_max             =   2.8079400826158E-04
(PID.TID 0000.0001) %MON dynstat_wvel_min             =  -7.5888762344273E-04
(PID.TID 0000.0001) %MON dynstat_wvel_mean            =   1.2903578689691E-22
(PID.TID 0000.0001) %MON dynstat_wvel_sd              =   4.5046698019113E-05
(PID.TID 0000.0001) %MON dynstat_wvel_del2            =   1.2650299645878E-06
(PID.TID 0000.0001) %MON dynstat_theta_max            =   1.5000000000000E+01
(PID.TID 0000.0001) %MON dynstat_theta_min            =   1.5000000000000E+01
(PID.TID 0000.0001) %MON dynstat_theta_mean           =   1.5000000000000E+01
(PID.TID 0000.0001) %MON dynstat_theta_sd             =   1.7763568394003E-15
(PID.TID 0000.0001) %MON dynstat_theta_del2           =   0.0000000000000E+00
(PID.TID 0000.0001) %MON dynstat_salt_max             =   0.0000000000000E+00
(PID.TID 0000.0001) %MON dynstat_salt_min             =   0.0000000000000E+00
(PID.TID 0000.0001) %MON dynstat_salt_mean            =   0.0000000000000E+00
(PID.TID 0000.0001) %MON dynstat_salt_sd              =   0.0000000000000E+00
(PID.TID 0000.0001) %MON dynstat_salt_del2            =   0.0000000000000E+00
(PID.TID 0000.0001) %MON extforcing_qnet_max          =   0.0000000000000E+00
(PID.TID 0000.0001) %MON extforcing_qnet_min          =   0.0000000000000E+00
(PID.TID 0000.0001) %MON extforcing_qnet_mean         =   0.0000000000000E+00
(PID.TID 0000.0001) %MON extforcing_qnet_sd           =   0.0000000000000E+00
(PID.TID 0000.0001) %MON extforcing_qnet_del2         =   0.0000000000000E+00
(PID.TID 0000.0001) %MON extforcing_qsw_max           =   0.0000000000000E+00
(PID.TID 0000.0001) %MON extforcing_qsw_min           =   0.0000000000000E+00
(PID.TID 0000.0001) %MON extforcing_qsw_mean          =   0.0000000000000E+00
(PID.TID 0000.0001) %MON extforcing_qsw_sd            =   0.0000000000000E+00
(PID.TID 0000.0001) %MON extforcing_qsw_del2          =   0.0000000000000E+00
(PID.TID 0000.0001) %MON extforcing_empmr_max         =   0.0000000000000E+00
(PID.TID 0000.0001) %MON extforcing_empmr_min         =   0.0000000000000E+00
(PID.TID 0000.0001) %MON extforcing_empmr_mean        =   0.0000000000000E+00
(PID.TID 0000.0001) %MON extforcing_empmr_sd          =   0.0000000000000E+00
(PID.TID 0000.0001) %MON extforcing_empmr_del2        =   0.0000000000000E+00
(PID.TID 0000.0001) %MON advcfl_uvel_max              =   4.1956252754338E-04
(PID.TID 0000.0001) %MON advcfl_vvel_max              =   4.1956252754338E-04
(PID.TID 0000.0001) %MON advcfl_wvel_max              =   9.9999833250141E-04
(PID.TID 0000.0001) %MON advcfl_W_hf_max              =   0.0000000000000E+00
(PID.TID 0000.0001) %MON pe_b_mean                    =   1.0529735705648E-03
(PID.TID 0000.0001) %MON ke_max                       =   1.1888236004362E-02
(PID.TID 0000.0001) %MON ke_mean                      =   1.1963473322214E-04
(PID.TID 0000.0001) %MON ke_vol                       =   6.2001702110790E+17
(PID.TID 0000.0001) %MON vort_r_min                   =  -1.4058377251101E-22
(PID.TID 0000.0001) %MON vort_r_max                   =   1.4038170633018E-22
(PID.TID 0000.0001) %MON vort_a_mean                  =   4.2916559760387E-21
(PID.TID 0000.0001) %MON vort_a_sd                    =   8.8130260173797E-05
(PID.TID 0000.0001) %MON vort_p_mean                  =   4.3511624968410E-21
(PID.TID 0000.0001) %MON vort_p_sd                    =   8.9588950369082E-05
(PID.TID 0000.0001) %MON surfExpan_theta_mean         =   3.1952018128921E-21
(PID.TID 0000.0001) %MON surfExpan_salt_mean          =   0.0000000000000E+00
(PID.TID 0000.0001) // =======================================================
(PID.TID 0000.0001) // End MONITOR dynamic field statistics
(PID.TID 0000.0001) // =======================================================
 cg2d: Sum(rhs),rhsMax =  -3.00811329155424E+01  3.03483549775773E+03
(PID.TID 0000.0001)                    cg2d_init_res =    4.02804200367118E-01
(PID.TID 0000.0001)                       cg2d_iters =     6
(PID.TID 0000.0001)                         cg2d_res =    5.53071044548366E-16
(PID.TID 0000.0001) // =======================================================
(PID.TID 0000.0001) // Begin MONITOR dynamic field statistics
(PID.TID 0000.0001) // =======================================================
(PID.TID 0000.0001) %MON time_tsnumber                =                     3
(PID.TID 0000.0001) %MON time_secondsf                =   2.7000000000000E+03
(PID.TID 0000.0001) %MON dynstat_eta_max              =   8.0127769471224E+00
(PID.TID 0000.0001) %MON dynstat_eta_min              =   0.0000000000000E+00
(PID.TID 0000.0001) %MON dynstat_eta_mean             =   5.6129684401127E-02
(PID.TID 0000.0001) %MON dynstat_eta_sd               =   5.0412277065540E-01
(PID.TID 0000.0001) %MON dynstat_eta_del2             =   3.8347047907253E-03
(PID.TID 0000.0001) %MON dynstat_uvel_max             =   2.1481050459289E-01
(PID.TID 0000.0001) %MON dynstat_uvel_min             =  -2.1481050459289E-01
(PID.TID 0000.0001) %MON dynstat_uvel_mean            =  -1.2241276701601E-18
(PID.TID 0000.0001) %MON dynstat_uvel_sd              =   1.5746917716866E-02
(PID.TID 0000.0001) %MON dynstat_uvel_del2            =   2.3424986149715E-04
(PID.TID 0000.0001) %MON dynstat_vvel_max             =   2.1481050459289E-01
(PID.TID 0000.0001) %MON dynstat_vvel_min             =  -2.1481050459289E-01
(PID.TID 0000.0001) %MON dynstat_vvel_mean            =  -1.5956018393435E-19
(PID.TID 0000.0001) %MON dynstat_vvel_sd              =   1.5817884721016E-02
(PID.TID 0000.0001) %MON dynstat_vvel_del2            =   2.3638678780163E-04
(PID.TID 0000.0001) %MON dynstat_wvel_max             =   3.6905122085120E-04
(PID.TID 0000.0001) %MON dynstat_wvel_min             =  -1.0903273052145E-03
(PID.TID 0000.0001) %MON dynstat_wvel_mean            =   5.1658197791451E-22
(PID.TID 0000.0001) %MON dynstat_wvel_sd              =   6.3448198825257E-05
(PID.TID 0000.0001) %MON dynstat_wvel_del2            =   1.6233561375583E-06
(PID.TID 0000.0001) %MON dynstat_theta_max            =   1.5000000000000E+01
(PID.TID 0000.0001) %MON dynstat_theta_min            =   1.5000000000000E+01
(PID.TID 0000.0001) %MON dynstat_theta_mean           =   1.5000000000000E+01
(PID.TID 0000.0001) %MON dynstat_theta_sd             =   1.7763568394003E-15
(PID.TID 0000.0001) %MON dynstat_theta_del2           =   0.0000000000000E+00
(PID.TID 0000.0001) %MON dynstat_salt_max             =   0.0000000000000E+00
(PID.TID 0000.0001) %MON dynstat_salt_min             =   0.0000000000000E+00
(PID.TID 0000.0001) %MON dynstat_salt_mean            =   0.0000000000000E+00
(PID.TID 0000.0001) %MON dynstat_salt_sd              =   0.0000000000000E+00
(PID.TID 0000.0001) %MON dynstat_salt_del2            =   0.0000000000000E+00
(PID.TID 0000.0001) %MON extforcing_qnet_max          =   0.0000000000000E+00
(PID.TID 0000.0001) %MON extforcing_qnet_min          =   0.0000000000000E+00
(PID.TID 0000.0001) %MON extforcing_qnet_mean         =   0.0000000000000E+00
(PID.TID 0000.0001) %MON extforcing_qnet_sd           =   0.0000000000000E+00
(PID.TID 0000.0001) %MON extforcing_qnet_del2         =   0.0000000000000E+00
(PID.TID 0000.0001) %MON extforcing_qsw_max           =   0.0000000000000E+00
(PID.TID 0000.0001) %MON extforcing_qsw_min           =   0.0000000000000E+00
(PID.TID 0000.0001) %MON extforcing_qsw_mean          =   0.0000000000000E+00
(PID.TID 0000.0001) %MON extforcing_qsw_sd            =   0.0000000000000E+00
(PID.TID 0000.0001) %MON extforcing_qsw_del2          =   0.0000000000000E+00
(PID.TID 0000.0001) %MON extforcing_empmr_max         =   0.0000000000000E+00
(PID.TID 0000.0001) %MON extforcing_empmr_min         =   0.0000000000000E+00
(PID.TID 0000.0001) %MON extforcing_empmr_mean        =   0.0000000000000E+00
(PID.TID 0000.0001) %MON extforcing_empmr_sd          =   0.0000000000000E+00
(PID.TID 0000.0001) %MON extforcing_empmr_del2        =   0.0000000000000E+00
(PID.TID 0000.0001) %MON advcfl_uvel_max              =   6.0056102268584E-04
(PID.TID 0000.0001) %MON advcfl_vvel_max              =   6.0056102268584E-04
(PID.TID 0000.0001) %MON advcfl_wvel_max              =   1.4367416906194E-03
(PID.TID 0000.0001) %MON advcfl_W_hf_max              =   0.0000000000000E+00
(PID.TID 0000.0001) %MON pe_b_mean                    =   9.2466294782647E-04
(PID.TID 0000.0001) %MON ke_max                       =   2.4415381331946E-02
(PID.TID 0000.0001) %MON ke_mean                      =   2.4794535596051E-04
(PID.TID 0000.0001) %MON ke_vol                       =   6.2001702110790E+17
(PID.TID 0000.0001) %MON vort_r_min                   =  -2.0520865996395E-21
(PID.TID 0000.0001) %MON vort_r_max                   =   2.0520865996325E-21
(PID.TID 0000.0001) %MON vort_a_mean                  =   4.2916559760387E-21
(PID.TID 0000.0001) %MON vort_a_sd                    =   8.8130260173797E-05
(PID.TID 0000.0001) %MON vort_p_mean                  =   4.3511624968410E-21
(PID.TID 0000.0001) %MON vort_p_sd                    =   8.9588950369082E-05
(PID.TID 0000.0001) %MON surfExpan_theta_mean         =  -4.3122550039335E-21
(PID.TID 0000.0001) %MON surfExpan_salt_mean          =   0.0000000000000E+00
(PID.TID 0000.0001) // =======================================================
(PID.TID 0000.0001) // End MONITOR dynamic field statistics
(PID.TID 0000.0001) // =======================================================
 cg2d: Sum(rhs),rhsMax =  -3.49194055846270E+01  2.61434261140593E+03
(PID.TID 0000.0001)                    cg2d_init_res =    6.07746102739894E-01
(PID.TID 0000.0001)                       cg2d_iters =     6
(PID.TID 0000.0001)                         cg2d_res =    7.15149018380700E-16
(PID.TID 0000.0001) // =======================================================
(PID.TID 0000.0001) // Begin MONITOR dynamic field statistics
(PID.TID 0000.0001) // =======================================================
(PID.TID 0000.0001) %MON time_tsnumber                =                     4
(PID.TID 0000.0001) %MON time_secondsf                =   3.6000000000000E+03
(PID.TID 0000.0001) %MON dynstat_eta_max              =   6.9071918857761E+00
(PID.TID 0000.0001) %MON dynstat_eta_min              =   0.0000000000000E+00
(PID.TID 0000.0001) %MON dynstat_eta_mean             =   5.6129684401127E-02
(PID.TID 0000.0001) %MON dynstat_eta_sd               =   4.6210598171291E-01
(PID.TID 0000.0001) %MON dynstat_eta_del2             =   2.9912770302697E-03
(PID.TID 0000.0001) %MON dynstat_uvel_max             =   2.6795057523175E-01
(PID.TID 0000.0001) %MON dynstat_uvel_min             =  -2.6795057523175E-01
(PID.TID 0000.0001) %MON dynstat_uvel_mean            =  -1.4575614768636E-17
(PID.TID 0000.0001) %MON dynstat_uvel_sd              =   1.9846404843962E-02
(PID.TID 0000.0001) %MON dynstat_uvel_del2            =   2.7353577452828E-04
(PID.TID 0000.0001) %MON dynstat_vvel_max             =   2.6795057523175E-01
(PID.TID 0000.0001) %MON dynstat_vvel_min             =  -2.6795057523176E-01
(PID.TID 0000.0001) %MON dynstat_vvel_mean            =  -3.6284066045915E-19
(PID.TID 0000.0001) %MON dynstat_vvel_sd              =   1.9935847103092E-02
(PID.TID 0000.0001) %MON dynstat_vvel_del2            =   2.7603108354606E-04
(PID.TID 0000.0001) %MON dynstat_wvel_max             =   4.0634664239694E-04
(PID.TID 0000.0001) %MON dynstat_wvel_min             =  -1.3665283866663E-03
(PID.TID 0000.0001) %MON dynstat_wvel_mean            =  -6.8685041213317E-22
(PID.TID 0000.0001) %MON dynstat_wvel_sd              =   7.7778622006623E-05
(PID.TID 0000.0001) %MON dynstat_wvel_del2            =   1.7298349056533E-06
(PID.TID 0000.0001) %MON dynstat_theta_max            =   1.5000000000000E+01
(PID.TID 0000.0001) %MON dynstat_theta_min            =   1.5000000000000E+01
(PID.TID 0000.0001) %MON dynstat_theta_mean           =   1.5000000000000E+01
(PID.TID 0000.0001) %MON dynstat_theta_sd             =   1.7763568394003E-15
(PID.TID 0000.0001) %MON dynstat_theta_del2           =   0.0000000000000E+00
(PID.TID 0000.0001) %MON dynstat_salt_max             =   0.0000000000000E+00
(PID.TID 0000.0001) %MON dynstat_salt_min             =   0.0000000000000E+00
(PID.TID 0000.0001) %MON dynstat_salt_mean            =   0.0000000000000E+00
(PID.TID 0000.0001) %MON dynstat_salt_sd              =   0.0000000000000E+00
(PID.TID 0000.0001) %MON dynstat_salt_del2            =   0.0000000000000E+00
(PID.TID 0000.0001) %MON extforcing_qnet_max          =   0.0000000000000E+00
(PID.TID 0000.0001) %MON extforcing_qnet_min          =   0.0000000000000E+00
(PID.TID 0000.0001) %MON extforcing_qnet_mean         =   0.0000000000000E+00
(PID.TID 0000.0001) %MON extforcing_qnet_sd           =   0.0000000000000E+00
(PID.TID 0000.0001) %MON extforcing_qnet_del2         =   0.0000000000000E+00
(PID.TID 0000.0001) %MON extforcing_qsw_max           =   0.0000000000000E+00
(PID.TID 0000.0001) %MON extforcing_qsw_min           =   0.0000000000000E+00
(PID.TID 0000.0001) %MON extforcing_qsw_mean          =   0.0000000000000E+00
(PID.TID 0000.0001) %MON extforcing_qsw_sd            =   0.0000000000000E+00
(PID.TID 0000.0001) %MON extforcing_qsw_del2          =   0.0000000000000E+00
(PID.TID 0000.0001) %MON extforcing_empmr_max         =   0.0000000000000E+00
(PID.TID 0000.0001) %MON extforcing_empmr_min         =   0.0000000000000E+00
(PID.TID 0000.0001) %MON extforcing_empmr_mean        =   0.0000000000000E+00
(PID.TID 0000.0001) %MON extforcing_empmr_sd          =   0.0000000000000E+00
(PID.TID 0000.0001) %MON extforcing_empmr_del2        =   0.0000000000000E+00
(PID.TID 0000.0001) %MON advcfl_uvel_max              =   7.4912850186456E-04
(PID.TID 0000.0001) %MON advcfl_vvel_max              =   7.4912850186457E-04
(PID.TID 0000.0001) %MON advcfl_wvel_max              =   1.8006962635426E-03
(PID.TID 0000.0001) %MON advcfl_W_hf_max              =   0.0000000000000E+00
(PID.TID 0000.0001) %MON pe_b_mean                    =   7.7876041131972E-04
(PID.TID 0000.0001) %MON ke_max                       =   3.8094891164921E-02
(PID.TID 0000.0001) %MON ke_mean                      =   3.9384789246726E-04
(PID.TID 0000.0001) %MON ke_vol                       =   6.2001702110790E+17
(PID.TID 0000.0001) %MON vort_r_min                   =  -2.6851232657340E-20
(PID.TID 0000.0001) %MON vort_r_max                   =   2.6851232657362E-20
(PID.TID 0000.0001) %MON vort_a_mean                  =   4.2916559760387E-21
(PID.TID 0000.0001) %MON vort_a_sd                    =   8.8130260173797E-05
(PID.TID 0000.0001) %MON vort_p_mean                  =   4.3511624968410E-21
(PID.TID 0000.0001) %MON vort_p_sd                    =   8.9588950369082E-05
(PID.TID 0000.0001) %MON surfExpan_theta_mean         =  -1.2592145590054E-20
(PID.TID 0000.0001) %MON surfExpan_salt_mean          =   0.0000000000000E+00
(PID.TID 0000.0001) // =======================================================
(PID.TID 0000.0001) // End MONITOR dynamic field statistics
(PID.TID 0000.0001) // =======================================================
 cg2d: Sum(rhs),rhsMax =  -4.32416399019165E+01  2.11118935803382E+03
(PID.TID 0000.0001)                    cg2d_init_res =    8.80561632570332E-01
(PID.TID 0000.0001)                       cg2d_iters =     6
(PID.TID 0000.0001)                         cg2d_res =    7.93884720846008E-16
(PID.TID 0000.0001) // =======================================================
(PID.TID 0000.0001) // Begin MONITOR dynamic field statistics
(PID.TID 0000.0001) // =======================================================
(PID.TID 0000.0001) %MON time_tsnumber                =                     5
(PID.TID 0000.0001) %MON time_secondsf                =   4.5000000000000E+03
(PID.TID 0000.0001) %MON dynstat_eta_max              =   5.5844283493298E+00
(PID.TID 0000.0001) %MON dynstat_eta_min              =   0.0000000000000E+00
(PID.TID 0000.0001) %MON dynstat_eta_mean             =   5.6129684401127E-02
(PID.TID 0000.0001) %MON dynstat_eta_sd               =   4.1765921242454E-01
(PID.TID 0000.0001) %MON dynstat_eta_del2             =   2.9954700209048E-03
(PID.TID 0000.0001) %MON dynstat_uvel_max             =   3.0689829960565E-01
(PID.TID 0000.0001) %MON dynstat_uvel_min             =  -3.0689829960565E-01
(PID.TID 0000.0001) %MON dynstat_uvel_mean            =  -1.4999120431263E-16
(PID.TID 0000.0001) %MON dynstat_uvel_sd              =   2.3117537998334E-02
(PID.TID 0000.0001) %MON dynstat_uvel_del2            =   2.8963473094129E-04
(PID.TID 0000.0001) %MON dynstat_vvel_max             =   3.0689829960565E-01
(PID.TID 0000.0001) %MON dynstat_vvel_min             =  -3.0689829960565E-01
(PID.TID 0000.0001) %MON dynstat_vvel_mean            =  -6.2404305068885E-18
(PID.TID 0000.0001) %MON dynstat_vvel_sd              =   2.3221722350128E-02
(PID.TID 0000.0001) %MON dynstat_vvel_del2            =   2.9227690144792E-04
(PID.TID 0000.0001) %MON dynstat_wvel_max             =   3.9224585810312E-04
(PID.TID 0000.0001) %MON dynstat_wvel_min             =  -1.5729461387702E-03
(PID.TID 0000.0001) %MON dynstat_wvel_mean            =  -5.3312656901608E-22
(PID.TID 0000.0001) %MON dynstat_wvel_sd              =   8.7693435141290E-05
(PID.TID 0000.0001) %MON dynstat_wvel_del2            =   1.8122678432896E-06
(PID.TID 0000.0001) %MON dynstat_theta_max            =   1.5000000000000E+01
(PID.TID 0000.0001) %MON dynstat_theta_min            =   1.5000000000000E+01
(PID.TID 0000.0001) %MON dynstat_theta_mean           =   1.5000000000000E+01
(PID.TID 0000.0001) %MON dynstat_theta_sd             =   1.7763568394003E-15
(PID.TID 0000.0001) %MON dynstat_theta_del2           =   0.0000000000000E+00
(PID.TID 0000.0001) %MON dynstat_salt_max             =   0.0000000000000E+00
(PID.TID 0000.0001) %MON dynstat_salt_min             =   0.0000000000000E+00
(PID.TID 0000.0001) %MON dynstat_salt_mean            =   0.0000000000000E+00
(PID.TID 0000.0001) %MON dynstat_salt_sd              =   0.0000000000000E+00
(PID.TID 0000.0001) %MON dynstat_salt_del2            =   0.0000000000000E+00
(PID.TID 0000.0001) %MON extforcing_qnet_max          =   0.0000000000000E+00
(PID.TID 0000.0001) %MON extforcing_qnet_min          =   0.0000000000000E+00
(PID.TID 0000.0001) %MON extforcing_qnet_mean         =   0.0000000000000E+00
(PID.TID 0000.0001) %MON extforcing_qnet_sd           =   0.0000000000000E+00
(PID.TID 0000.0001) %MON extforcing_qnet_del2         =   0.0000000000000E+00
(PID.TID 0000.0001) %MON extforcing_qsw_max           =   0.0000000000000E+00
(PID.TID 0000.0001) %MON extforcing_qsw_min           =   0.0000000000000E+00
(PID.TID 0000.0001) %MON extforcing_qsw_mean          =   0.0000000000000E+00
(PID.TID 0000.0001) %MON extforcing_qsw_sd            =   0.0000000000000E+00
(PID.TID 0000.0001) %MON extforcing_qsw_del2          =   0.0000000000000E+00
(PID.TID 0000.0001) %MON extforcing_empmr_max         =   0.0000000000000E+00
(PID.TID 0000.0001) %MON extforcing_empmr_min         =   0.0000000000000E+00
(PID.TID 0000.0001) %MON extforcing_empmr_mean        =   0.0000000000000E+00
(PID.TID 0000.0001) %MON extforcing_empmr_sd          =   0.0000000000000E+00
(PID.TID 0000.0001) %MON extforcing_empmr_del2        =   0.0000000000000E+00
(PID.TID 0000.0001) %MON advcfl_uvel_max              =   8.5801742806304E-04
(PID.TID 0000.0001) %MON advcfl_vvel_max              =   8.5801742806305E-04
(PID.TID 0000.0001) %MON advcfl_wvel_max              =   2.0726962297119E-03
(PID.TID 0000.0001) %MON advcfl_W_hf_max              =   0.0000000000000E+00
(PID.TID 0000.0001) %MON pe_b_mean                    =   6.3823107308600E-04
(PID.TID 0000.0001) %MON ke_max                       =   5.0093184746368E-02
(PID.TID 0000.0001) %MON ke_mean                      =   5.3437723070098E-04
(PID.TID 0000.0001) %MON ke_vol                       =   6.2001702110790E+17
(PID.TID 0000.0001) %MON vort_r_min                   =  -2.6365063359996E-19
(PID.TID 0000.0001) %MON vort_r_max                   =   2.6365063360017E-19
(PID.TID 0000.0001) %MON vort_a_mean                  =   4.2916559760387E-21
(PID.TID 0000.0001) %MON vort_a_sd                    =   8.8130260173797E-05
(PID.TID 0000.0001) %MON vort_p_mean                  =   4.3511624968410E-21
(PID.TID 0000.0001) %MON vort_p_sd                    =   8.9588950369082E-05
(PID.TID 0000.0001) %MON surfExpan_theta_mean         =  -8.0834235376833E-21
(PID.TID 0000.0001) %MON surfExpan_salt_mean          =   0.0000000000000E+00
(PID.TID 0000.0001) // =======================================================
(PID.TID 0000.0001) // End MONITOR dynamic field statistics
(PID.TID 0000.0001) // =======================================================
 cg2d: Sum(rhs),rhsMax =  -5.88529062376087E+01  1.55117726244960E+03
(PID.TID 0000.0001)                    cg2d_init_res =    1.30852122669956E+00
(PID.TID 0000.0001)                       cg2d_iters =     6
(PID.TID 0000.0001)                         cg2d_res =    1.21046551120688E-15
(PID.TID 0000.0001) // =======================================================
(PID.TID 0000.0001) // Begin MONITOR dynamic field statistics
(PID.TID 0000.0001) // =======================================================
(PID.TID 0000.0001) %MON time_tsnumber                =                     6
(PID.TID 0000.0001) %MON time_secondsf                =   5.4000000000000E+03
(PID.TID 0000.0001) %MON dynstat_eta_max              =   4.1124025966724E+00
(PID.TID 0000.0001) %MON dynstat_eta_min              =   8.0757743673328E-90
(PID.TID 0000.0001) %MON dynstat_eta_mean             =   5.6129684401127E-02
(PID.TID 0000.0001) %MON dynstat_eta_sd               =   3.7688395012171E-01
(PID.TID 0000.0001) %MON dynstat_eta_del2             =   3.1494285852936E-03
(PID.TID 0000.0001) %MON dynstat_uvel_max             =   3.3014499434390E-01
(PID.TID 0000.0001) %MON dynstat_uvel_min             =  -3.3014499434390E-01
(PID.TID 0000.0001) %MON dynstat_uvel_mean            =  -1.2116179828766E-15
(PID.TID 0000.0001) %MON dynstat_uvel_sd              =   2.5512009633360E-02
(PID.TID 0000.0001) %MON dynstat_uvel_del2            =   2.9386981459520E-04
(PID.TID 0000.0001) %MON dynstat_vvel_max             =   3.3014499434391E-01
(PID.TID 0000.0001) %MON dynstat_vvel_min             =  -3.3014499434391E-01
(PID.TID 0000.0001) %MON dynstat_vvel_mean            =  -5.6663190141999E-17
(PID.TID 0000.0001) %MON dynstat_vvel_sd              =   2.5626985206745E-02
(PID.TID 0000.0001) %MON dynstat_vvel_del2            =   2.9655061932558E-04
(PID.TID 0000.0001) %MON dynstat_wvel_max             =   3.4990905717079E-04
(PID.TID 0000.0001) %MON dynstat_wvel_min             =  -1.6982222004685E-03
(PID.TID 0000.0001) %MON dynstat_wvel_mean            =  -1.0947881910654E-21
(PID.TID 0000.0001) %MON dynstat_wvel_sd              =   9.3204118941652E-05
(PID.TID 0000.0001) %MON dynstat_wvel_del2            =   1.8427373321815E-06
(PID.TID 0000.0001) %MON dynstat_theta_max            =   1.5000000000000E+01
(PID.TID 0000.0001) %MON dynstat_theta_min            =   1.5000000000000E+01
(PID.TID 0000.0001) %MON dynstat_theta_mean           =   1.5000000000000E+01
(PID.TID 0000.0001) %MON dynstat_theta_sd             =   1.7763568394003E-15
(PID.TID 0000.0001) %MON dynstat_theta_del2           =   0.0000000000000E+00
(PID.TID 0000.0001) %MON dynstat_salt_max             =   0.0000000000000E+00
(PID.TID 0000.0001) %MON dynstat_salt_min             =   0.0000000000000E+00
(PID.TID 0000.0001) %MON dynstat_salt_mean            =   0.0000000000000E+00
(PID.TID 0000.0001) %MON dynstat_salt_sd              =   0.0000000000000E+00
(PID.TID 0000.0001) %MON dynstat_salt_del2            =   0.0000000000000E+00
(PID.TID 0000.0001) %MON extforcing_qnet_max          =   0.0000000000000E+00
(PID.TID 0000.0001) %MON extforcing_qnet_min          =   0.0000000000000E+00
(PID.TID 0000.0001) %MON extforcing_qnet_mean         =   0.0000000000000E+00
(PID.TID 0000.0001) %MON extforcing_qnet_sd           =   0.0000000000000E+00
(PID.TID 0000.0001) %MON extforcing_qnet_del2         =   0.0000000000000E+00
(PID.TID 0000.0001) %MON extforcing_qsw_max           =   0.0000000000000E+00
(PID.TID 0000.0001) %MON extforcing_qsw_min           =   0.0000000000000E+00
(PID.TID 0000.0001) %MON extforcing_qsw_mean          =   0.0000000000000E+00
(PID.TID 0000.0001) %MON extforcing_qsw_sd            =   0.0000000000000E+00
(PID.TID 0000.0001) %MON extforcing_qsw_del2          =   0.0000000000000E+00
(PID.TID 0000.0001) %MON extforcing_empmr_max         =   0.0000000000000E+00
(PID.TID 0000.0001) %MON extforcing_empmr_min         =   0.0000000000000E+00
(PID.TID 0000.0001) %MON extforcing_empmr_mean        =   0.0000000000000E+00
(PID.TID 0000.0001) %MON extforcing_empmr_sd          =   0.0000000000000E+00
(PID.TID 0000.0001) %MON extforcing_empmr_del2        =   0.0000000000000E+00
(PID.TID 0000.0001) %MON advcfl_uvel_max              =   9.2300986776021E-04
(PID.TID 0000.0001) %MON advcfl_vvel_max              =   9.2300986776022E-04
(PID.TID 0000.0001) %MON advcfl_wvel_max              =   2.2377744954929E-03
(PID.TID 0000.0001) %MON advcfl_W_hf_max              =   0.0000000000000E+00
(PID.TID 0000.0001) %MON pe_b_mean                    =   5.2179855652209E-04
(PID.TID 0000.0001) %MON ke_max                       =   5.8000572913142E-02
(PID.TID 0000.0001) %MON ke_mean                      =   6.5080974726489E-04
(PID.TID 0000.0001) %MON ke_vol                       =   6.2001702110790E+17
(PID.TID 0000.0001) %MON vort_r_min                   =  -2.0660507123225E-18
(PID.TID 0000.0001) %MON vort_r_max                   =   2.0660507123241E-18
(PID.TID 0000.0001) %MON vort_a_mean                  =   4.2916559760387E-21
(PID.TID 0000.0001) %MON vort_a_sd                    =   8.8130260173797E-05
(PID.TID 0000.0001) %MON vort_p_mean                  =   4.3511624968410E-21
(PID.TID 0000.0001) %MON vort_p_sd                    =   8.9588950369082E-05
(PID.TID 0000.0001) %MON surfExpan_theta_mean         =  -5.1269239072408E-22
(PID.TID 0000.0001) %MON surfExpan_salt_mean          =   0.0000000000000E+00
(PID.TID 0000.0001) // =======================================================
(PID.TID 0000.0001) // End MONITOR dynamic field statistics
(PID.TID 0000.0001) // =======================================================
 cg2d: Sum(rhs),rhsMax =  -8.94938583799651E+01  1.02008441291312E+03
(PID.TID 0000.0001)                    cg2d_init_res =    2.06289464039159E+00
(PID.TID 0000.0001)                       cg2d_iters =     6
(PID.TID 0000.0001)                         cg2d_res =    2.30638959396050E-15
(PID.TID 0000.0001) // =======================================================
(PID.TID 0000.0001) // Begin MONITOR dynamic field statistics
(PID.TID 0000.0001) // =======================================================
(PID.TID 0000.0001) %MON time_tsnumber                =                     7
(PID.TID 0000.0001) %MON time_secondsf                =   6.3000000000000E+03
(PID.TID 0000.0001) %MON dynstat_eta_max              =   2.7385528135176E+00
(PID.TID 0000.0001) %MON dynstat_eta_min              =   1.4439957749962E-86
(PID.TID 0000.0001) %MON dynstat_eta_mean             =   5.6129684401127E-02
(PID.TID 0000.0001) %MON dynstat_eta_sd               =   3.4574853532254E-01
(PID.TID 0000.0001) %MON dynstat_eta_del2             =   3.3217397911250E-03
(PID.TID 0000.0001) %MON dynstat_uvel_max             =   3.3744508637957E-01
(PID.TID 0000.0001) %MON dynstat_uvel_min             =  -3.3744508637957E-01
(PID.TID 0000.0001) %MON dynstat_uvel_mean            =  -8.1779685738119E-15
(PID.TID 0000.0001) %MON dynstat_uvel_sd              =   2.7050491742574E-02
(PID.TID 0000.0001) %MON dynstat_uvel_del2            =   3.0651261720167E-04
(PID.TID 0000.0001) %MON dynstat_vvel_max             =   3.3744508637957E-01
(PID.TID 0000.0001) %MON dynstat_vvel_min             =  -3.3744508637957E-01
(PID.TID 0000.0001) %MON dynstat_vvel_mean            =  -4.1890093128085E-16
(PID.TID 0000.0001) %MON dynstat_vvel_sd              =   2.7172400829437E-02
(PID.TID 0000.0001) %MON dynstat_vvel_del2            =   3.0930875492148E-04
(PID.TID 0000.0001) %MON dynstat_wvel_max             =   3.4351747266300E-04
(PID.TID 0000.0001) %MON dynstat_wvel_min             =  -1.7348666312481E-03
(PID.TID 0000.0001) %MON dynstat_wvel_mean            =  -6.4082438841919E-22
(PID.TID 0000.0001) %MON dynstat_wvel_sd              =   9.4602415873743E-05
(PID.TID 0000.0001) %MON dynstat_wvel_del2            =   1.7481201160266E-06
(PID.TID 0000.0001) %MON dynstat_theta_max            =   1.5000000000000E+01
(PID.TID 0000.0001) %MON dynstat_theta_min            =   1.5000000000000E+01
(PID.TID 0000.0001) %MON dynstat_theta_mean           =   1.5000000000000E+01
(PID.TID 0000.0001) %MON dynstat_theta_sd             =   1.7763568394003E-15
(PID.TID 0000.0001) %MON dynstat_theta_del2           =   0.0000000000000E+00
(PID.TID 0000.0001) %MON dynstat_salt_max             =   0.0000000000000E+00
(PID.TID 0000.0001) %MON dynstat_salt_min             =   0.0000000000000E+00
(PID.TID 0000.0001) %MON dynstat_salt_mean            =   0.0000000000000E+00
(PID.TID 0000.0001) %MON dynstat_salt_sd              =   0.0000000000000E+00
(PID.TID 0000.0001) %MON dynstat_salt_del2            =   0.0000000000000E+00
(PID.TID 0000.0001) %MON extforcing_qnet_max          =   0.0000000000000E+00
(PID.TID 0000.0001) %MON extforcing_qnet_min          =   0.0000000000000E+00
(PID.TID 0000.0001) %MON extforcing_qnet_mean         =   0.0000000000000E+00
(PID.TID 0000.0001) %MON extforcing_qnet_sd           =   0.0000000000000E+00
(PID.TID 0000.0001) %MON extforcing_qnet_del2         =   0.0000000000000E+00
(PID.TID 0000.0001) %MON extforcing_qsw_max           =   0.0000000000000E+00
(PID.TID 0000.0001) %MON extforcing_qsw_min           =   0.0000000000000E+00
(PID.TID 0000.0001) %MON extforcing_qsw_mean          =   0.0000000000000E+00
(PID.TID 0000.0001) %MON extforcing_qsw_sd            =   0.0000000000000E+00
(PID.TID 0000.0001) %MON extforcing_qsw_del2          =   0.0000000000000E+00
(PID.TID 0000.0001) %MON extforcing_empmr_max         =   0.0000000000000E+00
(PID.TID 0000.0001) %MON extforcing_empmr_min         =   0.0000000000000E+00
(PID.TID 0000.0001) %MON extforcing_empmr_mean        =   0.0000000000000E+00
(PID.TID 0000.0001) %MON extforcing_empmr_sd          =   0.0000000000000E+00
(PID.TID 0000.0001) %MON extforcing_empmr_del2        =   0.0000000000000E+00
(PID.TID 0000.0001) %MON advcfl_uvel_max              =   9.4341925484744E-04
(PID.TID 0000.0001) %MON advcfl_vvel_max              =   9.4341925484745E-04
(PID.TID 0000.0001) %MON advcfl_wvel_max              =   2.2860614467398E-03
(PID.TID 0000.0001) %MON advcfl_W_hf_max              =   0.0000000000000E+00
(PID.TID 0000.0001) %MON pe_b_mean                    =   4.4093884953658E-04
(PID.TID 0000.0001) %MON ke_max                       =   6.0371727231488E-02
(PID.TID 0000.0001) %MON ke_mean                      =   7.3166945425040E-04
(PID.TID 0000.0001) %MON ke_vol                       =   6.2001702110790E+17
(PID.TID 0000.0001) %MON vort_r_min                   =  -1.3474630146047E-17
(PID.TID 0000.0001) %MON vort_r_max                   =   1.3474630146057E-17
(PID.TID 0000.0001) %MON vort_a_mean                  =   4.2916559760387E-21
(PID.TID 0000.0001) %MON vort_a_sd                    =   8.8130260173797E-05
(PID.TID 0000.0001) %MON vort_p_mean                  =   4.3511624968410E-21
(PID.TID 0000.0001) %MON vort_p_sd                    =   8.9588950369082E-05
(PID.TID 0000.0001) %MON surfExpan_theta_mean         =   2.4169357617361E-20
(PID.TID 0000.0001) %MON surfExpan_salt_mean          =   0.0000000000000E+00
(PID.TID 0000.0001) // =======================================================
(PID.TID 0000.0001) // End MONITOR dynamic field statistics
(PID.TID 0000.0001) // =======================================================
 cg2d: Sum(rhs),rhsMax =  -8.99341121194977E+01  1.01509080184787E+03
(PID.TID 0000.0001)                    cg2d_init_res =    2.06124024187447E+00
(PID.TID 0000.0001)                       cg2d_iters =     6
(PID.TID 0000.0001)                         cg2d_res =    2.68424990804084E-15
(PID.TID 0000.0001) // =======================================================
(PID.TID 0000.0001) // Begin MONITOR dynamic field statistics
(PID.TID 0000.0001) // =======================================================
(PID.TID 0000.0001) %MON time_tsnumber                =                     8
(PID.TID 0000.0001) %MON time_secondsf                =   7.2000000000000E+03
(PID.TID 0000.0001) %MON dynstat_eta_max              =   2.7204973586066E+00
(PID.TID 0000.0001) %MON dynstat_eta_min              =   3.1389560166121E-84
(PID.TID 0000.0001) %MON dynstat_eta_mean             =   5.6129684401127E-02
(PID.TID 0000.0001) %MON dynstat_eta_sd               =   3.2836373575064E-01
(PID.TID 0000.0001) %MON dynstat_eta_del2             =   4.1853813276253E-03
(PID.TID 0000.0001) %MON dynstat_uvel_max             =   3.2984983029097E-01
(PID.TID 0000.0001) %MON dynstat_uvel_min             =  -3.2984983029096E-01
(PID.TID 0000.0001) %MON dynstat_uvel_mean            =  -4.7402153925240E-14
(PID.TID 0000.0001) %MON dynstat_uvel_sd              =   2.7818164186389E-02
(PID.TID 0000.0001) %MON dynstat_uvel_del2            =   3.1329595470490E-04
(PID.TID 0000.0001) %MON dynstat_vvel_max             =   3.2984983029097E-01
(PID.TID 0000.0001) %MON dynstat_vvel_min             =  -3.2984983029097E-01
(PID.TID 0000.0001) %MON dynstat_vvel_mean            =  -2.6548532505799E-15
(PID.TID 0000.0001) %MON dynstat_vvel_sd              =   2.7943532960697E-02
(PID.TID 0000.0001) %MON dynstat_vvel_del2            =   3.1615397288288E-04
(PID.TID 0000.0001) %MON dynstat_wvel_max             =   3.4483185479631E-04
(PID.TID 0000.0001) %MON dynstat_wvel_min             =  -1.6799224199898E-03
(PID.TID 0000.0001) %MON dynstat_wvel_mean            =   5.1351640680542E-22
(PID.TID 0000.0001) %MON dynstat_wvel_sd              =   9.2486045458447E-05
(PID.TID 0000.0001) %MON dynstat_wvel_del2            =   1.6528852012199E-06
(PID.TID 0000.0001) %MON dynstat_theta_max            =   1.5000000000000E+01
(PID.TID 0000.0001) %MON dynstat_theta_min            =   1.5000000000000E+01
(PID.TID 0000.0001) %MON dynstat_theta_mean           =   1.5000000000000E+01
(PID.TID 0000.0001) %MON dynstat_theta_sd             =   1.7763568394003E-15
(PID.TID 0000.0001) %MON dynstat_theta_del2           =   0.0000000000000E+00
(PID.TID 0000.0001) %MON dynstat_salt_max             =   0.0000000000000E+00
(PID.TID 0000.0001) %MON dynstat_salt_min             =   0.0000000000000E+00
(PID.TID 0000.0001) %MON dynstat_salt_mean            =   0.0000000000000E+00
(PID.TID 0000.0001) %MON dynstat_salt_sd              =   0.0000000000000E+00
(PID.TID 0000.0001) %MON dynstat_salt_del2            =   0.0000000000000E+00
(PID.TID 0000.0001) %MON extforcing_qnet_max          =   0.0000000000000E+00
(PID.TID 0000.0001) %MON extforcing_qnet_min          =   0.0000000000000E+00
(PID.TID 0000.0001) %MON extforcing_qnet_mean         =   0.0000000000000E+00
(PID.TID 0000.0001) %MON extforcing_qnet_sd           =   0.0000000000000E+00
(PID.TID 0000.0001) %MON extforcing_qnet_del2         =   0.0000000000000E+00
(PID.TID 0000.0001) %MON extforcing_qsw_max           =   0.0000000000000E+00
(PID.TID 0000.0001) %MON extforcing_qsw_min           =   0.0000000000000E+00
(PID.TID 0000.0001) %MON extforcing_qsw_mean          =   0.0000000000000E+00
(PID.TID 0000.0001) %MON extforcing_qsw_sd            =   0.0000000000000E+00
(PID.TID 0000.0001) %MON extforcing_qsw_del2          =   0.0000000000000E+00
(PID.TID 0000.0001) %MON extforcing_empmr_max         =   0.0000000000000E+00
(PID.TID 0000.0001) %MON extforcing_empmr_min         =   0.0000000000000E+00
(PID.TID 0000.0001) %MON extforcing_empmr_mean        =   0.0000000000000E+00
(PID.TID 0000.0001) %MON extforcing_empmr_sd          =   0.0000000000000E+00
(PID.TID 0000.0001) %MON extforcing_empmr_del2        =   0.0000000000000E+00
(PID.TID 0000.0001) %MON advcfl_uvel_max              =   9.2218465660106E-04
(PID.TID 0000.0001) %MON advcfl_vvel_max              =   9.2218465660108E-04
(PID.TID 0000.0001) %MON advcfl_wvel_max              =   2.2136605827098E-03
(PID.TID 0000.0001) %MON advcfl_W_hf_max              =   0.0000000000000E+00
(PID.TID 0000.0001) %MON pe_b_mean                    =   3.9882141135392E-04
(PID.TID 0000.0001) %MON ke_max                       =   5.7023639644701E-02
(PID.TID 0000.0001) %MON ke_mean                      =   7.7378689243306E-04
(PID.TID 0000.0001) %MON ke_vol                       =   6.2001702110790E+17
(PID.TID 0000.0001) %MON vort_r_min                   =  -7.5285254194918E-17
(PID.TID 0000.0001) %MON vort_r_max                   =   7.5285254194973E-17
(PID.TID 0000.0001) %MON vort_a_mean                  =   4.2916559760387E-21
(PID.TID 0000.0001) %MON vort_a_sd                    =   8.8130260173797E-05
(PID.TID 0000.0001) %MON vort_p_mean                  =   4.3511624968410E-21
(PID.TID 0000.0001) %MON vort_p_sd                    =   8.9588950369082E-05
(PID.TID 0000.0001) %MON surfExpan_theta_mean         =  -1.4405139312773E-20
(PID.TID 0000.0001) %MON surfExpan_salt_mean          =   0.0000000000000E+00
(PID.TID 0000.0001) // =======================================================
(PID.TID 0000.0001) // End MONITOR dynamic field statistics
(PID.TID 0000.0001) // =======================================================
 cg2d: Sum(rhs),rhsMax =  -9.18304797140050E+01  9.94128423037454E+02
(PID.TID 0000.0001)                    cg2d_init_res =    2.02271051763215E+00
(PID.TID 0000.0001)                       cg2d_iters =     6
(PID.TID 0000.0001)                         cg2d_res =    2.98109463596763E-15
(PID.TID 0000.0001) // =======================================================
(PID.TID 0000.0001) // Begin MONITOR dynamic field statistics
(PID.TID 0000.0001) // =======================================================
(PID.TID 0000.0001) %MON time_tsnumber                =                     9
(PID.TID 0000.0001) %MON time_secondsf                =   8.1000000000000E+03
(PID.TID 0000.0001) %MON dynstat_eta_max              =   2.6672584313509E+00
(PID.TID 0000.0001) %MON dynstat_eta_min              =  -4.1614177573215E-01
(PID.TID 0000.0001) %MON dynstat_eta_mean             =   5.6129684401127E-02
(PID.TID 0000.0001) %MON dynstat_eta_sd               =   3.2509437650433E-01
(PID.TID 0000.0001) %MON dynstat_eta_del2             =   5.0746080260217E-03
(PID.TID 0000.0001) %MON dynstat_uvel_max             =   3.0954463406965E-01
(PID.TID 0000.0001) %MON dynstat_uvel_min             =  -3.0954463406965E-01
(PID.TID 0000.0001) %MON dynstat_uvel_mean            =  -2.4103491706398E-13
(PID.TID 0000.0001) %MON dynstat_uvel_sd              =   2.7955842672375E-02
(PID.TID 0000.0001) %MON dynstat_uvel_del2            =   3.0804510927173E-04
(PID.TID 0000.0001) %MON dynstat_vvel_max             =   3.0954463406966E-01
(PID.TID 0000.0001) %MON dynstat_vvel_min             =  -3.0954463406966E-01
(PID.TID 0000.0001) %MON dynstat_vvel_mean            =  -1.4782691472667E-14
(PID.TID 0000.0001) %MON dynstat_vvel_sd              =   2.8081831925551E-02
(PID.TID 0000.0001) %MON dynstat_vvel_del2            =   3.1085522694252E-04
(PID.TID 0000.0001) %MON dynstat_wvel_max             =   3.3205961443017E-04
(PID.TID 0000.0001) %MON dynstat_wvel_min             =  -1.5356316357325E-03
(PID.TID 0000.0001) %MON dynstat_wvel_mean            =  -3.7575471845503E-22
(PID.TID 0000.0001) %MON dynstat_wvel_sd              =   8.7797774099042E-05
(PID.TID 0000.0001) %MON dynstat_wvel_del2            =   1.5500563774345E-06
(PID.TID 0000.0001) %MON dynstat_theta_max            =   1.5000000000000E+01
(PID.TID 0000.0001) %MON dynstat_theta_min            =   1.5000000000000E+01
(PID.TID 0000.0001) %MON dynstat_theta_mean           =   1.5000000000000E+01
(PID.TID 0000.0001) %MON dynstat_theta_sd             =   1.7763568394003E-15
(PID.TID 0000.0001) %MON dynstat_theta_del2           =   0.0000000000000E+00
(PID.TID 0000.0001) %MON dynstat_salt_max             =   0.0000000000000E+00
(PID.TID 0000.0001) %MON dynstat_salt_min             =   0.0000000000000E+00
(PID.TID 0000.0001) %MON dynstat_salt_mean            =   0.0000000000000E+00
(PID.TID 0000.0001) %MON dynstat_salt_sd              =   0.0000000000000E+00
(PID.TID 0000.0001) %MON dynstat_salt_del2            =   0.0000000000000E+00
(PID.TID 0000.0001) %MON extforcing_qnet_max          =   0.0000000000000E+00
(PID.TID 0000.0001) %MON extforcing_qnet_min          =   0.0000000000000E+00
(PID.TID 0000.0001) %MON extforcing_qnet_mean         =   0.0000000000000E+00
(PID.TID 0000.0001) %MON extforcing_qnet_sd           =   0.0000000000000E+00
(PID.TID 0000.0001) %MON extforcing_qnet_del2         =   0.0000000000000E+00
(PID.TID 0000.0001) %MON extforcing_qsw_max           =   0.0000000000000E+00
(PID.TID 0000.0001) %MON extforcing_qsw_min           =   0.0000000000000E+00
(PID.TID 0000.0001) %MON extforcing_qsw_mean          =   0.0000000000000E+00
(PID.TID 0000.0001) %MON extforcing_qsw_sd            =   0.0000000000000E+00
(PID.TID 0000.0001) %MON extforcing_qsw_del2          =   0.0000000000000E+00
(PID.TID 0000.0001) %MON extforcing_empmr_max         =   0.0000000000000E+00
(PID.TID 0000.0001) %MON extforcing_empmr_min         =   0.0000000000000E+00
(PID.TID 0000.0001) %MON extforcing_empmr_mean        =   0.0000000000000E+00
(PID.TID 0000.0001) %MON extforcing_empmr_sd          =   0.0000000000000E+00
(PID.TID 0000.0001) %MON extforcing_empmr_del2        =   0.0000000000000E+00
(PID.TID 0000.0001) %MON advcfl_uvel_max              =   8.6541597374907E-04
(PID.TID 0000.0001) %MON advcfl_vvel_max              =   8.6541597374910E-04
(PID.TID 0000.0001) %MON advcfl_wvel_max              =   2.0235263135568E-03
(PID.TID 0000.0001) %MON advcfl_W_hf_max              =   0.0000000000000E+00
(PID.TID 0000.0001) %MON pe_b_mean                    =   3.9114354718372E-04
(PID.TID 0000.0001) %MON ke_max                       =   4.8997537488527E-02
(PID.TID 0000.0001) %MON ke_mean                      =   7.8146475660326E-04
(PID.TID 0000.0001) %MON ke_vol                       =   6.2001702110790E+17
(PID.TID 0000.0001) %MON vort_r_min                   =  -3.6809070496378E-16
(PID.TID 0000.0001) %MON vort_r_max                   =   3.6809070496404E-16
(PID.TID 0000.0001) %MON vort_a_mean                  =   4.2916559760387E-21
(PID.TID 0000.0001) %MON vort_a_sd                    =   8.8130260173797E-05
(PID.TID 0000.0001) %MON vort_p_mean                  =   4.3511624968410E-21
(PID.TID 0000.0001) %MON vort_p_sd                    =   8.9588950369082E-05
(PID.TID 0000.0001) %MON surfExpan_theta_mean         =   2.0311368291363E-20
(PID.TID 0000.0001) %MON surfExpan_salt_mean          =   0.0000000000000E+00
(PID.TID 0000.0001) // =======================================================
(PID.TID 0000.0001) // End MONITOR dynamic field statistics
(PID.TID 0000.0001) // =======================================================
 cg2d: Sum(rhs),rhsMax =  -9.72053728314712E+01  9.39158889325305E+02
(PID.TID 0000.0001)                    cg2d_init_res =    2.00669252684592E+00
(PID.TID 0000.0001)                       cg2d_iters =     6
(PID.TID 0000.0001)                         cg2d_res =    3.20010502848845E-15
(PID.TID 0000.0001) // =======================================================
(PID.TID 0000.0001) // Begin MONITOR dynamic field statistics
(PID.TID 0000.0001) // =======================================================
(PID.TID 0000.0001) %MON time_tsnumber                =                    10
(PID.TID 0000.0001) %MON time_secondsf                =   9.0000000000000E+03
(PID.TID 0000.0001) %MON dynstat_eta_max              =   2.5409445070719E+00
(PID.TID 0000.0001) %MON dynstat_eta_min              =  -1.6967115720214E+00
(PID.TID 0000.0001) %MON dynstat_eta_mean             =   5.6129684401127E-02
(PID.TID 0000.0001) %MON dynstat_eta_sd               =   3.3242673663405E-01
(PID.TID 0000.0001) %MON dynstat_eta_del2             =   5.6726833153550E-03
(PID.TID 0000.0001) %MON dynstat_uvel_max             =   2.7948487932302E-01
(PID.TID 0000.0001) %MON dynstat_uvel_min             =  -2.7948487932301E-01
(PID.TID 0000.0001) %MON dynstat_uvel_mean            =  -1.0930785548053E-12
(PID.TID 0000.0001) %MON dynstat_uvel_sd              =   2.7644196461439E-02
(PID.TID 0000.0001) %MON dynstat_uvel_del2            =   3.0230866587855E-04
(PID.TID 0000.0001) %MON dynstat_vvel_max             =   2.7948487932303E-01
(PID.TID 0000.0001) %MON dynstat_vvel_min             =  -2.7948487932302E-01
(PID.TID 0000.0001) %MON dynstat_vvel_mean            =  -7.3350043761592E-14
(PID.TID 0000.0001) %MON dynstat_vvel_sd              =   2.7768781211312E-02
(PID.TID 0000.0001) %MON dynstat_vvel_del2            =   3.0506645296414E-04
(PID.TID 0000.0001) %MON dynstat_wvel_max             =   3.4105307955671E-04
(PID.TID 0000.0001) %MON dynstat_wvel_min             =  -1.3100790226880E-03
(PID.TID 0000.0001) %MON dynstat_wvel_mean            =  -9.7840717908945E-22
(PID.TID 0000.0001) %MON dynstat_wvel_sd              =   8.1797038758991E-05
(PID.TID 0000.0001) %MON dynstat_wvel_del2            =   1.5396662623218E-06
(PID.TID 0000.0001) %MON dynstat_theta_max            =   1.5000000000000E+01
(PID.TID 0000.0001) %MON dynstat_theta_min            =   1.5000000000000E+01
(PID.TID 0000.0001) %MON dynstat_theta_mean           =   1.5000000000000E+01
(PID.TID 0000.0001) %MON dynstat_theta_sd             =   1.7763568394003E-15
(PID.TID 0000.0001) %MON dynstat_theta_del2           =   0.0000000000000E+00
(PID.TID 0000.0001) %MON dynstat_salt_max             =   0.0000000000000E+00
(PID.TID 0000.0001) %MON dynstat_salt_min             =   0.0000000000000E+00
(PID.TID 0000.0001) %MON dynstat_salt_mean            =   0.0000000000000E+00
(PID.TID 0000.0001) %MON dynstat_salt_sd              =   0.0000000000000E+00
(PID.TID 0000.0001) %MON dynstat_salt_del2            =   0.0000000000000E+00
(PID.TID 0000.0001) %MON extforcing_qnet_max          =   0.0000000000000E+00
(PID.TID 0000.0001) %MON extforcing_qnet_min          =   0.0000000000000E+00
(PID.TID 0000.0001) %MON extforcing_qnet_mean         =   0.0000000000000E+00
(PID.TID 0000.0001) %MON extforcing_qnet_sd           =   0.0000000000000E+00
(PID.TID 0000.0001) %MON extforcing_qnet_del2         =   0.0000000000000E+00
(PID.TID 0000.0001) %MON extforcing_qsw_max           =   0.0000000000000E+00
(PID.TID 0000.0001) %MON extforcing_qsw_min           =   0.0000000000000E+00
(PID.TID 0000.0001) %MON extforcing_qsw_mean          =   0.0000000000000E+00
(PID.TID 0000.0001) %MON extforcing_qsw_sd            =   0.0000000000000E+00
(PID.TID 0000.0001) %MON extforcing_qsw_del2          =   0.0000000000000E+00
(PID.TID 0000.0001) %MON extforcing_empmr_max         =   0.0000000000000E+00
(PID.TID 0000.0001) %MON extforcing_empmr_min         =   0.0000000000000E+00
(PID.TID 0000.0001) %MON extforcing_empmr_mean        =   0.0000000000000E+00
(PID.TID 0000.0001) %MON extforcing_empmr_sd          =   0.0000000000000E+00
(PID.TID 0000.0001) %MON extforcing_empmr_del2        =   0.0000000000000E+00
(PID.TID 0000.0001) %MON advcfl_uvel_max              =   7.8137577708114E-04
(PID.TID 0000.0001) %MON advcfl_vvel_max              =   7.8137577708118E-04
(PID.TID 0000.0001) %MON advcfl_wvel_max              =   1.7263120357528E-03
(PID.TID 0000.0001) %MON advcfl_W_hf_max              =   0.0000000000000E+00
(PID.TID 0000.0001) %MON pe_b_mean                    =   4.0847015383330E-04
(PID.TID 0000.0001) %MON ke_max                       =   3.9350597886670E-02
(PID.TID 0000.0001) %MON ke_mean                      =   7.6413814995368E-04
(PID.TID 0000.0001) %MON ke_vol                       =   6.2001702110790E+17
(PID.TID 0000.0001) %MON vort_r_min                   =  -1.6008423395118E-15
(PID.TID 0000.0001) %MON vort_r_max                   =   1.6008423395129E-15
(PID.TID 0000.0001) %MON vort_a_mean                  =   4.2916559760387E-21
(PID.TID 0000.0001) %MON vort_a_sd                    =   8.8130260173797E-05
(PID.TID 0000.0001) %MON vort_p_mean                  =   4.3511624968410E-21
(PID.TID 0000.0001) %MON vort_p_sd                    =   8.9588950369081E-05
(PID.TID 0000.0001) %MON surfExpan_theta_mean         =  -1.1621165099979E-20
(PID.TID 0000.0001) %MON surfExpan_salt_mean          =   0.0000000000000E+00
(PID.TID 0000.0001) // =======================================================
(PID.TID 0000.0001) // End MONITOR dynamic field statistics
(PID.TID 0000.0001) // =======================================================
 cg2d: Sum(rhs),rhsMax =  -8.63181599613289E+01  1.05761394851044E+03
(PID.TID 0000.0001)                    cg2d_init_res =    1.64952297025779E+00
(PID.TID 0000.0001)                       cg2d_iters =     6
(PID.TID 0000.0001)                         cg2d_res =    3.43622678199992E-15
(PID.TID 0000.0001) // =======================================================
(PID.TID 0000.0001) // Begin MONITOR dynamic field statistics
(PID.TID 0000.0001) // =======================================================
(PID.TID 0000.0001) %MON time_tsnumber                =                    11
(PID.TID 0000.0001) %MON time_secondsf                =   9.9000000000000E+03
(PID.TID 0000.0001) %MON dynstat_eta_max              =   2.4492352691586E+00
(PID.TID 0000.0001) %MON dynstat_eta_min              =  -2.7442113354216E+00
(PID.TID 0000.0001) %MON dynstat_eta_mean             =   5.6129684401127E-02
(PID.TID 0000.0001) %MON dynstat_eta_sd               =   3.4510413547734E-01
(PID.TID 0000.0001) %MON dynstat_eta_del2             =   6.0001084982814E-03
(PID.TID 0000.0001) %MON dynstat_uvel_max             =   2.6530887265265E-01
(PID.TID 0000.0001) %MON dynstat_uvel_min             =  -2.6530887265263E-01
(PID.TID 0000.0001) %MON dynstat_uvel_mean            =  -4.4786512808395E-12
(PID.TID 0000.0001) %MON dynstat_uvel_sd              =   2.7080082215211E-02
(PID.TID 0000.0001) %MON dynstat_uvel_del2            =   2.9400977951181E-04
(PID.TID 0000.0001) %MON dynstat_vvel_max             =   2.6530887265266E-01
(PID.TID 0000.0001) %MON dynstat_vvel_min             =  -2.6530887265264E-01
(PID.TID 0000.0001) %MON dynstat_vvel_mean            =  -3.2862455955539E-13
(PID.TID 0000.0001) %MON dynstat_vvel_sd              =   2.7202124658153E-02
(PID.TID 0000.0001) %MON dynstat_vvel_del2            =   2.9669185938700E-04
(PID.TID 0000.0001) %MON dynstat_wvel_max             =   3.2395580735089E-04
(PID.TID 0000.0001) %MON dynstat_wvel_min             =  -1.0176982293128E-03
(PID.TID 0000.0001) %MON dynstat_wvel_mean            =  -9.6787767568990E-22
(PID.TID 0000.0001) %MON dynstat_wvel_sd              =   7.5926807816249E-05
(PID.TID 0000.0001) %MON dynstat_wvel_del2            =   1.5449309227795E-06
(PID.TID 0000.0001) %MON dynstat_theta_max            =   1.5000000000000E+01
(PID.TID 0000.0001) %MON dynstat_theta_min            =   1.5000000000000E+01
(PID.TID 0000.0001) %MON dynstat_theta_mean           =   1.5000000000000E+01
(PID.TID 0000.0001) %MON dynstat_theta_sd             =   1.7763568394003E-15
(PID.TID 0000.0001) %MON dynstat_theta_del2           =   0.0000000000000E+00
(PID.TID 0000.0001) %MON dynstat_salt_max             =   0.0000000000000E+00
(PID.TID 0000.0001) %MON dynstat_salt_min             =   0.0000000000000E+00
(PID.TID 0000.0001) %MON dynstat_salt_mean            =   0.0000000000000E+00
(PID.TID 0000.0001) %MON dynstat_salt_sd              =   0.0000000000000E+00
(PID.TID 0000.0001) %MON dynstat_salt_del2            =   0.0000000000000E+00
(PID.TID 0000.0001) %MON extforcing_qnet_max          =   0.0000000000000E+00
(PID.TID 0000.0001) %MON extforcing_qnet_min          =   0.0000000000000E+00
(PID.TID 0000.0001) %MON extforcing_qnet_mean         =   0.0000000000000E+00
(PID.TID 0000.0001) %MON extforcing_qnet_sd           =   0.0000000000000E+00
(PID.TID 0000.0001) %MON extforcing_qnet_del2         =   0.0000000000000E+00
(PID.TID 0000.0001) %MON extforcing_qsw_max           =   0.0000000000000E+00
(PID.TID 0000.0001) %MON extforcing_qsw_min           =   0.0000000000000E+00
(PID.TID 0000.0001) %MON extforcing_qsw_mean          =   0.0000000000000E+00
(PID.TID 0000.0001) %MON extforcing_qsw_sd            =   0.0000000000000E+00
(PID.TID 0000.0001) %MON extforcing_qsw_del2          =   0.0000000000000E+00
(PID.TID 0000.0001) %MON extforcing_empmr_max         =   0.0000000000000E+00
(PID.TID 0000.0001) %MON extforcing_empmr_min         =   0.0000000000000E+00
(PID.TID 0000.0001) %MON extforcing_empmr_mean        =   0.0000000000000E+00
(PID.TID 0000.0001) %MON extforcing_empmr_sd          =   0.0000000000000E+00
(PID.TID 0000.0001) %MON extforcing_empmr_del2        =   0.0000000000000E+00
(PID.TID 0000.0001) %MON advcfl_uvel_max              =   7.4489482207493E-04
(PID.TID 0000.0001) %MON advcfl_vvel_max              =   7.4489482207495E-04
(PID.TID 0000.0001) %MON advcfl_wvel_max              =   1.3410371982160E-03
(PID.TID 0000.0001) %MON advcfl_W_hf_max              =   0.0000000000000E+00
(PID.TID 0000.0001) %MON pe_b_mean                    =   4.3933891985836E-04
(PID.TID 0000.0001) %MON ke_max                       =   3.4496256535838E-02
(PID.TID 0000.0001) %MON ke_mean                      =   7.3326938392862E-04
(PID.TID 0000.0001) %MON ke_vol                       =   6.2001702110790E+17
(PID.TID 0000.0001) %MON vort_r_min                   =  -6.2736937054610E-15
(PID.TID 0000.0001) %MON vort_r_max                   =   6.2736937054652E-15
(PID.TID 0000.0001) %MON vort_a_mean                  =   4.2916559760387E-21
(PID.TID 0000.0001) %MON vort_a_sd                    =   8.8130260173796E-05
(PID.TID 0000.0001) %MON vort_p_mean                  =   4.3511624968410E-21
(PID.TID 0000.0001) %MON vort_p_sd                    =   8.9588950369077E-05
(PID.TID 0000.0001) %MON surfExpan_theta_mean         =   1.4561181367791E-20
(PID.TID 0000.0001) %MON surfExpan_salt_mean          =   0.0000000000000E+00
(PID.TID 0000.0001) // =======================================================
(PID.TID 0000.0001) // End MONITOR dynamic field statistics
(PID.TID 0000.0001) // =======================================================
 cg2d: Sum(rhs),rhsMax =  -6.77614671568405E+01  1.34724488437587E+03
(PID.TID 0000.0001)                    cg2d_init_res =    1.20485693001421E+00
(PID.TID 0000.0001)                       cg2d_iters =     6
(PID.TID 0000.0001)                         cg2d_res =    3.01072854259076E-15
(PID.TID 0000.0001) // =======================================================
(PID.TID 0000.0001) // Begin MONITOR dynamic field statistics
(PID.TID 0000.0001) // =======================================================
(PID.TID 0000.0001) %MON time_tsnumber                =                    12
(PID.TID 0000.0001) %MON time_secondsf                =   1.0800000000000E+04
(PID.TID 0000.0001) %MON dynstat_eta_max              =   2.4182455716131E+00
(PID.TID 0000.0001) %MON dynstat_eta_min              =  -3.5079060228216E+00
(PID.TID 0000.0001) %MON dynstat_eta_mean             =   5.6129684401127E-02
(PID.TID 0000.0001) %MON dynstat_eta_sd               =   3.5851095526885E-01
(PID.TID 0000.0001) %MON dynstat_eta_del2             =   6.2126397143770E-03
(PID.TID 0000.0001) %MON dynstat_uvel_max             =   2.5260262347081E-01
(PID.TID 0000.0001) %MON dynstat_uvel_min             =  -2.5260262347079E-01
(PID.TID 0000.0001) %MON dynstat_uvel_mean            =  -1.6755517293975E-11
(PID.TID 0000.0001) %MON dynstat_uvel_sd              =   2.6446682231356E-02
(PID.TID 0000.0001) %MON dynstat_uvel_del2            =   2.8149245293499E-04
(PID.TID 0000.0001) %MON dynstat_vvel_max             =   2.5260262347082E-01
(PID.TID 0000.0001) %MON dynstat_vvel_min             =  -2.5260262347079E-01
(PID.TID 0000.0001) %MON dynstat_vvel_mean            =  -1.3434479621749E-12
(PID.TID 0000.0001) %MON dynstat_vvel_sd              =   2.6565870115705E-02
(PID.TID 0000.0001) %MON dynstat_vvel_del2            =   2.8406033998317E-04
(PID.TID 0000.0001) %MON dynstat_wvel_max             =   3.2076434699253E-04
(PID.TID 0000.0001) %MON dynstat_wvel_min             =  -6.7940107602084E-04
(PID.TID 0000.0001) %MON dynstat_wvel_mean            =  -1.7226886463062E-22
(PID.TID 0000.0001) %MON dynstat_wvel_sd              =   7.1528891187359E-05
(PID.TID 0000.0001) %MON dynstat_wvel_del2            =   1.5311210716799E-06
(PID.TID 0000.0001) %MON dynstat_theta_max            =   1.5000000000000E+01
(PID.TID 0000.0001) %MON dynstat_theta_min            =   1.5000000000000E+01
(PID.TID 0000.0001) %MON dynstat_theta_mean           =   1.5000000000000E+01
(PID.TID 0000.0001) %MON dynstat_theta_sd             =   1.7763568394003E-15
(PID.TID 0000.0001) %MON dynstat_theta_del2           =   0.0000000000000E+00
(PID.TID 0000.0001) %MON dynstat_salt_max             =   0.0000000000000E+00
(PID.TID 0000.0001) %MON dynstat_salt_min             =   0.0000000000000E+00
(PID.TID 0000.0001) %MON dynstat_salt_mean            =   0.0000000000000E+00
(PID.TID 0000.0001) %MON dynstat_salt_sd              =   0.0000000000000E+00
(PID.TID 0000.0001) %MON dynstat_salt_del2            =   0.0000000000000E+00
(PID.TID 0000.0001) %MON extforcing_qnet_max          =   0.0000000000000E+00
(PID.TID 0000.0001) %MON extforcing_qnet_min          =   0.0000000000000E+00
(PID.TID 0000.0001) %MON extforcing_qnet_mean         =   0.0000000000000E+00
(PID.TID 0000.0001) %MON extforcing_qnet_sd           =   0.0000000000000E+00
(PID.TID 0000.0001) %MON extforcing_qnet_del2         =   0.0000000000000E+00
(PID.TID 0000.0001) %MON extforcing_qsw_max           =   0.0000000000000E+00
(PID.TID 0000.0001) %MON extforcing_qsw_min           =   0.0000000000000E+00
(PID.TID 0000.0001) %MON extforcing_qsw_mean          =   0.0000000000000E+00
(PID.TID 0000.0001) %MON extforcing_qsw_sd            =   0.0000000000000E+00
(PID.TID 0000.0001) %MON extforcing_qsw_del2          =   0.0000000000000E+00
(PID.TID 0000.0001) %MON extforcing_empmr_max         =   0.0000000000000E+00
(PID.TID 0000.0001) %MON extforcing_empmr_min         =   0.0000000000000E+00
(PID.TID 0000.0001) %MON extforcing_empmr_mean        =   0.0000000000000E+00
(PID.TID 0000.0001) %MON extforcing_empmr_sd          =   0.0000000000000E+00
(PID.TID 0000.0001) %MON extforcing_empmr_del2        =   0.0000000000000E+00
(PID.TID 0000.0001) %MON advcfl_uvel_max              =   7.0922010404190E-04
(PID.TID 0000.0001) %MON advcfl_vvel_max              =   7.0922010404192E-04
(PID.TID 0000.0001) %MON advcfl_wvel_max              =   8.9525764043741E-04
(PID.TID 0000.0001) %MON advcfl_W_hf_max              =   0.0000000000000E+00
(PID.TID 0000.0001) %MON pe_b_mean                    =   4.7324057825027E-04
(PID.TID 0000.0001) %MON ke_max                       =   3.1269835228272E-02
(PID.TID 0000.0001) %MON ke_mean                      =   6.9936772553671E-04
(PID.TID 0000.0001) %MON ke_vol                       =   6.2001702110790E+17
(PID.TID 0000.0001) %MON vort_r_min                   =  -2.2390356013767E-14
(PID.TID 0000.0001) %MON vort_r_max                   =   2.2390356013781E-14
(PID.TID 0000.0001) %MON vort_a_mean                  =   4.2916559760387E-21
(PID.TID 0000.0001) %MON vort_a_sd                    =   8.8130260173793E-05
(PID.TID 0000.0001) %MON vort_p_mean                  =   4.3511624968410E-21
(PID.TID 0000.0001) %MON vort_p_sd                    =   8.9588950369064E-05
(PID.TID 0000.0001) %MON surfExpan_theta_mean         =  -2.2534890300790E-20
(PID.TID 0000.0001) %MON surfExpan_salt_mean          =   0.0000000000000E+00
(PID.TID 0000.0001) // =======================================================
(PID.TID 0000.0001) // End MONITOR dynamic field statistics
(PID.TID 0000.0001) // =======================================================
 cg2d: Sum(rhs),rhsMax =  -6.01857400832648E+01  1.51682591023320E+03
(PID.TID 0000.0001)                    cg2d_init_res =    1.01952118454621E+00
(PID.TID 0000.0001)                       cg2d_iters =     6
(PID.TID 0000.0001)                         cg2d_res =    3.18853449776344E-15
(PID.TID 0000.0001) // =======================================================
(PID.TID 0000.0001) // Begin MONITOR dynamic field statistics
(PID.TID 0000.0001) // =======================================================
(PID.TID 0000.0001) %MON time_tsnumber                =                    13
(PID.TID 0000.0001) %MON time_secondsf                =   1.1700000000000E+04
(PID.TID 0000.0001) %MON dynstat_eta_max              =   2.3474575194972E+00
(PID.TID 0000.0001) %MON dynstat_eta_min              =  -3.9585266130525E+00
(PID.TID 0000.0001) %MON dynstat_eta_mean             =   5.6129684401127E-02
(PID.TID 0000.0001) %MON dynstat_eta_sd               =   3.6977731613459E-01
(PID.TID 0000.0001) %MON dynstat_eta_del2             =   6.2760745875623E-03
(PID.TID 0000.0001) %MON dynstat_uvel_max             =   2.3589840545326E-01
(PID.TID 0000.0001) %MON dynstat_uvel_min             =  -2.3589840545326E-01
(PID.TID 0000.0001) %MON dynstat_uvel_mean            =  -5.7741200568370E-11
(PID.TID 0000.0001) %MON dynstat_uvel_sd              =   2.5883142523187E-02
(PID.TID 0000.0001) %MON dynstat_uvel_del2            =   3.0410034973523E-04
(PID.TID 0000.0001) %MON dynstat_vvel_max             =   2.3589840545326E-01
(PID.TID 0000.0001) %MON dynstat_vvel_min             =  -2.3589840545327E-01
(PID.TID 0000.0001) %MON dynstat_vvel_mean            =  -5.0556055620025E-12
(PID.TID 0000.0001) %MON dynstat_vvel_sd              =   2.5999790689890E-02
(PID.TID 0000.0001) %MON dynstat_vvel_del2            =   3.0687446092739E-04
(PID.TID 0000.0001) %MON dynstat_wvel_max             =   3.1817214096169E-04
(PID.TID 0000.0001) %MON dynstat_wvel_min             =  -5.6691591321634E-04
(PID.TID 0000.0001) %MON dynstat_wvel_mean            =  -3.0491478582686E-22
(PID.TID 0000.0001) %MON dynstat_wvel_sd              =   6.9406780800893E-05
(PID.TID 0000.0001) %MON dynstat_wvel_del2            =   1.7450950563287E-06
(PID.TID 0000.0001) %MON dynstat_theta_max            =   1.5000000000000E+01
(PID.TID 0000.0001) %MON dynstat_theta_min            =   1.5000000000000E+01
(PID.TID 0000.0001) %MON dynstat_theta_mean           =   1.5000000000000E+01
(PID.TID 0000.0001) %MON dynstat_theta_sd             =   1.7763568394003E-15
(PID.TID 0000.0001) %MON dynstat_theta_del2           =   0.0000000000000E+00
(PID.TID 0000.0001) %MON dynstat_salt_max             =   0.0000000000000E+00
(PID.TID 0000.0001) %MON dynstat_salt_min             =   0.0000000000000E+00
(PID.TID 0000.0001) %MON dynstat_salt_mean            =   0.0000000000000E+00
(PID.TID 0000.0001) %MON dynstat_salt_sd              =   0.0000000000000E+00
(PID.TID 0000.0001) %MON dynstat_salt_del2            =   0.0000000000000E+00
(PID.TID 0000.0001) %MON extforcing_qnet_max          =   0.0000000000000E+00
(PID.TID 0000.0001) %MON extforcing_qnet_min          =   0.0000000000000E+00
(PID.TID 0000.0001) %MON extforcing_qnet_mean         =   0.0000000000000E+00
(PID.TID 0000.0001) %MON extforcing_qnet_sd           =   0.0000000000000E+00
(PID.TID 0000.0001) %MON extforcing_qnet_del2         =   0.0000000000000E+00
(PID.TID 0000.0001) %MON extforcing_qsw_max           =   0.0000000000000E+00
(PID.TID 0000.0001) %MON extforcing_qsw_min           =   0.0000000000000E+00
(PID.TID 0000.0001) %MON extforcing_qsw_mean          =   0.0000000000000E+00
(PID.TID 0000.0001) %MON extforcing_qsw_sd            =   0.0000000000000E+00
(PID.TID 0000.0001) %MON extforcing_qsw_del2          =   0.0000000000000E+00
(PID.TID 0000.0001) %MON extforcing_empmr_max         =   0.0000000000000E+00
(PID.TID 0000.0001) %MON extforcing_empmr_min         =   0.0000000000000E+00
(PID.TID 0000.0001) %MON extforcing_empmr_mean        =   0.0000000000000E+00
(PID.TID 0000.0001) %MON extforcing_empmr_sd          =   0.0000000000000E+00
(PID.TID 0000.0001) %MON extforcing_empmr_del2        =   0.0000000000000E+00
(PID.TID 0000.0001) %MON advcfl_uvel_max              =   6.6578376399172E-04
(PID.TID 0000.0001) %MON advcfl_vvel_max              =   6.6578376399174E-04
(PID.TID 0000.0001) %MON advcfl_wvel_max              =   7.4703414625872E-04
(PID.TID 0000.0001) %MON advcfl_W_hf_max              =   0.0000000000000E+00
(PID.TID 0000.0001) %MON pe_b_mean                    =   5.0272869245935E-04
(PID.TID 0000.0001) %MON ke_max                       =   2.8215731816355E-02
(PID.TID 0000.0001) %MON ke_mean                      =   6.6987961132763E-04
(PID.TID 0000.0001) %MON ke_vol                       =   6.2001702110790E+17
(PID.TID 0000.0001) %MON vort_r_min                   =  -7.3411292661103E-14
(PID.TID 0000.0001) %MON vort_r_max                   =   7.3411292661148E-14
(PID.TID 0000.0001) %MON vort_a_mean                  =   4.2916559760387E-21
(PID.TID 0000.0001) %MON vort_a_sd                    =   8.8130260173781E-05
(PID.TID 0000.0001) %MON vort_p_mean                  =   4.3511624968410E-21
(PID.TID 0000.0001) %MON vort_p_sd                    =   8.9588950369018E-05
(PID.TID 0000.0001) %MON surfExpan_theta_mean         =  -3.3351327246917E-21
(PID.TID 0000.0001) %MON surfExpan_salt_mean          =   0.0000000000000E+00
(PID.TID 0000.0001) // =======================================================
(PID.TID 0000.0001) // End MONITOR dynamic field statistics
(PID.TID 0000.0001) // =======================================================
 cg2d: Sum(rhs),rhsMax =  -5.83378608285479E+01  1.56487208629671E+03
(PID.TID 0000.0001)                    cg2d_init_res =    9.73284287485194E-01
(PID.TID 0000.0001)                       cg2d_iters =     6
(PID.TID 0000.0001)                         cg2d_res =    3.62491222538536E-15
(PID.TID 0000.0001) // =======================================================
(PID.TID 0000.0001) // Begin MONITOR dynamic field statistics
(PID.TID 0000.0001) // =======================================================
(PID.TID 0000.0001) %MON time_tsnumber                =                    14
(PID.TID 0000.0001) %MON time_secondsf                =   1.2600000000000E+04
(PID.TID 0000.0001) %MON dynstat_eta_max              =   2.2620972458967E+00
(PID.TID 0000.0001) %MON dynstat_eta_min              =  -4.0927939382167E+00
(PID.TID 0000.0001) %MON dynstat_eta_mean             =   5.6129684401127E-02
(PID.TID 0000.0001) %MON dynstat_eta_sd               =   3.7779221777444E-01
(PID.TID 0000.0001) %MON dynstat_eta_del2             =   6.3551104308075E-03
(PID.TID 0000.0001) %MON dynstat_uvel_max             =   2.2852231305052E-01
(PID.TID 0000.0001) %MON dynstat_uvel_min             =  -2.2852231305052E-01
(PID.TID 0000.0001) %MON dynstat_uvel_mean            =  -1.8464134234538E-10
(PID.TID 0000.0001) %MON dynstat_uvel_sd              =   2.5463751460016E-02
(PID.TID 0000.0001) %MON dynstat_uvel_del2            =   3.3542383561757E-04
(PID.TID 0000.0001) %MON dynstat_vvel_max             =   2.2852231305053E-01
(PID.TID 0000.0001) %MON dynstat_vvel_min             =  -2.2852231305053E-01
(PID.TID 0000.0001) %MON dynstat_vvel_mean            =  -1.7642223456613E-11
(PID.TID 0000.0001) %MON dynstat_vvel_sd              =   2.5578509547160E-02
(PID.TID 0000.0001) %MON dynstat_vvel_del2            =   3.3848364853041E-04
(PID.TID 0000.0001) %MON dynstat_wvel_max             =   3.0628982276910E-04
(PID.TID 0000.0001) %MON dynstat_wvel_min             =  -5.7021212570324E-04
(PID.TID 0000.0001) %MON dynstat_wvel_mean            =  -2.3069548243479E-22
(PID.TID 0000.0001) %MON dynstat_wvel_sd              =   6.9486438139005E-05
(PID.TID 0000.0001) %MON dynstat_wvel_del2            =   1.9443739656397E-06
(PID.TID 0000.0001) %MON dynstat_theta_max            =   1.5000000000000E+01
(PID.TID 0000.0001) %MON dynstat_theta_min            =   1.5000000000000E+01
(PID.TID 0000.0001) %MON dynstat_theta_mean           =   1.5000000000000E+01
(PID.TID 0000.0001) %MON dynstat_theta_sd             =   1.7763568394003E-15
(PID.TID 0000.0001) %MON dynstat_theta_del2           =   0.0000000000000E+00
(PID.TID 0000.0001) %MON dynstat_salt_max             =   0.0000000000000E+00
(PID.TID 0000.0001) %MON dynstat_salt_min             =   0.0000000000000E+00
(PID.TID 0000.0001) %MON dynstat_salt_mean            =   0.0000000000000E+00
(PID.TID 0000.0001) %MON dynstat_salt_sd              =   0.0000000000000E+00
(PID.TID 0000.0001) %MON dynstat_salt_del2            =   0.0000000000000E+00
(PID.TID 0000.0001) %MON extforcing_qnet_max          =   0.0000000000000E+00
(PID.TID 0000.0001) %MON extforcing_qnet_min          =   0.0000000000000E+00
(PID.TID 0000.0001) %MON extforcing_qnet_mean         =   0.0000000000000E+00
(PID.TID 0000.0001) %MON extforcing_qnet_sd           =   0.0000000000000E+00
(PID.TID 0000.0001) %MON extforcing_qnet_del2         =   0.0000000000000E+00
(PID.TID 0000.0001) %MON extforcing_qsw_max           =   0.0000000000000E+00
(PID.TID 0000.0001) %MON extforcing_qsw_min           =   0.0000000000000E+00
(PID.TID 0000.0001) %MON extforcing_qsw_mean          =   0.0000000000000E+00
(PID.TID 0000.0001) %MON extforcing_qsw_sd            =   0.0000000000000E+00
(PID.TID 0000.0001) %MON extforcing_qsw_del2          =   0.0000000000000E+00
(PID.TID 0000.0001) %MON extforcing_empmr_max         =   0.0000000000000E+00
(PID.TID 0000.0001) %MON extforcing_empmr_min         =   0.0000000000000E+00
(PID.TID 0000.0001) %MON extforcing_empmr_mean        =   0.0000000000000E+00
(PID.TID 0000.0001) %MON extforcing_empmr_sd          =   0.0000000000000E+00
(PID.TID 0000.0001) %MON extforcing_empmr_del2        =   0.0000000000000E+00
(PID.TID 0000.0001) %MON advcfl_uvel_max              =   6.4496597781802E-04
(PID.TID 0000.0001) %MON advcfl_vvel_max              =   6.4496597781804E-04
(PID.TID 0000.0001) %MON advcfl_wvel_max              =   7.5137761805698E-04
(PID.TID 0000.0001) %MON advcfl_W_hf_max              =   0.0000000000000E+00
(PID.TID 0000.0001) %MON pe_b_mean                    =   5.2426195409452E-04
(PID.TID 0000.0001) %MON ke_max                       =   2.6384466025311E-02
(PID.TID 0000.0001) %MON ke_mean                      =   6.4834634969246E-04
(PID.TID 0000.0001) %MON ke_vol                       =   6.2001702110790E+17
(PID.TID 0000.0001) %MON vort_r_min                   =  -2.2275783275769E-13
(PID.TID 0000.0001) %MON vort_r_max                   =   2.2275783275782E-13
(PID.TID 0000.0001) %MON vort_a_mean                  =   4.2916559760387E-21
(PID.TID 0000.0001) %MON vort_a_sd                    =   8.8130260173745E-05
(PID.TID 0000.0001) %MON vort_p_mean                  =   4.3511624968410E-21
(PID.TID 0000.0001) %MON vort_p_sd                    =   8.9588950368875E-05
(PID.TID 0000.0001) %MON surfExpan_theta_mean         =  -1.3188412408015E-20
(PID.TID 0000.0001) %MON surfExpan_salt_mean          =   0.0000000000000E+00
(PID.TID 0000.0001) // =======================================================
(PID.TID 0000.0001) // End MONITOR dynamic field statistics
(PID.TID 0000.0001) // =======================================================
 cg2d: Sum(rhs),rhsMax =  -6.08255678804988E+01  1.50087032749472E+03
(PID.TID 0000.0001)                    cg2d_init_res =    1.02724497886925E+00
(PID.TID 0000.0001)                       cg2d_iters =     6
(PID.TID 0000.0001)                         cg2d_res =    4.63814083975354E-15
(PID.TID 0000.0001) // =======================================================
(PID.TID 0000.0001) // Begin MONITOR dynamic field statistics
(PID.TID 0000.0001) // =======================================================
(PID.TID 0000.0001) %MON time_tsnumber                =                    15
(PID.TID 0000.0001) %MON time_secondsf                =   1.3500000000000E+04
(PID.TID 0000.0001) %MON dynstat_eta_max              =   2.2227577000615E+00
(PID.TID 0000.0001) %MON dynstat_eta_min              =  -3.9358059226456E+00
(PID.TID 0000.0001) %MON dynstat_eta_mean             =   5.6129684401127E-02
(PID.TID 0000.0001) %MON dynstat_eta_sd               =   3.8274412146028E-01
(PID.TID 0000.0001) %MON dynstat_eta_del2             =   6.5906216593729E-03
(PID.TID 0000.0001) %MON dynstat_uvel_max             =   2.1562146456745E-01
(PID.TID 0000.0001) %MON dynstat_uvel_min             =  -2.1562146456746E-01
(PID.TID 0000.0001) %MON dynstat_uvel_mean            =  -5.5132686272692E-10
(PID.TID 0000.0001) %MON dynstat_uvel_sd              =   2.5196573559193E-02
(PID.TID 0000.0001) %MON dynstat_uvel_del2            =   3.5904742611421E-04
(PID.TID 0000.0001) %MON dynstat_vvel_max             =   2.1562146456746E-01
(PID.TID 0000.0001) %MON dynstat_vvel_min             =  -2.1562146456747E-01
(PID.TID 0000.0001) %MON dynstat_vvel_mean            =  -5.7450096802891E-11
(PID.TID 0000.0001) %MON dynstat_vvel_sd              =   2.5310127549429E-02
(PID.TID 0000.0001) %MON dynstat_vvel_del2            =   3.6232261827044E-04
(PID.TID 0000.0001) %MON dynstat_wvel_max             =   3.2525607714147E-04
(PID.TID 0000.0001) %MON dynstat_wvel_min             =  -5.4449042345049E-04
(PID.TID 0000.0001) %MON dynstat_wvel_mean            =  -6.8415420484295E-22
(PID.TID 0000.0001) %MON dynstat_wvel_sd              =   7.0942069904835E-05
(PID.TID 0000.0001) %MON dynstat_wvel_del2            =   2.1113978029749E-06
(PID.TID 0000.0001) %MON dynstat_theta_max            =   1.5000000000000E+01
(PID.TID 0000.0001) %MON dynstat_theta_min            =   1.5000000000000E+01
(PID.TID 0000.0001) %MON dynstat_theta_mean           =   1.5000000000000E+01
(PID.TID 0000.0001) %MON dynstat_theta_sd             =   1.7763568394003E-15
(PID.TID 0000.0001) %MON dynstat_theta_del2           =   0.0000000000000E+00
(PID.TID 0000.0001) %MON dynstat_salt_max             =   0.0000000000000E+00
(PID.TID 0000.0001) %MON dynstat_salt_min             =   0.0000000000000E+00
(PID.TID 0000.0001) %MON dynstat_salt_mean            =   0.0000000000000E+00
(PID.TID 0000.0001) %MON dynstat_salt_sd              =   0.0000000000000E+00
(PID.TID 0000.0001) %MON dynstat_salt_del2            =   0.0000000000000E+00
(PID.TID 0000.0001) %MON extforcing_qnet_max          =   0.0000000000000E+00
(PID.TID 0000.0001) %MON extforcing_qnet_min          =   0.0000000000000E+00
(PID.TID 0000.0001) %MON extforcing_qnet_mean         =   0.0000000000000E+00
(PID.TID 0000.0001) %MON extforcing_qnet_sd           =   0.0000000000000E+00
(PID.TID 0000.0001) %MON extforcing_qnet_del2         =   0.0000000000000E+00
(PID.TID 0000.0001) %MON extforcing_qsw_max           =   0.0000000000000E+00
(PID.TID 0000.0001) %MON extforcing_qsw_min           =   0.0000000000000E+00
(PID.TID 0000.0001) %MON extforcing_qsw_mean          =   0.0000000000000E+00
(PID.TID 0000.0001) %MON extforcing_qsw_sd            =   0.0000000000000E+00
(PID.TID 0000.0001) %MON extforcing_qsw_del2          =   0.0000000000000E+00
(PID.TID 0000.0001) %MON extforcing_empmr_max         =   0.0000000000000E+00
(PID.TID 0000.0001) %MON extforcing_empmr_min         =   0.0000000000000E+00
(PID.TID 0000.0001) %MON extforcing_empmr_mean        =   0.0000000000000E+00
(PID.TID 0000.0001) %MON extforcing_empmr_sd          =   0.0000000000000E+00
(PID.TID 0000.0001) %MON extforcing_empmr_del2        =   0.0000000000000E+00
(PID.TID 0000.0001) %MON advcfl_uvel_max              =   6.0915063450460E-04
(PID.TID 0000.0001) %MON advcfl_vvel_max              =   6.0915063450462E-04
(PID.TID 0000.0001) %MON advcfl_wvel_max              =   7.1748372050577E-04
(PID.TID 0000.0001) %MON advcfl_W_hf_max              =   0.0000000000000E+00
(PID.TID 0000.0001) %MON pe_b_mean                    =   5.3779676476953E-04
(PID.TID 0000.0001) %MON ke_max                       =   2.3903101023652E-02
(PID.TID 0000.0001) %MON ke_mean                      =   6.3481153901745E-04
(PID.TID 0000.0001) %MON ke_vol                       =   6.2001702110790E+17
(PID.TID 0000.0001) %MON vort_r_min                   =  -6.2951711720512E-13
(PID.TID 0000.0001) %MON vort_r_max                   =   6.2951711720548E-13
(PID.TID 0000.0001) %MON vort_a_mean                  =   4.2916559760387E-21
(PID.TID 0000.0001) %MON vort_a_sd                    =   8.8130260173641E-05
(PID.TID 0000.0001) %MON vort_p_mean                  =   4.3511624968410E-21
(PID.TID 0000.0001) %MON vort_p_sd                    =   8.9588950368461E-05
(PID.TID 0000.0001) %MON surfExpan_theta_mean         =  -4.4504473247188E-21
(PID.TID 0000.0001) %MON surfExpan_salt_mean          =   0.0000000000000E+00
(PID.TID 0000.0001) // =======================================================
(PID.TID 0000.0001) // End MONITOR dynamic field statistics
(PID.TID 0000.0001) // =======================================================
 cg2d: Sum(rhs),rhsMax =  -6.78730906066247E+01  1.34502921804398E+03
(PID.TID 0000.0001)                    cg2d_init_res =    1.17413259439872E+00
(PID.TID 0000.0001)                       cg2d_iters =     6
(PID.TID 0000.0001)                         cg2d_res =    6.52021042555664E-15
(PID.TID 0000.0001) // =======================================================
(PID.TID 0000.0001) // Begin MONITOR dynamic field statistics
(PID.TID 0000.0001) // =======================================================
(PID.TID 0000.0001) %MON time_tsnumber                =                    16
(PID.TID 0000.0001) %MON time_secondsf                =   1.4400000000000E+04
(PID.TID 0000.0001) %MON dynstat_eta_max              =   2.1513094385803E+00
(PID.TID 0000.0001) %MON dynstat_eta_min              =  -3.5401305641817E+00
(PID.TID 0000.0001) %MON dynstat_eta_mean             =   5.6129684401127E-02
(PID.TID 0000.0001) %MON dynstat_eta_sd               =   3.8553506114434E-01
(PID.TID 0000.0001) %MON dynstat_eta_del2             =   6.9173187600457E-03
(PID.TID 0000.0001) %MON dynstat_uvel_max             =   2.1272138479545E-01
(PID.TID 0000.0001) %MON dynstat_uvel_min             =  -2.1272138479545E-01
(PID.TID 0000.0001) %MON dynstat_uvel_mean            =  -1.5454909125525E-09
(PID.TID 0000.0001) %MON dynstat_uvel_sd              =   2.5043188515130E-02
(PID.TID 0000.0001) %MON dynstat_uvel_del2            =   3.7183464257638E-04
(PID.TID 0000.0001) %MON dynstat_vvel_max             =   2.1272138479546E-01
(PID.TID 0000.0001) %MON dynstat_vvel_min             =  -2.1272138479546E-01
(PID.TID 0000.0001) %MON dynstat_vvel_mean            =  -1.7552527339860E-10
(PID.TID 0000.0001) %MON dynstat_vvel_sd              =   2.5156051241509E-02
(PID.TID 0000.0001) %MON dynstat_vvel_del2            =   3.7522615457889E-04
(PID.TID 0000.0001) %MON dynstat_wvel_max             =   5.5402249722282E-04
(PID.TID 0000.0001) %MON dynstat_wvel_min             =  -5.0540862081228E-04
(PID.TID 0000.0001) %MON dynstat_wvel_mean            =   4.3692714436935E-22
(PID.TID 0000.0001) %MON dynstat_wvel_sd              =   7.2715951868001E-05
(PID.TID 0000.0001) %MON dynstat_wvel_del2            =   2.1385370342755E-06
(PID.TID 0000.0001) %MON dynstat_theta_max            =   1.5000000000000E+01
(PID.TID 0000.0001) %MON dynstat_theta_min            =   1.5000000000000E+01
(PID.TID 0000.0001) %MON dynstat_theta_mean           =   1.5000000000000E+01
(PID.TID 0000.0001) %MON dynstat_theta_sd             =   1.7763568394003E-15
(PID.TID 0000.0001) %MON dynstat_theta_del2           =   0.0000000000000E+00
(PID.TID 0000.0001) %MON dynstat_salt_max             =   0.0000000000000E+00
(PID.TID 0000.0001) %MON dynstat_salt_min             =   0.0000000000000E+00
(PID.TID 0000.0001) %MON dynstat_salt_mean            =   0.0000000000000E+00
(PID.TID 0000.0001) %MON dynstat_salt_sd              =   0.0000000000000E+00
(PID.TID 0000.0001) %MON dynstat_salt_del2            =   0.0000000000000E+00
(PID.TID 0000.0001) %MON extforcing_qnet_max          =   0.0000000000000E+00
(PID.TID 0000.0001) %MON extforcing_qnet_min          =   0.0000000000000E+00
(PID.TID 0000.0001) %MON extforcing_qnet_mean         =   0.0000000000000E+00
(PID.TID 0000.0001) %MON extforcing_qnet_sd           =   0.0000000000000E+00
(PID.TID 0000.0001) %MON extforcing_qnet_del2         =   0.0000000000000E+00
(PID.TID 0000.0001) %MON extforcing_qsw_max           =   0.0000000000000E+00
(PID.TID 0000.0001) %MON extforcing_qsw_min           =   0.0000000000000E+00
(PID.TID 0000.0001) %MON extforcing_qsw_mean          =   0.0000000000000E+00
(PID.TID 0000.0001) %MON extforcing_qsw_sd            =   0.0000000000000E+00
(PID.TID 0000.0001) %MON extforcing_qsw_del2          =   0.0000000000000E+00
(PID.TID 0000.0001) %MON extforcing_empmr_max         =   0.0000000000000E+00
(PID.TID 0000.0001) %MON extforcing_empmr_min         =   0.0000000000000E+00
(PID.TID 0000.0001) %MON extforcing_empmr_mean        =   0.0000000000000E+00
(PID.TID 0000.0001) %MON extforcing_empmr_sd          =   0.0000000000000E+00
(PID.TID 0000.0001) %MON extforcing_empmr_del2        =   0.0000000000000E+00
(PID.TID 0000.0001) %MON advcfl_uvel_max              =   6.0399376710965E-04
(PID.TID 0000.0001) %MON advcfl_vvel_max              =   6.0399376710968E-04
(PID.TID 0000.0001) %MON advcfl_wvel_max              =   7.3004428623797E-04
(PID.TID 0000.0001) %MON advcfl_W_hf_max              =   0.0000000000000E+00
(PID.TID 0000.0001) %MON pe_b_mean                    =   5.4550277431697E-04
(PID.TID 0000.0001) %MON ke_max                       =   2.2779583119314E-02
(PID.TID 0000.0001) %MON ke_mean                      =   6.2710552947001E-04
(PID.TID 0000.0001) %MON ke_vol                       =   6.2001702110790E+17
(PID.TID 0000.0001) %MON vort_r_min                   =  -1.6658996819297E-12
(PID.TID 0000.0001) %MON vort_r_max                   =   1.6658996819306E-12
(PID.TID 0000.0001) %MON vort_a_mean                  =   4.2916559760387E-21
(PID.TID 0000.0001) %MON vort_a_sd                    =   8.8130260173357E-05
(PID.TID 0000.0001) %MON vort_p_mean                  =   4.3511624968410E-21
(PID.TID 0000.0001) %MON vort_p_sd                    =   8.9588950367327E-05
(PID.TID 0000.0001) %MON surfExpan_theta_mean         =  -1.3846487123043E-20
(PID.TID 0000.0001) %MON surfExpan_salt_mean          =   0.0000000000000E+00
(PID.TID 0000.0001) // =======================================================
(PID.TID 0000.0001) // End MONITOR dynamic field statistics
(PID.TID 0000.0001) // =======================================================
 cg2d: Sum(rhs),rhsMax =  -8.10467657777568E+01  1.12640262827010E+03
(PID.TID 0000.0001)                    cg2d_init_res =    1.43205148175382E+00
(PID.TID 0000.0001)                       cg2d_iters =     6
(PID.TID 0000.0001)                         cg2d_res =    9.25003253703708E-15
(PID.TID 0000.0001) // =======================================================
(PID.TID 0000.0001) // Begin MONITOR dynamic field statistics
(PID.TID 0000.0001) // =======================================================
(PID.TID 0000.0001) %MON time_tsnumber                =                    17
(PID.TID 0000.0001) %MON time_secondsf                =   1.5300000000000E+04
(PID.TID 0000.0001) %MON dynstat_eta_max              =   2.1206096355873E+00
(PID.TID 0000.0001) %MON dynstat_eta_min              =  -2.9807620637431E+00
(PID.TID 0000.0001) %MON dynstat_eta_mean             =   5.6129684401127E-02
(PID.TID 0000.0001) %MON dynstat_eta_sd               =   3.8721810303681E-01
(PID.TID 0000.0001) %MON dynstat_eta_del2             =   6.9306165361338E-03
(PID.TID 0000.0001) %MON dynstat_uvel_max             =   2.0498587617879E-01
(PID.TID 0000.0001) %MON dynstat_uvel_min             =  -2.0498587617878E-01
(PID.TID 0000.0001) %MON dynstat_uvel_mean            =  -4.0862876897559E-09
(PID.TID 0000.0001) %MON dynstat_uvel_sd              =   2.4949698794951E-02
(PID.TID 0000.0001) %MON dynstat_uvel_del2            =   3.9551679324436E-04
(PID.TID 0000.0001) %MON dynstat_vvel_max             =   2.0498587617880E-01
(PID.TID 0000.0001) %MON dynstat_vvel_min             =  -2.0498587617879E-01
(PID.TID 0000.0001) %MON dynstat_vvel_mean            =  -5.0553140620833E-10
(PID.TID 0000.0001) %MON dynstat_vvel_sd              =   2.5062140189810E-02
(PID.TID 0000.0001) %MON dynstat_vvel_del2            =   3.9912352252614E-04
(PID.TID 0000.0001) %MON dynstat_wvel_max             =   6.8901861486321E-04
(PID.TID 0000.0001) %MON dynstat_wvel_min             =  -4.9045085108142E-04
(PID.TID 0000.0001) %MON dynstat_wvel_mean            =   7.2468763969762E-22
(PID.TID 0000.0001) %MON dynstat_wvel_sd              =   7.4007277593749E-05
(PID.TID 0000.0001) %MON dynstat_wvel_del2            =   2.1942364849180E-06
(PID.TID 0000.0001) %MON dynstat_theta_max            =   1.5000000000000E+01
(PID.TID 0000.0001) %MON dynstat_theta_min            =   1.5000000000000E+01
(PID.TID 0000.0001) %MON dynstat_theta_mean           =   1.5000000000000E+01
(PID.TID 0000.0001) %MON dynstat_theta_sd             =   1.7763568394003E-15
(PID.TID 0000.0001) %MON dynstat_theta_del2           =   0.0000000000000E+00
(PID.TID 0000.0001) %MON dynstat_salt_max             =   0.0000000000000E+00
(PID.TID 0000.0001) %MON dynstat_salt_min             =   0.0000000000000E+00
(PID.TID 0000.0001) %MON dynstat_salt_mean            =   0.0000000000000E+00
(PID.TID 0000.0001) %MON dynstat_salt_sd              =   0.0000000000000E+00
(PID.TID 0000.0001) %MON dynstat_salt_del2            =   0.0000000000000E+00
(PID.TID 0000.0001) %MON extforcing_qnet_max          =   0.0000000000000E+00
(PID.TID 0000.0001) %MON extforcing_qnet_min          =   0.0000000000000E+00
(PID.TID 0000.0001) %MON extforcing_qnet_mean         =   0.0000000000000E+00
(PID.TID 0000.0001) %MON extforcing_qnet_sd           =   0.0000000000000E+00
(PID.TID 0000.0001) %MON extforcing_qnet_del2         =   0.0000000000000E+00
(PID.TID 0000.0001) %MON extforcing_qsw_max           =   0.0000000000000E+00
(PID.TID 0000.0001) %MON extforcing_qsw_min           =   0.0000000000000E+00
(PID.TID 0000.0001) %MON extforcing_qsw_mean          =   0.0000000000000E+00
(PID.TID 0000.0001) %MON extforcing_qsw_sd            =   0.0000000000000E+00
(PID.TID 0000.0001) %MON extforcing_qsw_del2          =   0.0000000000000E+00
(PID.TID 0000.0001) %MON extforcing_empmr_max         =   0.0000000000000E+00
(PID.TID 0000.0001) %MON extforcing_empmr_min         =   0.0000000000000E+00
(PID.TID 0000.0001) %MON extforcing_empmr_mean        =   0.0000000000000E+00
(PID.TID 0000.0001) %MON extforcing_empmr_sd          =   0.0000000000000E+00
(PID.TID 0000.0001) %MON extforcing_empmr_del2        =   0.0000000000000E+00
(PID.TID 0000.0001) %MON advcfl_uvel_max              =   5.8202983060003E-04
(PID.TID 0000.0001) %MON advcfl_vvel_max              =   5.8202983060005E-04
(PID.TID 0000.0001) %MON advcfl_wvel_max              =   9.0793082485635E-04
(PID.TID 0000.0001) %MON advcfl_W_hf_max              =   0.0000000000000E+00
(PID.TID 0000.0001) %MON pe_b_mean                    =   5.5017685004408E-04
(PID.TID 0000.0001) %MON ke_max                       =   2.1113920221167E-02
(PID.TID 0000.0001) %MON ke_mean                      =   6.2243145374290E-04
(PID.TID 0000.0001) %MON ke_vol                       =   6.2001702110790E+17
(PID.TID 0000.0001) %MON vort_r_min                   =  -4.1477750290013E-12
(PID.TID 0000.0001) %MON vort_r_max                   =   4.1477750290035E-12
(PID.TID 0000.0001) %MON vort_a_mean                  =   4.2916559760387E-21
(PID.TID 0000.0001) %MON vort_a_sd                    =   8.8130260172623E-05
(PID.TID 0000.0001) %MON vort_p_mean                  =   4.3511624968410E-21
(PID.TID 0000.0001) %MON vort_p_sd                    =   8.9588950364403E-05
(PID.TID 0000.0001) %MON surfExpan_theta_mean         =  -8.8363187433425E-21
(PID.TID 0000.0001) %MON surfExpan_salt_mean          =   0.0000000000000E+00
(PID.TID 0000.0001) // =======================================================
(PID.TID 0000.0001) // End MONITOR dynamic field statistics
(PID.TID 0000.0001) // =======================================================
 cg2d: Sum(rhs),rhsMax =  -9.99576929926916E+01  9.13299289445700E+02
(PID.TID 0000.0001)                    cg2d_init_res =    1.78495257708099E+00
(PID.TID 0000.0001)                       cg2d_iters =     6
(PID.TID 0000.0001)                         cg2d_res =    1.33929848140974E-14
(PID.TID 0000.0001) // =======================================================
(PID.TID 0000.0001) // Begin MONITOR dynamic field statistics
(PID.TID 0000.0001) // =======================================================
(PID.TID 0000.0001) %MON time_tsnumber                =                    18
(PID.TID 0000.0001) %MON time_secondsf                =   1.6200000000000E+04
(PID.TID 0000.0001) %MON dynstat_eta_max              =   2.0680531208214E+00
(PID.TID 0000.0001) %MON dynstat_eta_min              =  -2.4259342765035E+00
(PID.TID 0000.0001) %MON dynstat_eta_mean             =   5.6129684401127E-02
(PID.TID 0000.0001) %MON dynstat_eta_sd               =   3.8857238120237E-01
(PID.TID 0000.0001) %MON dynstat_eta_del2             =   7.0947184331512E-03
(PID.TID 0000.0001) %MON dynstat_uvel_max             =   1.9686187815849E-01
(PID.TID 0000.0001) %MON dynstat_uvel_min             =  -1.9686187815852E-01
(PID.TID 0000.0001) %MON dynstat_uvel_mean            =  -1.0232130821256E-08
(PID.TID 0000.0001) %MON dynstat_uvel_sd              =   2.4873922173707E-02
(PID.TID 0000.0001) %MON dynstat_uvel_del2            =   4.1460676334735E-04
(PID.TID 0000.0001) %MON dynstat_vvel_max             =   1.9686187815853E-01
(PID.TID 0000.0001) %MON dynstat_vvel_min             =  -1.9686187815853E-01
(PID.TID 0000.0001) %MON dynstat_vvel_mean            =  -1.3781979726016E-09
(PID.TID 0000.0001) %MON dynstat_vvel_sd              =   2.4986022068876E-02
(PID.TID 0000.0001) %MON dynstat_vvel_del2            =   4.1838571238397E-04
(PID.TID 0000.0001) %MON dynstat_wvel_max             =   7.2189926097889E-04
(PID.TID 0000.0001) %MON dynstat_wvel_min             =  -4.9288354511508E-04
(PID.TID 0000.0001) %MON dynstat_wvel_mean            =   4.6709051194262E-23
(PID.TID 0000.0001) %MON dynstat_wvel_sd              =   7.4509308096338E-05
(PID.TID 0000.0001) %MON dynstat_wvel_del2            =   2.1875181623633E-06
(PID.TID 0000.0001) %MON dynstat_theta_max            =   1.5000000000000E+01
(PID.TID 0000.0001) %MON dynstat_theta_min            =   1.5000000000000E+01
(PID.TID 0000.0001) %MON dynstat_theta_mean           =   1.5000000000000E+01
(PID.TID 0000.0001) %MON dynstat_theta_sd             =   1.7763568394003E-15
(PID.TID 0000.0001) %MON dynstat_theta_del2           =   0.0000000000000E+00
(PID.TID 0000.0001) %MON dynstat_salt_max             =   0.0000000000000E+00
(PID.TID 0000.0001) %MON dynstat_salt_min             =   0.0000000000000E+00
(PID.TID 0000.0001) %MON dynstat_salt_mean            =   0.0000000000000E+00
(PID.TID 0000.0001) %MON dynstat_salt_sd              =   0.0000000000000E+00
(PID.TID 0000.0001) %MON dynstat_salt_del2            =   0.0000000000000E+00
(PID.TID 0000.0001) %MON extforcing_qnet_max          =   0.0000000000000E+00
(PID.TID 0000.0001) %MON extforcing_qnet_min          =   0.0000000000000E+00
(PID.TID 0000.0001) %MON extforcing_qnet_mean         =   0.0000000000000E+00
(PID.TID 0000.0001) %MON extforcing_qnet_sd           =   0.0000000000000E+00
(PID.TID 0000.0001) %MON extforcing_qnet_del2         =   0.0000000000000E+00
(PID.TID 0000.0001) %MON extforcing_qsw_max           =   0.0000000000000E+00
(PID.TID 0000.0001) %MON extforcing_qsw_min           =   0.0000000000000E+00
(PID.TID 0000.0001) %MON extforcing_qsw_mean          =   0.0000000000000E+00
(PID.TID 0000.0001) %MON extforcing_qsw_sd            =   0.0000000000000E+00
(PID.TID 0000.0001) %MON extforcing_qsw_del2          =   0.0000000000000E+00
(PID.TID 0000.0001) %MON extforcing_empmr_max         =   0.0000000000000E+00
(PID.TID 0000.0001) %MON extforcing_empmr_min         =   0.0000000000000E+00
(PID.TID 0000.0001) %MON extforcing_empmr_mean        =   0.0000000000000E+00
(PID.TID 0000.0001) %MON extforcing_empmr_sd          =   0.0000000000000E+00
(PID.TID 0000.0001) %MON extforcing_empmr_del2        =   0.0000000000000E+00
(PID.TID 0000.0001) %MON advcfl_uvel_max              =   5.6267064972751E-04
(PID.TID 0000.0001) %MON advcfl_vvel_max              =   5.6267064972754E-04
(PID.TID 0000.0001) %MON advcfl_wvel_max              =   9.5125817698535E-04
(PID.TID 0000.0001) %MON advcfl_W_hf_max              =   0.0000000000000E+00
(PID.TID 0000.0001) %MON pe_b_mean                    =   5.5395267933408E-04
(PID.TID 0000.0001) %MON ke_max                       =   2.0121400763694E-02
(PID.TID 0000.0001) %MON ke_mean                      =   6.1865562445290E-04
(PID.TID 0000.0001) %MON ke_vol                       =   6.2001702110790E+17
(PID.TID 0000.0001) %MON vort_r_min                   =  -9.7569481685041E-12
(PID.TID 0000.0001) %MON vort_r_max                   =   9.7569481685092E-12
(PID.TID 0000.0001) %MON vort_a_mean                  =   4.2916559760387E-21
(PID.TID 0000.0001) %MON vort_a_sd                    =   8.8130260170829E-05
(PID.TID 0000.0001) %MON vort_p_mean                  =   4.3511624968410E-21
(PID.TID 0000.0001) %MON vort_p_sd                    =   8.9588950357263E-05
(PID.TID 0000.0001) %MON surfExpan_theta_mean         =  -1.6688070448942E-20
(PID.TID 0000.0001) %MON surfExpan_salt_mean          =   0.0000000000000E+00
(PID.TID 0000.0001) // =======================================================
(PID.TID 0000.0001) // End MONITOR dynamic field statistics
(PID.TID 0000.0001) // =======================================================
 cg2d: Sum(rhs),rhsMax =  -1.07337973824244E+02  8.50503197818303E+02
(PID.TID 0000.0001)                    cg2d_init_res =    1.91600528080808E+00
(PID.TID 0000.0001)                       cg2d_iters =     6
(PID.TID 0000.0001)                         cg2d_res =    1.69412239138459E-14
(PID.TID 0000.0001) // =======================================================
(PID.TID 0000.0001) // Begin MONITOR dynamic field statistics
(PID.TID 0000.0001) // =======================================================
(PID.TID 0000.0001) %MON time_tsnumber                =                    19
(PID.TID 0000.0001) %MON time_secondsf                =   1.7100000000000E+04
(PID.TID 0000.0001) %MON dynstat_eta_max              =   2.0345568851649E+00
(PID.TID 0000.0001) %MON dynstat_eta_min              =  -2.2559684129552E+00
(PID.TID 0000.0001) %MON dynstat_eta_mean             =   5.6129684401127E-02
(PID.TID 0000.0001) %MON dynstat_eta_sd               =   3.8992402566182E-01
(PID.TID 0000.0001) %MON dynstat_eta_del2             =   7.6239660830324E-03
(PID.TID 0000.0001) %MON dynstat_uvel_max             =   1.9565787998155E-01
(PID.TID 0000.0001) %MON dynstat_uvel_min             =  -1.9565787998165E-01
(PID.TID 0000.0001) %MON dynstat_uvel_mean            =  -2.4351751399843E-08
(PID.TID 0000.0001) %MON dynstat_uvel_sd              =   2.4797797857125E-02
(PID.TID 0000.0001) %MON dynstat_uvel_del2            =   4.2077323314045E-04
(PID.TID 0000.0001) %MON dynstat_vvel_max             =   1.9565787998166E-01
(PID.TID 0000.0001) %MON dynstat_vvel_min             =  -1.9565787998166E-01
(PID.TID 0000.0001) %MON dynstat_vvel_mean            =  -3.5695532451017E-09
(PID.TID 0000.0001) %MON dynstat_vvel_sd              =   2.4909554704824E-02
(PID.TID 0000.0001) %MON dynstat_vvel_del2            =   4.2460415167172E-04
(PID.TID 0000.0001) %MON dynstat_wvel_max             =   6.5956791145237E-04
(PID.TID 0000.0001) %MON dynstat_wvel_min             =  -4.6857114508753E-04
(PID.TID 0000.0001) %MON dynstat_wvel_mean            =   4.2085311761982E-22
(PID.TID 0000.0001) %MON dynstat_wvel_sd              =   7.4396346909896E-05
(PID.TID 0000.0001) %MON dynstat_wvel_del2            =   2.1818137058353E-06
(PID.TID 0000.0001) %MON dynstat_theta_max            =   1.5000000000000E+01
(PID.TID 0000.0001) %MON dynstat_theta_min            =   1.5000000000000E+01
(PID.TID 0000.0001) %MON dynstat_theta_mean           =   1.5000000000000E+01
(PID.TID 0000.0001) %MON dynstat_theta_sd             =   1.7763568394003E-15
(PID.TID 0000.0001) %MON dynstat_theta_del2           =   0.0000000000000E+00
(PID.TID 0000.0001) %MON dynstat_salt_max             =   0.0000000000000E+00
(PID.TID 0000.0001) %MON dynstat_salt_min             =   0.0000000000000E+00
(PID.TID 0000.0001) %MON dynstat_salt_mean            =   0.0000000000000E+00
(PID.TID 0000.0001) %MON dynstat_salt_sd              =   0.0000000000000E+00
(PID.TID 0000.0001) %MON dynstat_salt_del2            =   0.0000000000000E+00
(PID.TID 0000.0001) %MON extforcing_qnet_max          =   0.0000000000000E+00
(PID.TID 0000.0001) %MON extforcing_qnet_min          =   0.0000000000000E+00
(PID.TID 0000.0001) %MON extforcing_qnet_mean         =   0.0000000000000E+00
(PID.TID 0000.0001) %MON extforcing_qnet_sd           =   0.0000000000000E+00
(PID.TID 0000.0001) %MON extforcing_qnet_del2         =   0.0000000000000E+00
(PID.TID 0000.0001) %MON extforcing_qsw_max           =   0.0000000000000E+00
(PID.TID 0000.0001) %MON extforcing_qsw_min           =   0.0000000000000E+00
(PID.TID 0000.0001) %MON extforcing_qsw_mean          =   0.0000000000000E+00
(PID.TID 0000.0001) %MON extforcing_qsw_sd            =   0.0000000000000E+00
(PID.TID 0000.0001) %MON extforcing_qsw_del2          =   0.0000000000000E+00
(PID.TID 0000.0001) %MON extforcing_empmr_max         =   0.0000000000000E+00
(PID.TID 0000.0001) %MON extforcing_empmr_min         =   0.0000000000000E+00
(PID.TID 0000.0001) %MON extforcing_empmr_mean        =   0.0000000000000E+00
(PID.TID 0000.0001) %MON extforcing_empmr_sd          =   0.0000000000000E+00
(PID.TID 0000.0001) %MON extforcing_empmr_del2        =   0.0000000000000E+00
(PID.TID 0000.0001) %MON advcfl_uvel_max              =   5.5922938195752E-04
(PID.TID 0000.0001) %MON advcfl_vvel_max              =   5.5922938195754E-04
(PID.TID 0000.0001) %MON advcfl_wvel_max              =   8.6912316296799E-04
(PID.TID 0000.0001) %MON advcfl_W_hf_max              =   0.0000000000000E+00
(PID.TID 0000.0001) %MON pe_b_mean                    =   5.5773430996582E-04
(PID.TID 0000.0001) %MON ke_max                       =   1.8764396220015E-02
(PID.TID 0000.0001) %MON ke_mean                      =   6.1487399382116E-04
(PID.TID 0000.0001) %MON ke_vol                       =   6.2001702110790E+17
(PID.TID 0000.0001) %MON vort_r_min                   =  -2.1764202389543E-11
(PID.TID 0000.0001) %MON vort_r_max                   =   2.1764202389553E-11
(PID.TID 0000.0001) %MON vort_a_mean                  =   4.2916559760387E-21
(PID.TID 0000.0001) %MON vort_a_sd                    =   8.8130260166662E-05
(PID.TID 0000.0001) %MON vort_p_mean                  =   4.3511624968410E-21
(PID.TID 0000.0001) %MON vort_p_sd                    =   8.9588950340692E-05
(PID.TID 0000.0001) %MON surfExpan_theta_mean         =   1.9014820861925E-20
(PID.TID 0000.0001) %MON surfExpan_salt_mean          =   0.0000000000000E+00
(PID.TID 0000.0001) // =======================================================
(PID.TID 0000.0001) // End MONITOR dynamic field statistics
(PID.TID 0000.0001) // =======================================================
 cg2d: Sum(rhs),rhsMax =  -1.11186552551392E+02  8.21064129519263E+02
(PID.TID 0000.0001)                    cg2d_init_res =    1.97214997270519E+00
(PID.TID 0000.0001)                       cg2d_iters =     6
(PID.TID 0000.0001)                         cg2d_res =    2.35359555988361E-14
(PID.TID 0000.0001) // =======================================================
(PID.TID 0000.0001) // Begin MONITOR dynamic field statistics
(PID.TID 0000.0001) // =======================================================
(PID.TID 0000.0001) %MON time_tsnumber                =                    20
(PID.TID 0000.0001) %MON time_secondsf                =   1.8000000000000E+04
(PID.TID 0000.0001) %MON dynstat_eta_max              =   1.9921615631007E+00
(PID.TID 0000.0001) %MON dynstat_eta_min              =  -2.1755092668696E+00
(PID.TID 0000.0001) %MON dynstat_eta_mean             =   5.6129684401127E-02
(PID.TID 0000.0001) %MON dynstat_eta_sd               =   3.9123734772259E-01
(PID.TID 0000.0001) %MON dynstat_eta_del2             =   7.9397650713465E-03
(PID.TID 0000.0001) %MON dynstat_uvel_max             =   1.8844088744926E-01
(PID.TID 0000.0001) %MON dynstat_uvel_min             =  -1.8844088744963E-01
(PID.TID 0000.0001) %MON dynstat_uvel_mean            =  -5.5257232576569E-08
(PID.TID 0000.0001) %MON dynstat_uvel_sd              =   2.4723354226656E-02
(PID.TID 0000.0001) %MON dynstat_uvel_del2            =   4.2754767807780E-04
(PID.TID 0000.0001) %MON dynstat_vvel_max             =   1.8844088744964E-01
(PID.TID 0000.0001) %MON dynstat_vvel_min             =  -1.8844088744964E-01
(PID.TID 0000.0001) %MON dynstat_vvel_mean            =  -8.8117001784540E-09
(PID.TID 0000.0001) %MON dynstat_vvel_sd              =   2.4834775689272E-02
(PID.TID 0000.0001) %MON dynstat_vvel_del2            =   4.3143134824816E-04
(PID.TID 0000.0001) %MON dynstat_wvel_max             =   5.2393435053752E-04
(PID.TID 0000.0001) %MON dynstat_wvel_min             =  -4.6018141527493E-04
(PID.TID 0000.0001) %MON dynstat_wvel_mean            =   9.3555093174121E-22
(PID.TID 0000.0001) %MON dynstat_wvel_sd              =   7.4097149821625E-05
(PID.TID 0000.0001) %MON dynstat_wvel_del2            =   2.3071012116417E-06
(PID.TID 0000.0001) %MON dynstat_theta_max            =   1.5000000000000E+01
(PID.TID 0000.0001) %MON dynstat_theta_min            =   1.5000000000000E+01
(PID.TID 0000.0001) %MON dynstat_theta_mean           =   1.5000000000000E+01
(PID.TID 0000.0001) %MON dynstat_theta_sd             =   1.7763568394003E-15
(PID.TID 0000.0001) %MON dynstat_theta_del2           =   0.0000000000000E+00
(PID.TID 0000.0001) %MON dynstat_salt_max             =   0.0000000000000E+00
(PID.TID 0000.0001) %MON dynstat_salt_min             =   0.0000000000000E+00
(PID.TID 0000.0001) %MON dynstat_salt_mean            =   0.0000000000000E+00
(PID.TID 0000.0001) %MON dynstat_salt_sd              =   0.0000000000000E+00
(PID.TID 0000.0001) %MON dynstat_salt_del2            =   0.0000000000000E+00
(PID.TID 0000.0001) %MON extforcing_qnet_max          =   0.0000000000000E+00
(PID.TID 0000.0001) %MON extforcing_qnet_min          =   0.0000000000000E+00
(PID.TID 0000.0001) %MON extforcing_qnet_mean         =   0.0000000000000E+00
(PID.TID 0000.0001) %MON extforcing_qnet_sd           =   0.0000000000000E+00
(PID.TID 0000.0001) %MON extforcing_qnet_del2         =   0.0000000000000E+00
(PID.TID 0000.0001) %MON extforcing_qsw_max           =   0.0000000000000E+00
(PID.TID 0000.0001) %MON extforcing_qsw_min           =   0.0000000000000E+00
(PID.TID 0000.0001) %MON extforcing_qsw_mean          =   0.0000000000000E+00
(PID.TID 0000.0001) %MON extforcing_qsw_sd            =   0.0000000000000E+00
(PID.TID 0000.0001) %MON extforcing_qsw_del2          =   0.0000000000000E+00
(PID.TID 0000.0001) %MON extforcing_empmr_max         =   0.0000000000000E+00
(PID.TID 0000.0001) %MON extforcing_empmr_min         =   0.0000000000000E+00
(PID.TID 0000.0001) %MON extforcing_empmr_mean        =   0.0000000000000E+00
(PID.TID 0000.0001) %MON extforcing_empmr_sd          =   0.0000000000000E+00
(PID.TID 0000.0001) %MON extforcing_empmr_del2        =   0.0000000000000E+00
(PID.TID 0000.0001) %MON advcfl_uvel_max              =   5.3860177281827E-04
(PID.TID 0000.0001) %MON advcfl_vvel_max              =   5.3860177281829E-04
(PID.TID 0000.0001) %MON advcfl_wvel_max              =   6.9039665517390E-04
(PID.TID 0000.0001) %MON advcfl_W_hf_max              =   0.0000000000000E+00
(PID.TID 0000.0001) %MON pe_b_mean                    =   5.6142130052837E-04
(PID.TID 0000.0001) %MON ke_max                       =   1.8027343176684E-02
(PID.TID 0000.0001) %MON ke_mean                      =   6.1118700325861E-04
(PID.TID 0000.0001) %MON ke_vol                       =   6.2001702110790E+17
(PID.TID 0000.0001) %MON vort_r_min                   =  -4.6187136894473E-11
(PID.TID 0000.0001) %MON vort_r_max                   =   4.6187136894496E-11
(PID.TID 0000.0001) %MON vort_a_mean                  =   4.2916559760387E-21
(PID.TID 0000.0001) %MON vort_a_sd                    =   8.8130260157433E-05
(PID.TID 0000.0001) %MON vort_p_mean                  =   4.3511624968410E-21
(PID.TID 0000.0001) %MON vort_p_sd                    =   8.9588950304029E-05
(PID.TID 0000.0001) %MON surfExpan_theta_mean         =  -1.6903459391467E-21
(PID.TID 0000.0001) %MON surfExpan_salt_mean          =   0.0000000000000E+00
(PID.TID 0000.0001) // =======================================================
(PID.TID 0000.0001) // End MONITOR dynamic field statistics
(PID.TID 0000.0001) // =======================================================
 cg2d: Sum(rhs),rhsMax =  -1.20154781625319E+02  7.59780749046944E+02
(PID.TID 0000.0001)                    cg2d_init_res =    2.11834650200427E+00
(PID.TID 0000.0001)                       cg2d_iters =     6
(PID.TID 0000.0001)                         cg2d_res =    3.78008237780333E-14
(PID.TID 0000.0001) // =======================================================
(PID.TID 0000.0001) // Begin MONITOR dynamic field statistics
(PID.TID 0000.0001) // =======================================================
(PID.TID 0000.0001) %MON time_tsnumber                =                    21
(PID.TID 0000.0001) %MON time_secondsf                =   1.8900000000000E+04
(PID.TID 0000.0001) %MON dynstat_eta_max              =   1.9714984598309E+00
(PID.TID 0000.0001) %MON dynstat_eta_min              =  -2.0228964009259E+00
(PID.TID 0000.0001) %MON dynstat_eta_mean             =   5.6129684401127E-02
(PID.TID 0000.0001) %MON dynstat_eta_sd               =   3.9235707391697E-01
(PID.TID 0000.0001) %MON dynstat_eta_del2             =   8.0550406889565E-03
(PID.TID 0000.0001) %MON dynstat_uvel_max             =   1.8270496821325E-01
(PID.TID 0000.0001) %MON dynstat_uvel_min             =  -1.8270496822999E-01
(PID.TID 0000.0001) %MON dynstat_uvel_mean            =  -1.1988155901894E-07
(PID.TID 0000.0001) %MON dynstat_uvel_sd              =   2.4659511320087E-02
(PID.TID 0000.0001) %MON dynstat_uvel_del2            =   4.3376921458002E-04
(PID.TID 0000.0001) %MON dynstat_vvel_max             =   1.8270496823000E-01
(PID.TID 0000.0001) %MON dynstat_vvel_min             =  -1.8270496823000E-01
(PID.TID 0000.0001) %MON dynstat_vvel_mean            =  -2.0792230398355E-08
(PID.TID 0000.0001) %MON dynstat_vvel_sd              =   2.4770645539633E-02
(PID.TID 0000.0001) %MON dynstat_vvel_del2            =   4.3769143869881E-04
(PID.TID 0000.0001) %MON dynstat_wvel_max             =   3.4819224393663E-04
(PID.TID 0000.0001) %MON dynstat_wvel_min             =  -4.4472922819228E-04
(PID.TID 0000.0001) %MON dynstat_wvel_mean            =   1.4361200690060E-22
(PID.TID 0000.0001) %MON dynstat_wvel_sd              =   7.3966665080009E-05
(PID.TID 0000.0001) %MON dynstat_wvel_del2            =   2.3742194692708E-06
(PID.TID 0000.0001) %MON dynstat_theta_max            =   1.5000000000000E+01
(PID.TID 0000.0001) %MON dynstat_theta_min            =   1.5000000000000E+01
(PID.TID 0000.0001) %MON dynstat_theta_mean           =   1.5000000000000E+01
(PID.TID 0000.0001) %MON dynstat_theta_sd             =   1.7763568394003E-15
(PID.TID 0000.0001) %MON dynstat_theta_del2           =   0.0000000000000E+00
(PID.TID 0000.0001) %MON dynstat_salt_max             =   0.0000000000000E+00
(PID.TID 0000.0001) %MON dynstat_salt_min             =   0.0000000000000E+00
(PID.TID 0000.0001) %MON dynstat_salt_mean            =   0.0000000000000E+00
(PID.TID 0000.0001) %MON dynstat_salt_sd              =   0.0000000000000E+00
(PID.TID 0000.0001) %MON dynstat_salt_del2            =   0.0000000000000E+00
(PID.TID 0000.0001) %MON extforcing_qnet_max          =   0.0000000000000E+00
(PID.TID 0000.0001) %MON extforcing_qnet_min          =   0.0000000000000E+00
(PID.TID 0000.0001) %MON extforcing_qnet_mean         =   0.0000000000000E+00
(PID.TID 0000.0001) %MON extforcing_qnet_sd           =   0.0000000000000E+00
(PID.TID 0000.0001) %MON extforcing_qnet_del2         =   0.0000000000000E+00
(PID.TID 0000.0001) %MON extforcing_qsw_max           =   0.0000000000000E+00
(PID.TID 0000.0001) %MON extforcing_qsw_min           =   0.0000000000000E+00
(PID.TID 0000.0001) %MON extforcing_qsw_mean          =   0.0000000000000E+00
(PID.TID 0000.0001) %MON extforcing_qsw_sd            =   0.0000000000000E+00
(PID.TID 0000.0001) %MON extforcing_qsw_del2          =   0.0000000000000E+00
(PID.TID 0000.0001) %MON extforcing_empmr_max         =   0.0000000000000E+00
(PID.TID 0000.0001) %MON extforcing_empmr_min         =   0.0000000000000E+00
(PID.TID 0000.0001) %MON extforcing_empmr_mean        =   0.0000000000000E+00
(PID.TID 0000.0001) %MON extforcing_empmr_sd          =   0.0000000000000E+00
(PID.TID 0000.0001) %MON extforcing_empmr_del2        =   0.0000000000000E+00
(PID.TID 0000.0001) %MON advcfl_uvel_max              =   5.2585986377018E-04
(PID.TID 0000.0001) %MON advcfl_vvel_max              =   5.2585986377021E-04
(PID.TID 0000.0001) %MON advcfl_wvel_max              =   5.8602680142467E-04
(PID.TID 0000.0001) %MON advcfl_W_hf_max              =   0.0000000000000E+00
(PID.TID 0000.0001) %MON pe_b_mean                    =   5.6457458534642E-04
(PID.TID 0000.0001) %MON ke_max                       =   1.7073087695893E-02
(PID.TID 0000.0001) %MON ke_mean                      =   6.0803371844056E-04
(PID.TID 0000.0001) %MON ke_vol                       =   6.2001702110790E+17
(PID.TID 0000.0001) %MON vort_r_min                   =  -9.3522413413966E-11
(PID.TID 0000.0001) %MON vort_r_max                   =   9.3522413414010E-11
(PID.TID 0000.0001) %MON vort_a_mean                  =   4.2916559760387E-21
(PID.TID 0000.0001) %MON vort_a_sd                    =   8.8130260137885E-05
(PID.TID 0000.0001) %MON vort_p_mean                  =   4.3511624968410E-21
(PID.TID 0000.0001) %MON vort_p_sd                    =   8.9588950226488E-05
(PID.TID 0000.0001) %MON surfExpan_theta_mean         =  -9.5518459721138E-21
(PID.TID 0000.0001) %MON surfExpan_salt_mean          =   0.0000000000000E+00
(PID.TID 0000.0001) // =======================================================
(PID.TID 0000.0001) // End MONITOR dynamic field statistics
(PID.TID 0000.0001) // =======================================================
 cg2d: Sum(rhs),rhsMax =  -1.25428835897739E+02  7.27833351329878E+02
(PID.TID 0000.0001)                    cg2d_init_res =    2.20581525456351E+00
(PID.TID 0000.0001)                       cg2d_iters =     6
(PID.TID 0000.0001)                         cg2d_res =    6.29279517125620E-14
(PID.TID 0000.0001) // =======================================================
(PID.TID 0000.0001) // Begin MONITOR dynamic field statistics
(PID.TID 0000.0001) // =======================================================
(PID.TID 0000.0001) %MON time_tsnumber                =                    22
(PID.TID 0000.0001) %MON time_secondsf                =   1.9800000000000E+04
(PID.TID 0000.0001) %MON dynstat_eta_max              =   1.9370883759051E+00
(PID.TID 0000.0001) %MON dynstat_eta_min              =  -1.9395421604107E+00
(PID.TID 0000.0001) %MON dynstat_eta_mean             =   5.6129684401127E-02
(PID.TID 0000.0001) %MON dynstat_eta_sd               =   3.9321060507491E-01
(PID.TID 0000.0001) %MON dynstat_eta_del2             =   8.2619411789178E-03
(PID.TID 0000.0001) %MON dynstat_uvel_max             =   1.8230120429869E-01
(PID.TID 0000.0001) %MON dynstat_uvel_min             =  -1.8230120435132E-01
(PID.TID 0000.0001) %MON dynstat_uvel_mean            =  -2.4928277178701E-07
(PID.TID 0000.0001) %MON dynstat_uvel_sd              =   2.4610615916873E-02
(PID.TID 0000.0001) %MON dynstat_uvel_del2            =   4.5157481145971E-04
(PID.TID 0000.0001) %MON dynstat_vvel_max             =   1.8230120435133E-01
(PID.TID 0000.0001) %MON dynstat_vvel_min             =  -1.8230120435133E-01
(PID.TID 0000.0001) %MON dynstat_vvel_mean            =  -4.7017366593349E-08
(PID.TID 0000.0001) %MON dynstat_vvel_sd              =   2.4721531660875E-02
(PID.TID 0000.0001) %MON dynstat_vvel_del2            =   4.5562451703199E-04
(PID.TID 0000.0001) %MON dynstat_wvel_max             =   3.3755140371397E-04
(PID.TID 0000.0001) %MON dynstat_wvel_min             =  -4.2428653695065E-04
(PID.TID 0000.0001) %MON dynstat_wvel_mean            =  -1.6997071639240E-21
(PID.TID 0000.0001) %MON dynstat_wvel_sd              =   7.4078213288359E-05
(PID.TID 0000.0001) %MON dynstat_wvel_del2            =   2.5411649027139E-06
(PID.TID 0000.0001) %MON dynstat_theta_max            =   1.5000000000000E+01
(PID.TID 0000.0001) %MON dynstat_theta_min            =   1.5000000000000E+01
(PID.TID 0000.0001) %MON dynstat_theta_mean           =   1.5000000000000E+01
(PID.TID 0000.0001) %MON dynstat_theta_sd             =   1.7763568394003E-15
(PID.TID 0000.0001) %MON dynstat_theta_del2           =   0.0000000000000E+00
(PID.TID 0000.0001) %MON dynstat_salt_max             =   0.0000000000000E+00
(PID.TID 0000.0001) %MON dynstat_salt_min             =   0.0000000000000E+00
(PID.TID 0000.0001) %MON dynstat_salt_mean            =   0.0000000000000E+00
(PID.TID 0000.0001) %MON dynstat_salt_sd              =   0.0000000000000E+00
(PID.TID 0000.0001) %MON dynstat_salt_del2            =   0.0000000000000E+00
(PID.TID 0000.0001) %MON extforcing_qnet_max          =   0.0000000000000E+00
(PID.TID 0000.0001) %MON extforcing_qnet_min          =   0.0000000000000E+00
(PID.TID 0000.0001) %MON extforcing_qnet_mean         =   0.0000000000000E+00
(PID.TID 0000.0001) %MON extforcing_qnet_sd           =   0.0000000000000E+00
(PID.TID 0000.0001) %MON extforcing_qnet_del2         =   0.0000000000000E+00
(PID.TID 0000.0001) %MON extforcing_qsw_max           =   0.0000000000000E+00
(PID.TID 0000.0001) %MON extforcing_qsw_min           =   0.0000000000000E+00
(PID.TID 0000.0001) %MON extforcing_qsw_mean          =   0.0000000000000E+00
(PID.TID 0000.0001) %MON extforcing_qsw_sd            =   0.0000000000000E+00
(PID.TID 0000.0001) %MON extforcing_qsw_del2          =   0.0000000000000E+00
(PID.TID 0000.0001) %MON extforcing_empmr_max         =   0.0000000000000E+00
(PID.TID 0000.0001) %MON extforcing_empmr_min         =   0.0000000000000E+00
(PID.TID 0000.0001) %MON extforcing_empmr_mean        =   0.0000000000000E+00
(PID.TID 0000.0001) %MON extforcing_empmr_sd          =   0.0000000000000E+00
(PID.TID 0000.0001) %MON extforcing_empmr_del2        =   0.0000000000000E+00
(PID.TID 0000.0001) %MON advcfl_uvel_max              =   5.2469775405695E-04
(PID.TID 0000.0001) %MON advcfl_vvel_max              =   5.2469775405698E-04
(PID.TID 0000.0001) %MON advcfl_wvel_max              =   5.5908914093058E-04
(PID.TID 0000.0001) %MON advcfl_W_hf_max              =   0.0000000000000E+00
(PID.TID 0000.0001) %MON pe_b_mean                    =   5.6698428553977E-04
(PID.TID 0000.0001) %MON ke_max                       =   1.6406601133587E-02
(PID.TID 0000.0001) %MON ke_mean                      =   6.0562401824721E-04
(PID.TID 0000.0001) %MON ke_vol                       =   6.2001702110790E+17
(PID.TID 0000.0001) %MON vort_r_min                   =  -1.8682259252523E-10
(PID.TID 0000.0001) %MON vort_r_max                   =   1.8682259252527E-10
(PID.TID 0000.0001) %MON vort_a_mean                  =   4.2916559760387E-21
(PID.TID 0000.0001) %MON vort_a_sd                    =   8.8130260098198E-05
(PID.TID 0000.0001) %MON vort_p_mean                  =   4.3511624968410E-21
(PID.TID 0000.0001) %MON vort_p_sd                    =   8.9588950069350E-05
(PID.TID 0000.0001) %MON surfExpan_theta_mean         =  -1.9690138494544E-20
(PID.TID 0000.0001) %MON surfExpan_salt_mean          =   0.0000000000000E+00
(PID.TID 0000.0001) // =======================================================
(PID.TID 0000.0001) // End MONITOR dynamic field statistics
(PID.TID 0000.0001) // =======================================================
 cg2d: Sum(rhs),rhsMax =  -1.30844225087979E+02  6.97709737846459E+02
(PID.TID 0000.0001)                    cg2d_init_res =    2.30126533758806E+00
(PID.TID 0000.0001)                       cg2d_iters =     7
(PID.TID 0000.0001)                         cg2d_res =    4.84793212328990E-15
(PID.TID 0000.0001) // =======================================================
(PID.TID 0000.0001) // Begin MONITOR dynamic field statistics
(PID.TID 0000.0001) // =======================================================
(PID.TID 0000.0001) %MON time_tsnumber                =                    23
(PID.TID 0000.0001) %MON time_secondsf                =   2.0700000000000E+04
(PID.TID 0000.0001) %MON dynstat_eta_max              =   1.9071104813853E+00
(PID.TID 0000.0001) %MON dynstat_eta_min              =  -1.8658973923968E+00
(PID.TID 0000.0001) %MON dynstat_eta_mean             =   5.6129684401127E-02
(PID.TID 0000.0001) %MON dynstat_eta_sd               =   3.9385543934169E-01
(PID.TID 0000.0001) %MON dynstat_eta_del2             =   8.4593058042462E-03
(PID.TID 0000.0001) %MON dynstat_uvel_max             =   1.7590631707964E-01
(PID.TID 0000.0001) %MON dynstat_uvel_min             =  -1.7590631723784E-01
(PID.TID 0000.0001) %MON dynstat_uvel_mean            =  -4.9792174096547E-07
(PID.TID 0000.0001) %MON dynstat_uvel_sd              =   2.4573543523137E-02
(PID.TID 0000.0001) %MON dynstat_uvel_del2            =   4.6259228832254E-04
(PID.TID 0000.0001) %MON dynstat_vvel_max             =   1.7590631723785E-01
(PID.TID 0000.0001) %MON dynstat_vvel_min             =  -1.7590631723785E-01
(PID.TID 0000.0001) %MON dynstat_vvel_mean            =  -1.0212630955593E-07
(PID.TID 0000.0001) %MON dynstat_vvel_sd              =   2.4684298995463E-02
(PID.TID 0000.0001) %MON dynstat_vvel_del2            =   4.6667830340433E-04
(PID.TID 0000.0001) %MON dynstat_wvel_max             =   3.1732965543885E-04
(PID.TID 0000.0001) %MON dynstat_wvel_min             =  -4.2410197624451E-04
(PID.TID 0000.0001) %MON dynstat_wvel_mean            =   1.5553501194175E-21
(PID.TID 0000.0001) %MON dynstat_wvel_sd              =   7.4279056456639E-05
(PID.TID 0000.0001) %MON dynstat_wvel_del2            =   2.6439309421776E-06
(PID.TID 0000.0001) %MON dynstat_theta_max            =   1.5000000000000E+01
(PID.TID 0000.0001) %MON dynstat_theta_min            =   1.5000000000000E+01
(PID.TID 0000.0001) %MON dynstat_theta_mean           =   1.5000000000000E+01
(PID.TID 0000.0001) %MON dynstat_theta_sd             =   1.7763568394003E-15
(PID.TID 0000.0001) %MON dynstat_theta_del2           =   0.0000000000000E+00
(PID.TID 0000.0001) %MON dynstat_salt_max             =   0.0000000000000E+00
(PID.TID 0000.0001) %MON dynstat_salt_min             =   0.0000000000000E+00
(PID.TID 0000.0001) %MON dynstat_salt_mean            =   0.0000000000000E+00
(PID.TID 0000.0001) %MON dynstat_salt_sd              =   0.0000000000000E+00
(PID.TID 0000.0001) %MON dynstat_salt_del2            =   0.0000000000000E+00
(PID.TID 0000.0001) %MON extforcing_qnet_max          =   0.0000000000000E+00
(PID.TID 0000.0001) %MON extforcing_qnet_min          =   0.0000000000000E+00
(PID.TID 0000.0001) %MON extforcing_qnet_mean         =   0.0000000000000E+00
(PID.TID 0000.0001) %MON extforcing_qnet_sd           =   0.0000000000000E+00
(PID.TID 0000.0001) %MON extforcing_qnet_del2         =   0.0000000000000E+00
(PID.TID 0000.0001) %MON extforcing_qsw_max           =   0.0000000000000E+00
(PID.TID 0000.0001) %MON extforcing_qsw_min           =   0.0000000000000E+00
(PID.TID 0000.0001) %MON extforcing_qsw_mean          =   0.0000000000000E+00
(PID.TID 0000.0001) %MON extforcing_qsw_sd            =   0.0000000000000E+00
(PID.TID 0000.0001) %MON extforcing_qsw_del2          =   0.0000000000000E+00
(PID.TID 0000.0001) %MON extforcing_empmr_max         =   0.0000000000000E+00
(PID.TID 0000.0001) %MON extforcing_empmr_min         =   0.0000000000000E+00
(PID.TID 0000.0001) %MON extforcing_empmr_mean        =   0.0000000000000E+00
(PID.TID 0000.0001) %MON extforcing_empmr_sd          =   0.0000000000000E+00
(PID.TID 0000.0001) %MON extforcing_empmr_del2        =   0.0000000000000E+00
(PID.TID 0000.0001) %MON advcfl_uvel_max              =   5.0664978524314E-04
(PID.TID 0000.0001) %MON advcfl_vvel_max              =   5.0664978524317E-04
(PID.TID 0000.0001) %MON advcfl_wvel_max              =   5.5884594234269E-04
(PID.TID 0000.0001) %MON advcfl_W_hf_max              =   0.0000000000000E+00
(PID.TID 0000.0001) %MON pe_b_mean                    =   5.6880826234251E-04
(PID.TID 0000.0001) %MON ke_max                       =   1.5627460960388E-02
(PID.TID 0000.0001) %MON ke_mean                      =   6.0380004144447E-04
(PID.TID 0000.0001) %MON ke_vol                       =   6.2001702110790E+17
(PID.TID 0000.0001) %MON vort_r_min                   =  -3.5783684636748E-10
(PID.TID 0000.0001) %MON vort_r_max                   =   3.5783684636754E-10
(PID.TID 0000.0001) %MON vort_a_mean                  =   4.2916559760387E-21
(PID.TID 0000.0001) %MON vort_a_sd                    =   8.8130260020790E-05
(PID.TID 0000.0001) %MON vort_p_mean                  =   4.3511624968410E-21
(PID.TID 0000.0001) %MON vort_p_sd                    =   8.9588949763577E-05
(PID.TID 0000.0001) %MON surfExpan_theta_mean         =  -1.4717974565207E-20
(PID.TID 0000.0001) %MON surfExpan_salt_mean          =   0.0000000000000E+00
(PID.TID 0000.0001) // =======================================================
(PID.TID 0000.0001) // End MONITOR dynamic field statistics
(PID.TID 0000.0001) // =======================================================
 cg2d: Sum(rhs),rhsMax =  -1.37793334655058E+02  6.62523265101238E+02
(PID.TID 0000.0001)                    cg2d_init_res =    2.42307345074361E+00
(PID.TID 0000.0001)                       cg2d_iters =     7
(PID.TID 0000.0001)                         cg2d_res =    8.33348167104924E-15
(PID.TID 0000.0001) // =======================================================
(PID.TID 0000.0001) // Begin MONITOR dynamic field statistics
(PID.TID 0000.0001) // =======================================================
(PID.TID 0000.0001) %MON time_tsnumber                =                    24
(PID.TID 0000.0001) %MON time_secondsf                =   2.1600000000000E+04
(PID.TID 0000.0001) %MON dynstat_eta_max              =   1.8768410209022E+00
(PID.TID 0000.0001) %MON dynstat_eta_min              =  -1.7750577487885E+00
(PID.TID 0000.0001) %MON dynstat_eta_mean             =   5.6129684401127E-02
(PID.TID 0000.0001) %MON dynstat_eta_sd               =   3.9440170085216E-01
(PID.TID 0000.0001) %MON dynstat_eta_del2             =   8.7156463135972E-03
(PID.TID 0000.0001) %MON dynstat_uvel_max             =   1.7107063250584E-01
(PID.TID 0000.0001) %MON dynstat_uvel_min             =  -1.7107063713701E-01
(PID.TID 0000.0001) %MON dynstat_uvel_mean            =  -9.5720563950756E-07
(PID.TID 0000.0001) %MON dynstat_uvel_sd              =   2.4542042483341E-02
(PID.TID 0000.0001) %MON dynstat_uvel_del2            =   4.7716127287059E-04
(PID.TID 0000.0001) %MON dynstat_vvel_max             =   1.7107063713702E-01
(PID.TID 0000.0001) %MON dynstat_vvel_min             =  -1.7107063713702E-01
(PID.TID 0000.0001) %MON dynstat_vvel_mean            =  -2.1352359242141E-07
(PID.TID 0000.0001) %MON dynstat_vvel_sd              =   2.4652678698760E-02
(PID.TID 0000.0001) %MON dynstat_vvel_del2            =   4.8126731541074E-04
(PID.TID 0000.0001) %MON dynstat_wvel_max             =   3.1700579023015E-04
(PID.TID 0000.0001) %MON dynstat_wvel_min             =  -4.1263754884736E-04
(PID.TID 0000.0001) %MON dynstat_wvel_mean            =  -5.1287427449733E-23
(PID.TID 0000.0001) %MON dynstat_wvel_sd              =   7.4399356804371E-05
(PID.TID 0000.0001) %MON dynstat_wvel_del2            =   2.7272022011565E-06
(PID.TID 0000.0001) %MON dynstat_theta_max            =   1.5000000000000E+01
(PID.TID 0000.0001) %MON dynstat_theta_min            =   1.5000000000000E+01
(PID.TID 0000.0001) %MON dynstat_theta_mean           =   1.5000000000000E+01
(PID.TID 0000.0001) %MON dynstat_theta_sd             =   1.7763568394003E-15
(PID.TID 0000.0001) %MON dynstat_theta_del2           =   0.0000000000000E+00
(PID.TID 0000.0001) %MON dynstat_salt_max             =   0.0000000000000E+00
(PID.TID 0000.0001) %MON dynstat_salt_min             =   0.0000000000000E+00
(PID.TID 0000.0001) %MON dynstat_salt_mean            =   0.0000000000000E+00
(PID.TID 0000.0001) %MON dynstat_salt_sd              =   0.0000000000000E+00
(PID.TID 0000.0001) %MON dynstat_salt_del2            =   0.0000000000000E+00
(PID.TID 0000.0001) %MON extforcing_qnet_max          =   0.0000000000000E+00
(PID.TID 0000.0001) %MON extforcing_qnet_min          =   0.0000000000000E+00
(PID.TID 0000.0001) %MON extforcing_qnet_mean         =   0.0000000000000E+00
(PID.TID 0000.0001) %MON extforcing_qnet_sd           =   0.0000000000000E+00
(PID.TID 0000.0001) %MON extforcing_qnet_del2         =   0.0000000000000E+00
(PID.TID 0000.0001) %MON extforcing_qsw_max           =   0.0000000000000E+00
(PID.TID 0000.0001) %MON extforcing_qsw_min           =   0.0000000000000E+00
(PID.TID 0000.0001) %MON extforcing_qsw_mean          =   0.0000000000000E+00
(PID.TID 0000.0001) %MON extforcing_qsw_sd            =   0.0000000000000E+00
(PID.TID 0000.0001) %MON extforcing_qsw_del2          =   0.0000000000000E+00
(PID.TID 0000.0001) %MON extforcing_empmr_max         =   0.0000000000000E+00
(PID.TID 0000.0001) %MON extforcing_empmr_min         =   0.0000000000000E+00
(PID.TID 0000.0001) %MON extforcing_empmr_mean        =   0.0000000000000E+00
(PID.TID 0000.0001) %MON extforcing_empmr_sd          =   0.0000000000000E+00
(PID.TID 0000.0001) %MON extforcing_empmr_del2        =   0.0000000000000E+00
(PID.TID 0000.0001) %MON advcfl_uvel_max              =   4.9586713126407E-04
(PID.TID 0000.0001) %MON advcfl_vvel_max              =   4.9586713126412E-04
(PID.TID 0000.0001) %MON advcfl_wvel_max              =   5.4373908340063E-04
(PID.TID 0000.0001) %MON advcfl_W_hf_max              =   0.0000000000000E+00
(PID.TID 0000.0001) %MON pe_b_mean                    =   5.7035575479955E-04
(PID.TID 0000.0001) %MON ke_max                       =   1.5051546762972E-02
(PID.TID 0000.0001) %MON ke_mean                      =   6.0225254898743E-04
(PID.TID 0000.0001) %MON ke_vol                       =   6.2001702110790E+17
(PID.TID 0000.0001) %MON vort_r_min                   =  -6.5740461333611E-10
(PID.TID 0000.0001) %MON vort_r_max                   =   6.5740461333623E-10
(PID.TID 0000.0001) %MON vort_a_mean                  =   4.2916559760387E-21
(PID.TID 0000.0001) %MON vort_a_sd                    =   8.8130259875458E-05
(PID.TID 0000.0001) %MON vort_p_mean                  =   4.3511624968410E-21
(PID.TID 0000.0001) %MON vort_p_sd                    =   8.9588949191198E-05
(PID.TID 0000.0001) %MON surfExpan_theta_mean         =   3.4594319136956E-20
(PID.TID 0000.0001) %MON surfExpan_salt_mean          =   0.0000000000000E+00
(PID.TID 0000.0001) // =======================================================
(PID.TID 0000.0001) // End MONITOR dynamic field statistics
(PID.TID 0000.0001) // =======================================================
(PID.TID 0000.0001) %CHECKPOINT        24 ckptA
(PID.TID 0000.0001)   Seconds in section "ALL                    [THE_MODEL_MAIN]":
(PID.TID 0000.0001)           User time:  3.87341096
(PID.TID 0000.0001)         System time:  0.109983
(PID.TID 0000.0001)     Wall clock time:  4.35022902
(PID.TID 0000.0001)          No. starts: 1
(PID.TID 0000.0001)           No. stops: 1
(PID.TID 0000.0001)   Seconds in section "INITIALISE_FIXED       [THE_MODEL_MAIN]":
(PID.TID 0000.0001)           User time:  0.624905011
(PID.TID 0000.0001)         System time:  0.0679899999
(PID.TID 0000.0001)     Wall clock time:  0.814893007
(PID.TID 0000.0001)          No. starts: 1
(PID.TID 0000.0001)           No. stops: 1
(PID.TID 0000.0001)   Seconds in section "THE_MAIN_LOOP          [THE_MODEL_MAIN]":
(PID.TID 0000.0001)           User time:  3.24850595
(PID.TID 0000.0001)         System time:  0.0419929996
(PID.TID 0000.0001)     Wall clock time:  3.53520203
(PID.TID 0000.0001)          No. starts: 1
(PID.TID 0000.0001)           No. stops: 1
(PID.TID 0000.0001)   Seconds in section "INITIALISE_VARIA    [THE_MAIN_LOOP]":
(PID.TID 0000.0001)           User time:  0.0969849825
(PID.TID 0000.0001)         System time:  0.0119979978
(PID.TID 0000.0001)     Wall clock time:  0.189776897
(PID.TID 0000.0001)          No. starts: 1
(PID.TID 0000.0001)           No. stops: 1
(PID.TID 0000.0001)   Seconds in section "MAIN LOOP           [THE_MAIN_LOOP]":
(PID.TID 0000.0001)           User time:  3.15152097
(PID.TID 0000.0001)         System time:  0.0299950019
(PID.TID 0000.0001)     Wall clock time:  3.34529209
(PID.TID 0000.0001)          No. starts: 1
(PID.TID 0000.0001)           No. stops: 1
(PID.TID 0000.0001)   Seconds in section "FORWARD_STEP        [THE_MAIN_LOOP]":
(PID.TID 0000.0001)           User time:  3.15052092
(PID.TID 0000.0001)         System time:  0.0299950019
(PID.TID 0000.0001)     Wall clock time:  3.34428501
(PID.TID 0000.0001)          No. starts: 24
(PID.TID 0000.0001)           No. stops: 24
(PID.TID 0000.0001)   Seconds in section "LOAD_FIELDS_DRIVER  [FORWARD_STEP]":
(PID.TID 0000.0001)           User time:  0.00199991465
(PID.TID 0000.0001)         System time:  0.
(PID.TID 0000.0001)     Wall clock time:  0.00302529335
(PID.TID 0000.0001)          No. starts: 24
(PID.TID 0000.0001)           No. stops: 24
(PID.TID 0000.0001)   Seconds in section "EXTERNAL_FLDS_LOAD [LOAD_FLDS_DRIVER]":
(PID.TID 0000.0001)           User time:  0.000999987125
(PID.TID 0000.0001)         System time:  0.
(PID.TID 0000.0001)     Wall clock time:  0.000999689102
(PID.TID 0000.0001)          No. starts: 24
(PID.TID 0000.0001)           No. stops: 24
(PID.TID 0000.0001)   Seconds in section "DO_ATMOSPHERIC_PHYS [FORWARD_STEP]":
(PID.TID 0000.0001)           User time:  0.000999927521
(PID.TID 0000.0001)         System time:  0.
(PID.TID 0000.0001)     Wall clock time:  0.00098991394
(PID.TID 0000.0001)          No. starts: 24
(PID.TID 0000.0001)           No. stops: 24
(PID.TID 0000.0001)   Seconds in section "DO_OCEANIC_PHYS     [FORWARD_STEP]":
(PID.TID 0000.0001)           User time:  0.0899873376
(PID.TID 0000.0001)         System time:  0.
(PID.TID 0000.0001)     Wall clock time:  0.0884661674
(PID.TID 0000.0001)          No. starts: 24
(PID.TID 0000.0001)           No. stops: 24
(PID.TID 0000.0001)   Seconds in section "THERMODYNAMICS      [FORWARD_STEP]":
(PID.TID 0000.0001)           User time:  0.000999927521
(PID.TID 0000.0001)         System time:  0.
(PID.TID 0000.0001)     Wall clock time:  0.000968933105
(PID.TID 0000.0001)          No. starts: 24
(PID.TID 0000.0001)           No. stops: 24
(PID.TID 0000.0001)   Seconds in section "DYNAMICS            [FORWARD_STEP]":
(PID.TID 0000.0001)           User time:  0.71189332
(PID.TID 0000.0001)         System time:  0.00200000405
(PID.TID 0000.0001)     Wall clock time:  0.715496302
(PID.TID 0000.0001)          No. starts: 24
(PID.TID 0000.0001)           No. stops: 24
(PID.TID 0000.0001)   Seconds in section "SOLVE_FOR_PRESSURE  [FORWARD_STEP]":
(PID.TID 0000.0001)           User time:  1.12882644
(PID.TID 0000.0001)         System time:  0.00399900228
(PID.TID 0000.0001)     Wall clock time:  1.13417339
(PID.TID 0000.0001)          No. starts: 24
(PID.TID 0000.0001)           No. stops: 24
(PID.TID 0000.0001)   Seconds in section "MOM_CORRECTION_STEP [FORWARD_STEP]":
(PID.TID 0000.0001)           User time:  0.187972903
(PID.TID 0000.0001)         System time:  0.00299900025
(PID.TID 0000.0001)     Wall clock time:  0.191878319
(PID.TID 0000.0001)          No. starts: 24
(PID.TID 0000.0001)           No. stops: 24
(PID.TID 0000.0001)   Seconds in section "UPDATE_ETAH         [FORWARD_STEP]":
(PID.TID 0000.0001)           User time:  0.0529894829
(PID.TID 0000.0001)         System time:  0.
(PID.TID 0000.0001)     Wall clock time:  0.053750515
(PID.TID 0000.0001)          No. starts: 24
(PID.TID 0000.0001)           No. stops: 24
(PID.TID 0000.0001)   Seconds in section "TRC_CORRECTION_STEP [FORWARD_STEP]":
(PID.TID 0000.0001)           User time:  0.
(PID.TID 0000.0001)         System time:  0.
(PID.TID 0000.0001)     Wall clock time:  0.000990867615
(PID.TID 0000.0001)          No. starts: 24
(PID.TID 0000.0001)           No. stops: 24
(PID.TID 0000.0001)   Seconds in section "BLOCKING_EXCHANGES  [FORWARD_STEP]":
(PID.TID 0000.0001)           User time:  0.216965854
(PID.TID 0000.0001)         System time:  0.0019999966
(PID.TID 0000.0001)     Wall clock time:  0.218117476
(PID.TID 0000.0001)          No. starts: 24
(PID.TID 0000.0001)           No. stops: 24
(PID.TID 0000.0001)   Seconds in section "MONITOR             [FORWARD_STEP]":
(PID.TID 0000.0001)           User time:  0.697894633
(PID.TID 0000.0001)         System time:  0.00199900568
(PID.TID 0000.0001)     Wall clock time:  0.700376511
(PID.TID 0000.0001)          No. starts: 24
(PID.TID 0000.0001)           No. stops: 24
(PID.TID 0000.0001)   Seconds in section "DO_THE_MODEL_IO     [FORWARD_STEP]":
(PID.TID 0000.0001)           User time:  0.0309951305
(PID.TID 0000.0001)         System time:  0.00899899751
(PID.TID 0000.0001)     Wall clock time:  0.201501131
(PID.TID 0000.0001)          No. starts: 24
(PID.TID 0000.0001)           No. stops: 24
(PID.TID 0000.0001)   Seconds in section "DO_WRITE_PICKUP     [FORWARD_STEP]":
(PID.TID 0000.0001)           User time:  0.0129978657
(PID.TID 0000.0001)         System time:  0.00599899888
(PID.TID 0000.0001)     Wall clock time:  0.0203435421
(PID.TID 0000.0001)          No. starts: 24
(PID.TID 0000.0001)           No. stops: 24
(PID.TID 0000.0001) // ======================================================
(PID.TID 0000.0001) // Tile <-> Tile communication statistics
(PID.TID 0000.0001) // ======================================================
(PID.TID 0000.0001) // o Tile number: 000001
(PID.TID 0000.0001) //         No. X exchanges =              0
(PID.TID 0000.0001) //            Max. X spins =              0
(PID.TID 0000.0001) //            Min. X spins =     1000000000
(PID.TID 0000.0001) //          Total. X spins =              0
(PID.TID 0000.0001) //            Avg. X spins =       0.00E+00
(PID.TID 0000.0001) //         No. Y exchanges =              0
(PID.TID 0000.0001) //            Max. Y spins =              0
(PID.TID 0000.0001) //            Min. Y spins =     1000000000
(PID.TID 0000.0001) //          Total. Y spins =              0
(PID.TID 0000.0001) //            Avg. Y spins =       0.00E+00
(PID.TID 0000.0001) // o Tile number: 000002
(PID.TID 0000.0001) //         No. X exchanges =              0
(PID.TID 0000.0001) //            Max. X spins =              0
(PID.TID 0000.0001) //            Min. X spins =     1000000000
(PID.TID 0000.0001) //          Total. X spins =              0
(PID.TID 0000.0001) //            Avg. X spins =       0.00E+00
(PID.TID 0000.0001) //         No. Y exchanges =              0
(PID.TID 0000.0001) //            Max. Y spins =              0
(PID.TID 0000.0001) //            Min. Y spins =     1000000000
(PID.TID 0000.0001) //          Total. Y spins =              0
(PID.TID 0000.0001) //            Avg. Y spins =       0.00E+00
(PID.TID 0000.0001) // o Tile number: 000003
(PID.TID 0000.0001) //         No. X exchanges =              0
(PID.TID 0000.0001) //            Max. X spins =              0
(PID.TID 0000.0001) //            Min. X spins =     1000000000
(PID.TID 0000.0001) //          Total. X spins =              0
(PID.TID 0000.0001) //            Avg. X spins =       0.00E+00
(PID.TID 0000.0001) //         No. Y exchanges =              0
(PID.TID 0000.0001) //            Max. Y spins =              0
(PID.TID 0000.0001) //            Min. Y spins =     1000000000
(PID.TID 0000.0001) //          Total. Y spins =              0
(PID.TID 0000.0001) //            Avg. Y spins =       0.00E+00
(PID.TID 0000.0001) // o Tile number: 000004
(PID.TID 0000.0001) //         No. X exchanges =              0
(PID.TID 0000.0001) //            Max. X spins =              0
(PID.TID 0000.0001) //            Min. X spins =     1000000000
(PID.TID 0000.0001) //          Total. X spins =              0
(PID.TID 0000.0001) //            Avg. X spins =       0.00E+00
(PID.TID 0000.0001) //         No. Y exchanges =              0
(PID.TID 0000.0001) //            Max. Y spins =              0
(PID.TID 0000.0001) //            Min. Y spins =     1000000000
(PID.TID 0000.0001) //          Total. Y spins =              0
(PID.TID 0000.0001) //            Avg. Y spins =       0.00E+00
(PID.TID 0000.0001) // o Tile number: 000005
(PID.TID 0000.0001) //         No. X exchanges =              0
(PID.TID 0000.0001) //            Max. X spins =              0
(PID.TID 0000.0001) //            Min. X spins =     1000000000
(PID.TID 0000.0001) //          Total. X spins =              0
(PID.TID 0000.0001) //            Avg. X spins =       0.00E+00
(PID.TID 0000.0001) //         No. Y exchanges =              0
(PID.TID 0000.0001) //            Max. Y spins =              0
(PID.TID 0000.0001) //            Min. Y spins =     1000000000
(PID.TID 0000.0001) //          Total. Y spins =              0
(PID.TID 0000.0001) //            Avg. Y spins =       0.00E+00
(PID.TID 0000.0001) // o Tile number: 000006
(PID.TID 0000.0001) //         No. X exchanges =              0
(PID.TID 0000.0001) //            Max. X spins =              0
(PID.TID 0000.0001) //            Min. X spins =     1000000000
(PID.TID 0000.0001) //          Total. X spins =              0
(PID.TID 0000.0001) //            Avg. X spins =       0.00E+00
(PID.TID 0000.0001) //         No. Y exchanges =              0
(PID.TID 0000.0001) //            Max. Y spins =              0
(PID.TID 0000.0001) //            Min. Y spins =     1000000000
(PID.TID 0000.0001) //          Total. Y spins =              0
(PID.TID 0000.0001) //            Avg. Y spins =       0.00E+00
(PID.TID 0000.0001) // o Tile number: 000007
(PID.TID 0000.0001) //         No. X exchanges =              0
(PID.TID 0000.0001) //            Max. X spins =              0
(PID.TID 0000.0001) //            Min. X spins =     1000000000
(PID.TID 0000.0001) //          Total. X spins =              0
(PID.TID 0000.0001) //            Avg. X spins =       0.00E+00
(PID.TID 0000.0001) //         No. Y exchanges =              0
(PID.TID 0000.0001) //            Max. Y spins =              0
(PID.TID 0000.0001) //            Min. Y spins =     1000000000
(PID.TID 0000.0001) //          Total. Y spins =              0
(PID.TID 0000.0001) //            Avg. Y spins =       0.00E+00
(PID.TID 0000.0001) // o Tile number: 000008
(PID.TID 0000.0001) //         No. X exchanges =              0
(PID.TID 0000.0001) //            Max. X spins =              0
(PID.TID 0000.0001) //            Min. X spins =     1000000000
(PID.TID 0000.0001) //          Total. X spins =              0
(PID.TID 0000.0001) //            Avg. X spins =       0.00E+00
(PID.TID 0000.0001) //         No. Y exchanges =              0
(PID.TID 0000.0001) //            Max. Y spins =              0
(PID.TID 0000.0001) //            Min. Y spins =     1000000000
(PID.TID 0000.0001) //          Total. Y spins =              0
(PID.TID 0000.0001) //            Avg. Y spins =       0.00E+00
(PID.TID 0000.0001) // o Tile number: 000009
(PID.TID 0000.0001) //         No. X exchanges =              0
(PID.TID 0000.0001) //            Max. X spins =              0
(PID.TID 0000.0001) //            Min. X spins =     1000000000
(PID.TID 0000.0001) //          Total. X spins =              0
(PID.TID 0000.0001) //            Avg. X spins =       0.00E+00
(PID.TID 0000.0001) //         No. Y exchanges =              0
(PID.TID 0000.0001) //            Max. Y spins =              0
(PID.TID 0000.0001) //            Min. Y spins =     1000000000
(PID.TID 0000.0001) //          Total. Y spins =              0
(PID.TID 0000.0001) //            Avg. Y spins =       0.00E+00
(PID.TID 0000.0001) // o Tile number: 000010
(PID.TID 0000.0001) //         No. X exchanges =              0
(PID.TID 0000.0001) //            Max. X spins =              0
(PID.TID 0000.0001) //            Min. X spins =     1000000000
(PID.TID 0000.0001) //          Total. X spins =              0
(PID.TID 0000.0001) //            Avg. X spins =       0.00E+00
(PID.TID 0000.0001) //         No. Y exchanges =              0
(PID.TID 0000.0001) //            Max. Y spins =              0
(PID.TID 0000.0001) //            Min. Y spins =     1000000000
(PID.TID 0000.0001) //          Total. Y spins =              0
(PID.TID 0000.0001) //            Avg. Y spins =       0.00E+00
(PID.TID 0000.0001) // o Tile number: 000011
(PID.TID 0000.0001) //         No. X exchanges =              0
(PID.TID 0000.0001) //            Max. X spins =              0
(PID.TID 0000.0001) //            Min. X spins =     1000000000
(PID.TID 0000.0001) //          Total. X spins =              0
(PID.TID 0000.0001) //            Avg. X spins =       0.00E+00
(PID.TID 0000.0001) //         No. Y exchanges =              0
(PID.TID 0000.0001) //            Max. Y spins =              0
(PID.TID 0000.0001) //            Min. Y spins =     1000000000
(PID.TID 0000.0001) //          Total. Y spins =              0
(PID.TID 0000.0001) //            Avg. Y spins =       0.00E+00
(PID.TID 0000.0001) // o Tile number: 000012
(PID.TID 0000.0001) //         No. X exchanges =              0
(PID.TID 0000.0001) //            Max. X spins =              0
(PID.TID 0000.0001) //            Min. X spins =     1000000000
(PID.TID 0000.0001) //          Total. X spins =              0
(PID.TID 0000.0001) //            Avg. X spins =       0.00E+00
(PID.TID 0000.0001) //         No. Y exchanges =              0
(PID.TID 0000.0001) //            Max. Y spins =              0
(PID.TID 0000.0001) //            Min. Y spins =     1000000000
(PID.TID 0000.0001) //          Total. Y spins =              0
(PID.TID 0000.0001) //            Avg. Y spins =       0.00E+00
(PID.TID 0000.0001) // o Tile number: 000013
(PID.TID 0000.0001) //         No. X exchanges =              0
(PID.TID 0000.0001) //            Max. X spins =              0
(PID.TID 0000.0001) //            Min. X spins =     1000000000
(PID.TID 0000.0001) //          Total. X spins =              0
(PID.TID 0000.0001) //            Avg. X spins =       0.00E+00
(PID.TID 0000.0001) //         No. Y exchanges =              0
(PID.TID 0000.0001) //            Max. Y spins =              0
(PID.TID 0000.0001) //            Min. Y spins =     1000000000
(PID.TID 0000.0001) //          Total. Y spins =              0
(PID.TID 0000.0001) //            Avg. Y spins =       0.00E+00
(PID.TID 0000.0001) // o Tile number: 000014
(PID.TID 0000.0001) //         No. X exchanges =              0
(PID.TID 0000.0001) //            Max. X spins =              0
(PID.TID 0000.0001) //            Min. X spins =     1000000000
(PID.TID 0000.0001) //          Total. X spins =              0
(PID.TID 0000.0001) //            Avg. X spins =       0.00E+00
(PID.TID 0000.0001) //         No. Y exchanges =              0
(PID.TID 0000.0001) //            Max. Y spins =              0
(PID.TID 0000.0001) //            Min. Y spins =     1000000000
(PID.TID 0000.0001) //          Total. Y spins =              0
(PID.TID 0000.0001) //            Avg. Y spins =       0.00E+00
(PID.TID 0000.0001) // o Tile number: 000015
(PID.TID 0000.0001) //         No. X exchanges =              0
(PID.TID 0000.0001) //            Max. X spins =              0
(PID.TID 0000.0001) //            Min. X spins =     1000000000
(PID.TID 0000.0001) //          Total. X spins =              0
(PID.TID 0000.0001) //            Avg. X spins =       0.00E+00
(PID.TID 0000.0001) //         No. Y exchanges =              0
(PID.TID 0000.0001) //            Max. Y spins =              0
(PID.TID 0000.0001) //            Min. Y spins =     1000000000
(PID.TID 0000.0001) //          Total. Y spins =              0
(PID.TID 0000.0001) //            Avg. Y spins =       0.00E+00
(PID.TID 0000.0001) // o Tile number: 000016
(PID.TID 0000.0001) //         No. X exchanges =              0
(PID.TID 0000.0001) //            Max. X spins =              0
(PID.TID 0000.0001) //            Min. X spins =     1000000000
(PID.TID 0000.0001) //          Total. X spins =              0
(PID.TID 0000.0001) //            Avg. X spins =       0.00E+00
(PID.TID 0000.0001) //         No. Y exchanges =              0
(PID.TID 0000.0001) //            Max. Y spins =              0
(PID.TID 0000.0001) //            Min. Y spins =     1000000000
(PID.TID 0000.0001) //          Total. Y spins =              0
(PID.TID 0000.0001) //            Avg. Y spins =       0.00E+00
(PID.TID 0000.0001) // o Tile number: 000017
(PID.TID 0000.0001) //         No. X exchanges =              0
(PID.TID 0000.0001) //            Max. X spins =              0
(PID.TID 0000.0001) //            Min. X spins =     1000000000
(PID.TID 0000.0001) //          Total. X spins =              0
(PID.TID 0000.0001) //            Avg. X spins =       0.00E+00
(PID.TID 0000.0001) //         No. Y exchanges =              0
(PID.TID 0000.0001) //            Max. Y spins =              0
(PID.TID 0000.0001) //            Min. Y spins =     1000000000
(PID.TID 0000.0001) //          Total. Y spins =              0
(PID.TID 0000.0001) //            Avg. Y spins =       0.00E+00
(PID.TID 0000.0001) // o Tile number: 000018
(PID.TID 0000.0001) //         No. X exchanges =              0
(PID.TID 0000.0001) //            Max. X spins =              0
(PID.TID 0000.0001) //            Min. X spins =     1000000000
(PID.TID 0000.0001) //          Total. X spins =              0
(PID.TID 0000.0001) //            Avg. X spins =       0.00E+00
(PID.TID 0000.0001) //         No. Y exchanges =              0
(PID.TID 0000.0001) //            Max. Y spins =              0
(PID.TID 0000.0001) //            Min. Y spins =     1000000000
(PID.TID 0000.0001) //          Total. Y spins =              0
(PID.TID 0000.0001) //            Avg. Y spins =       0.00E+00
(PID.TID 0000.0001) // o Tile number: 000019
(PID.TID 0000.0001) //         No. X exchanges =              0
(PID.TID 0000.0001) //            Max. X spins =              0
(PID.TID 0000.0001) //            Min. X spins =     1000000000
(PID.TID 0000.0001) //          Total. X spins =              0
(PID.TID 0000.0001) //            Avg. X spins =       0.00E+00
(PID.TID 0000.0001) //         No. Y exchanges =              0
(PID.TID 0000.0001) //            Max. Y spins =              0
(PID.TID 0000.0001) //            Min. Y spins =     1000000000
(PID.TID 0000.0001) //          Total. Y spins =              0
(PID.TID 0000.0001) //            Avg. Y spins =       0.00E+00
(PID.TID 0000.0001) // o Tile number: 000020
(PID.TID 0000.0001) //         No. X exchanges =              0
(PID.TID 0000.0001) //            Max. X spins =              0
(PID.TID 0000.0001) //            Min. X spins =     1000000000
(PID.TID 0000.0001) //          Total. X spins =              0
(PID.TID 0000.0001) //            Avg. X spins =       0.00E+00
(PID.TID 0000.0001) //         No. Y exchanges =              0
(PID.TID 0000.0001) //            Max. Y spins =              0
(PID.TID 0000.0001) //            Min. Y spins =     1000000000
(PID.TID 0000.0001) //          Total. Y spins =              0
(PID.TID 0000.0001) //            Avg. Y spins =       0.00E+00
(PID.TID 0000.0001) // o Tile number: 000021
(PID.TID 0000.0001) //         No. X exchanges =              0
(PID.TID 0000.0001) //            Max. X spins =              0
(PID.TID 0000.0001) //            Min. X spins =     1000000000
(PID.TID 0000.0001) //          Total. X spins =              0
(PID.TID 0000.0001) //            Avg. X spins =       0.00E+00
(PID.TID 0000.0001) //         No. Y exchanges =              0
(PID.TID 0000.0001) //            Max. Y spins =              0
(PID.TID 0000.0001) //            Min. Y spins =     1000000000
(PID.TID 0000.0001) //          Total. Y spins =              0
(PID.TID 0000.0001) //            Avg. Y spins =       0.00E+00
(PID.TID 0000.0001) // o Tile number: 000022
(PID.TID 0000.0001) //         No. X exchanges =              0
(PID.TID 0000.0001) //            Max. X spins =              0
(PID.TID 0000.0001) //            Min. X spins =     1000000000
(PID.TID 0000.0001) //          Total. X spins =              0
(PID.TID 0000.0001) //            Avg. X spins =       0.00E+00
(PID.TID 0000.0001) //         No. Y exchanges =              0
(PID.TID 0000.0001) //            Max. Y spins =              0
(PID.TID 0000.0001) //            Min. Y spins =     1000000000
(PID.TID 0000.0001) //          Total. Y spins =              0
(PID.TID 0000.0001) //            Avg. Y spins =       0.00E+00
(PID.TID 0000.0001) // o Tile number: 000023
(PID.TID 0000.0001) //         No. X exchanges =              0
(PID.TID 0000.0001) //            Max. X spins =              0
(PID.TID 0000.0001) //            Min. X spins =     1000000000
(PID.TID 0000.0001) //          Total. X spins =              0
(PID.TID 0000.0001) //            Avg. X spins =       0.00E+00
(PID.TID 0000.0001) //         No. Y exchanges =              0
(PID.TID 0000.0001) //            Max. Y spins =              0
(PID.TID 0000.0001) //            Min. Y spins =     1000000000
(PID.TID 0000.0001) //          Total. Y spins =              0
(PID.TID 0000.0001) //            Avg. Y spins =       0.00E+00
(PID.TID 0000.0001) // o Tile number: 000024
(PID.TID 0000.0001) //         No. X exchanges =              0
(PID.TID 0000.0001) //            Max. X spins =              0
(PID.TID 0000.0001) //            Min. X spins =     1000000000
(PID.TID 0000.0001) //          Total. X spins =              0
(PID.TID 0000.0001) //            Avg. X spins =       0.00E+00
(PID.TID 0000.0001) //         No. Y exchanges =              0
(PID.TID 0000.0001) //            Max. Y spins =              0
(PID.TID 0000.0001) //            Min. Y spins =     1000000000
(PID.TID 0000.0001) //          Total. Y spins =              0
(PID.TID 0000.0001) //            Avg. Y spins =       0.00E+00
(PID.TID 0000.0001) // o Tile number: 000025
(PID.TID 0000.0001) //         No. X exchanges =              0
(PID.TID 0000.0001) //            Max. X spins =              0
(PID.TID 0000.0001) //            Min. X spins =     1000000000
(PID.TID 0000.0001) //          Total. X spins =              0
(PID.TID 0000.0001) //            Avg. X spins =       0.00E+00
(PID.TID 0000.0001) //         No. Y exchanges =              0
(PID.TID 0000.0001) //            Max. Y spins =              0
(PID.TID 0000.0001) //            Min. Y spins =     1000000000
(PID.TID 0000.0001) //          Total. Y spins =              0
(PID.TID 0000.0001) //            Avg. Y spins =       0.00E+00
(PID.TID 0000.0001) // o Tile number: 000026
(PID.TID 0000.0001) //         No. X exchanges =              0
(PID.TID 0000.0001) //            Max. X spins =              0
(PID.TID 0000.0001) //            Min. X spins =     1000000000
(PID.TID 0000.0001) //          Total. X spins =              0
(PID.TID 0000.0001) //            Avg. X spins =       0.00E+00
(PID.TID 0000.0001) //         No. Y exchanges =              0
(PID.TID 0000.0001) //            Max. Y spins =              0
(PID.TID 0000.0001) //            Min. Y spins =     1000000000
(PID.TID 0000.0001) //          Total. Y spins =              0
(PID.TID 0000.0001) //            Avg. Y spins =       0.00E+00
(PID.TID 0000.0001) // o Tile number: 000027
(PID.TID 0000.0001) //         No. X exchanges =              0
(PID.TID 0000.0001) //            Max. X spins =              0
(PID.TID 0000.0001) //            Min. X spins =     1000000000
(PID.TID 0000.0001) //          Total. X spins =              0
(PID.TID 0000.0001) //            Avg. X spins =       0.00E+00
(PID.TID 0000.0001) //         No. Y exchanges =              0
(PID.TID 0000.0001) //            Max. Y spins =              0
(PID.TID 0000.0001) //            Min. Y spins =     1000000000
(PID.TID 0000.0001) //          Total. Y spins =              0
(PID.TID 0000.0001) //            Avg. Y spins =       0.00E+00
(PID.TID 0000.0001) // o Tile number: 000028
(PID.TID 0000.0001) //         No. X exchanges =              0
(PID.TID 0000.0001) //            Max. X spins =              0
(PID.TID 0000.0001) //            Min. X spins =     1000000000
(PID.TID 0000.0001) //          Total. X spins =              0
(PID.TID 0000.0001) //            Avg. X spins =       0.00E+00
(PID.TID 0000.0001) //         No. Y exchanges =              0
(PID.TID 0000.0001) //            Max. Y spins =              0
(PID.TID 0000.0001) //            Min. Y spins =     1000000000
(PID.TID 0000.0001) //          Total. Y spins =              0
(PID.TID 0000.0001) //            Avg. Y spins =       0.00E+00
(PID.TID 0000.0001) // o Tile number: 000029
(PID.TID 0000.0001) //         No. X exchanges =              0
(PID.TID 0000.0001) //            Max. X spins =              0
(PID.TID 0000.0001) //            Min. X spins =     1000000000
(PID.TID 0000.0001) //          Total. X spins =              0
(PID.TID 0000.0001) //            Avg. X spins =       0.00E+00
(PID.TID 0000.0001) //         No. Y exchanges =              0
(PID.TID 0000.0001) //            Max. Y spins =              0
(PID.TID 0000.0001) //            Min. Y spins =     1000000000
(PID.TID 0000.0001) //          Total. Y spins =              0
(PID.TID 0000.0001) //            Avg. Y spins =       0.00E+00
(PID.TID 0000.0001) // o Tile number: 000030
(PID.TID 0000.0001) //         No. X exchanges =              0
(PID.TID 0000.0001) //            Max. X spins =              0
(PID.TID 0000.0001) //            Min. X spins =     1000000000
(PID.TID 0000.0001) //          Total. X spins =              0
(PID.TID 0000.0001) //            Avg. X spins =       0.00E+00
(PID.TID 0000.0001) //         No. Y exchanges =              0
(PID.TID 0000.0001) //            Max. Y spins =              0
(PID.TID 0000.0001) //            Min. Y spins =     1000000000
(PID.TID 0000.0001) //          Total. Y spins =              0
(PID.TID 0000.0001) //            Avg. Y spins =       0.00E+00
(PID.TID 0000.0001) // o Tile number: 000031
(PID.TID 0000.0001) //         No. X exchanges =              0
(PID.TID 0000.0001) //            Max. X spins =              0
(PID.TID 0000.0001) //            Min. X spins =     1000000000
(PID.TID 0000.0001) //          Total. X spins =              0
(PID.TID 0000.0001) //            Avg. X spins =       0.00E+00
(PID.TID 0000.0001) //         No. Y exchanges =              0
(PID.TID 0000.0001) //            Max. Y spins =              0
(PID.TID 0000.0001) //            Min. Y spins =     1000000000
(PID.TID 0000.0001) //          Total. Y spins =              0
(PID.TID 0000.0001) //            Avg. Y spins =       0.00E+00
(PID.TID 0000.0001) // o Tile number: 000032
(PID.TID 0000.0001) //         No. X exchanges =              0
(PID.TID 0000.0001) //            Max. X spins =              0
(PID.TID 0000.0001) //            Min. X spins =     1000000000
(PID.TID 0000.0001) //          Total. X spins =              0
(PID.TID 0000.0001) //            Avg. X spins =       0.00E+00
(PID.TID 0000.0001) //         No. Y exchanges =              0
(PID.TID 0000.0001) //            Max. Y spins =              0
(PID.TID 0000.0001) //            Min. Y spins =     1000000000
(PID.TID 0000.0001) //          Total. Y spins =              0
(PID.TID 0000.0001) //            Avg. Y spins =       0.00E+00
(PID.TID 0000.0001) // o Tile number: 000033
(PID.TID 0000.0001) //         No. X exchanges =              0
(PID.TID 0000.0001) //            Max. X spins =              0
(PID.TID 0000.0001) //            Min. X spins =     1000000000
(PID.TID 0000.0001) //          Total. X spins =              0
(PID.TID 0000.0001) //            Avg. X spins =       0.00E+00
(PID.TID 0000.0001) //         No. Y exchanges =              0
(PID.TID 0000.0001) //            Max. Y spins =              0
(PID.TID 0000.0001) //            Min. Y spins =     1000000000
(PID.TID 0000.0001) //          Total. Y spins =              0
(PID.TID 0000.0001) //            Avg. Y spins =       0.00E+00
(PID.TID 0000.0001) // o Tile number: 000034
(PID.TID 0000.0001) //         No. X exchanges =              0
(PID.TID 0000.0001) //            Max. X spins =              0
(PID.TID 0000.0001) //            Min. X spins =     1000000000
(PID.TID 0000.0001) //          Total. X spins =              0
(PID.TID 0000.0001) //            Avg. X spins =       0.00E+00
(PID.TID 0000.0001) //         No. Y exchanges =              0
(PID.TID 0000.0001) //            Max. Y spins =              0
(PID.TID 0000.0001) //            Min. Y spins =     1000000000
(PID.TID 0000.0001) //          Total. Y spins =              0
(PID.TID 0000.0001) //            Avg. Y spins =       0.00E+00
(PID.TID 0000.0001) // o Tile number: 000035
(PID.TID 0000.0001) //         No. X exchanges =              0
(PID.TID 0000.0001) //            Max. X spins =              0
(PID.TID 0000.0001) //            Min. X spins =     1000000000
(PID.TID 0000.0001) //          Total. X spins =              0
(PID.TID 0000.0001) //            Avg. X spins =       0.00E+00
(PID.TID 0000.0001) //         No. Y exchanges =              0
(PID.TID 0000.0001) //            Max. Y spins =              0
(PID.TID 0000.0001) //            Min. Y spins =     1000000000
(PID.TID 0000.0001) //          Total. Y spins =              0
(PID.TID 0000.0001) //            Avg. Y spins =       0.00E+00
(PID.TID 0000.0001) // o Tile number: 000036
(PID.TID 0000.0001) //         No. X exchanges =              0
(PID.TID 0000.0001) //            Max. X spins =              0
(PID.TID 0000.0001) //            Min. X spins =     1000000000
(PID.TID 0000.0001) //          Total. X spins =              0
(PID.TID 0000.0001) //            Avg. X spins =       0.00E+00
(PID.TID 0000.0001) //         No. Y exchanges =              0
(PID.TID 0000.0001) //            Max. Y spins =              0
(PID.TID 0000.0001) //            Min. Y spins =     1000000000
(PID.TID 0000.0001) //          Total. Y spins =              0
(PID.TID 0000.0001) //            Avg. Y spins =       0.00E+00
(PID.TID 0000.0001) // o Tile number: 000037
(PID.TID 0000.0001) //         No. X exchanges =              0
(PID.TID 0000.0001) //            Max. X spins =              0
(PID.TID 0000.0001) //            Min. X spins =     1000000000
(PID.TID 0000.0001) //          Total. X spins =              0
(PID.TID 0000.0001) //            Avg. X spins =       0.00E+00
(PID.TID 0000.0001) //         No. Y exchanges =              0
(PID.TID 0000.0001) //            Max. Y spins =              0
(PID.TID 0000.0001) //            Min. Y spins =     1000000000
(PID.TID 0000.0001) //          Total. Y spins =              0
(PID.TID 0000.0001) //            Avg. Y spins =       0.00E+00
(PID.TID 0000.0001) // o Tile number: 000038
(PID.TID 0000.0001) //         No. X exchanges =              0
(PID.TID 0000.0001) //            Max. X spins =              0
(PID.TID 0000.0001) //            Min. X spins =     1000000000
(PID.TID 0000.0001) //          Total. X spins =              0
(PID.TID 0000.0001) //            Avg. X spins =       0.00E+00
(PID.TID 0000.0001) //         No. Y exchanges =              0
(PID.TID 0000.0001) //            Max. Y spins =              0
(PID.TID 0000.0001) //            Min. Y spins =     1000000000
(PID.TID 0000.0001) //          Total. Y spins =              0
(PID.TID 0000.0001) //            Avg. Y spins =       0.00E+00
(PID.TID 0000.0001) // o Tile number: 000039
(PID.TID 0000.0001) //         No. X exchanges =              0
(PID.TID 0000.0001) //            Max. X spins =              0
(PID.TID 0000.0001) //            Min. X spins =     1000000000
(PID.TID 0000.0001) //          Total. X spins =              0
(PID.TID 0000.0001) //            Avg. X spins =       0.00E+00
(PID.TID 0000.0001) //         No. Y exchanges =              0
(PID.TID 0000.0001) //            Max. Y spins =              0
(PID.TID 0000.0001) //            Min. Y spins =     1000000000
(PID.TID 0000.0001) //          Total. Y spins =              0
(PID.TID 0000.0001) //            Avg. Y spins =       0.00E+00
(PID.TID 0000.0001) // o Tile number: 000040
(PID.TID 0000.0001) //         No. X exchanges =              0
(PID.TID 0000.0001) //            Max. X spins =              0
(PID.TID 0000.0001) //            Min. X spins =     1000000000
(PID.TID 0000.0001) //          Total. X spins =              0
(PID.TID 0000.0001) //            Avg. X spins =       0.00E+00
(PID.TID 0000.0001) //         No. Y exchanges =              0
(PID.TID 0000.0001) //            Max. Y spins =              0
(PID.TID 0000.0001) //            Min. Y spins =     1000000000
(PID.TID 0000.0001) //          Total. Y spins =              0
(PID.TID 0000.0001) //            Avg. Y spins =       0.00E+00
(PID.TID 0000.0001) // o Tile number: 000041
(PID.TID 0000.0001) //         No. X exchanges =              0
(PID.TID 0000.0001) //            Max. X spins =              0
(PID.TID 0000.0001) //            Min. X spins =     1000000000
(PID.TID 0000.0001) //          Total. X spins =              0
(PID.TID 0000.0001) //            Avg. X spins =       0.00E+00
(PID.TID 0000.0001) //         No. Y exchanges =              0
(PID.TID 0000.0001) //            Max. Y spins =              0
(PID.TID 0000.0001) //            Min. Y spins =     1000000000
(PID.TID 0000.0001) //          Total. Y spins =              0
(PID.TID 0000.0001) //            Avg. Y spins =       0.00E+00
(PID.TID 0000.0001) // o Tile number: 000042
(PID.TID 0000.0001) //         No. X exchanges =              0
(PID.TID 0000.0001) //            Max. X spins =              0
(PID.TID 0000.0001) //            Min. X spins =     1000000000
(PID.TID 0000.0001) //          Total. X spins =              0
(PID.TID 0000.0001) //            Avg. X spins =       0.00E+00
(PID.TID 0000.0001) //         No. Y exchanges =              0
(PID.TID 0000.0001) //            Max. Y spins =              0
(PID.TID 0000.0001) //            Min. Y spins =     1000000000
(PID.TID 0000.0001) //          Total. Y spins =              0
(PID.TID 0000.0001) //            Avg. Y spins =       0.00E+00
(PID.TID 0000.0001) // o Tile number: 000043
(PID.TID 0000.0001) //         No. X exchanges =              0
(PID.TID 0000.0001) //            Max. X spins =              0
(PID.TID 0000.0001) //            Min. X spins =     1000000000
(PID.TID 0000.0001) //          Total. X spins =              0
(PID.TID 0000.0001) //            Avg. X spins =       0.00E+00
(PID.TID 0000.0001) //         No. Y exchanges =              0
(PID.TID 0000.0001) //            Max. Y spins =              0
(PID.TID 0000.0001) //            Min. Y spins =     1000000000
(PID.TID 0000.0001) //          Total. Y spins =              0
(PID.TID 0000.0001) //            Avg. Y spins =       0.00E+00
(PID.TID 0000.0001) // o Tile number: 000044
(PID.TID 0000.0001) //         No. X exchanges =              0
(PID.TID 0000.0001) //            Max. X spins =              0
(PID.TID 0000.0001) //            Min. X spins =     1000000000
(PID.TID 0000.0001) //          Total. X spins =              0
(PID.TID 0000.0001) //            Avg. X spins =       0.00E+00
(PID.TID 0000.0001) //         No. Y exchanges =              0
(PID.TID 0000.0001) //            Max. Y spins =              0
(PID.TID 0000.0001) //            Min. Y spins =     1000000000
(PID.TID 0000.0001) //          Total. Y spins =              0
(PID.TID 0000.0001) //            Avg. Y spins =       0.00E+00
(PID.TID 0000.0001) // o Tile number: 000045
(PID.TID 0000.0001) //         No. X exchanges =              0
(PID.TID 0000.0001) //            Max. X spins =              0
(PID.TID 0000.0001) //            Min. X spins =     1000000000
(PID.TID 0000.0001) //          Total. X spins =              0
(PID.TID 0000.0001) //            Avg. X spins =       0.00E+00
(PID.TID 0000.0001) //         No. Y exchanges =              0
(PID.TID 0000.0001) //            Max. Y spins =              0
(PID.TID 0000.0001) //            Min. Y spins =     1000000000
(PID.TID 0000.0001) //          Total. Y spins =              0
(PID.TID 0000.0001) //            Avg. Y spins =       0.00E+00
(PID.TID 0000.0001) // o Tile number: 000046
(PID.TID 0000.0001) //         No. X exchanges =              0
(PID.TID 0000.0001) //            Max. X spins =              0
(PID.TID 0000.0001) //            Min. X spins =     1000000000
(PID.TID 0000.0001) //          Total. X spins =              0
(PID.TID 0000.0001) //            Avg. X spins =       0.00E+00
(PID.TID 0000.0001) //         No. Y exchanges =              0
(PID.TID 0000.0001) //            Max. Y spins =              0
(PID.TID 0000.0001) //            Min. Y spins =     1000000000
(PID.TID 0000.0001) //          Total. Y spins =              0
(PID.TID 0000.0001) //            Avg. Y spins =       0.00E+00
(PID.TID 0000.0001) // o Tile number: 000047
(PID.TID 0000.0001) //         No. X exchanges =              0
(PID.TID 0000.0001) //            Max. X spins =              0
(PID.TID 0000.0001) //            Min. X spins =     1000000000
(PID.TID 0000.0001) //          Total. X spins =              0
(PID.TID 0000.0001) //            Avg. X spins =       0.00E+00
(PID.TID 0000.0001) //         No. Y exchanges =              0
(PID.TID 0000.0001) //            Max. Y spins =              0
(PID.TID 0000.0001) //            Min. Y spins =     1000000000
(PID.TID 0000.0001) //          Total. Y spins =              0
(PID.TID 0000.0001) //            Avg. Y spins =       0.00E+00
(PID.TID 0000.0001) // o Tile number: 000048
(PID.TID 0000.0001) //         No. X exchanges =              0
(PID.TID 0000.0001) //            Max. X spins =              0
(PID.TID 0000.0001) //            Min. X spins =     1000000000
(PID.TID 0000.0001) //          Total. X spins =              0
(PID.TID 0000.0001) //            Avg. X spins =       0.00E+00
(PID.TID 0000.0001) //         No. Y exchanges =              0
(PID.TID 0000.0001) //            Max. Y spins =              0
(PID.TID 0000.0001) //            Min. Y spins =     1000000000
(PID.TID 0000.0001) //          Total. Y spins =              0
(PID.TID 0000.0001) //            Avg. Y spins =       0.00E+00
(PID.TID 0000.0001) // o Thread number: 000001
(PID.TID 0000.0001) //            No. barriers =          15616
(PID.TID 0000.0001) //      Max. barrier spins =              1
(PID.TID 0000.0001) //      Min. barrier spins =              1
(PID.TID 0000.0001) //     Total barrier spins =          15616
(PID.TID 0000.0001) //      Avg. barrier spins =       1.00E+00
