(PID.TID 0000.0001) 
(PID.TID 0000.0001) // ======================================================
(PID.TID 0000.0001) //                      MITgcm UV
(PID.TID 0000.0001) //                      =========
(PID.TID 0000.0001) // ======================================================
(PID.TID 0000.0001) // execution environment starting up...
(PID.TID 0000.0001) 
(PID.TID 0000.0001) // MITgcmUV version:  checkpoint59c
(PID.TID 0000.0001) // Build user:        heimbach
(PID.TID 0000.0001) // Build host:        faulks
(PID.TID 0000.0001) // Build date:        Fri Jun  8 10:52:11 EDT 2007
(PID.TID 0000.0001) 
(PID.TID 0000.0001) // =======================================================
(PID.TID 0000.0001) // Execution Environment parameter file "eedata"
(PID.TID 0000.0001) // =======================================================
(PID.TID 0000.0001) ># Example "eedata" file
(PID.TID 0000.0001) ># Lines beginning "#" are comments
(PID.TID 0000.0001) ># nTx - No. threads per process in X
(PID.TID 0000.0001) ># nTy - No. threads per process in Y
(PID.TID 0000.0001) > &EEPARMS
(PID.TID 0000.0001) > nTx=1,
(PID.TID 0000.0001) > nTy=1,
(PID.TID 0000.0001) > &
(PID.TID 0000.0001) ># Note: Some systems use & as the
(PID.TID 0000.0001) ># namelist terminator. Other systems
(PID.TID 0000.0001) ># use a / character (as shown here).
(PID.TID 0000.0001) 
(PID.TID 0000.0001) // =======================================================
(PID.TID 0000.0001) // Computational Grid Specification ( see files "SIZE.h" )
(PID.TID 0000.0001) //                                  ( and "eedata"       )
(PID.TID 0000.0001) // =======================================================
(PID.TID 0000.0001)      nPx =    1 ; /* No. processes in X */
(PID.TID 0000.0001)      nPy =    1 ; /* No. processes in Y */
(PID.TID 0000.0001)      nSx =    1 ; /* No. tiles in X per process */
(PID.TID 0000.0001)      nSy =    1 ; /* No. tiles in Y per process */
(PID.TID 0000.0001)      sNx =   20 ; /* Tile size in X */
(PID.TID 0000.0001)      sNy =   16 ; /* Tile size in Y */
(PID.TID 0000.0001)      OLx =    3 ; /* Tile overlap distance in X */
(PID.TID 0000.0001)      OLy =    3 ; /* Tile overlap distance in Y */
(PID.TID 0000.0001)      nTx =    1 ; /* No. threads in X per process */
(PID.TID 0000.0001)      nTy =    1 ; /* No. threads in Y per process */
(PID.TID 0000.0001)       Nr =   23 ; /* No. levels in the vertical   */
(PID.TID 0000.0001)       nX =   20 ; /* Total domain size in X ( = nPx*nSx*sNx ) */
(PID.TID 0000.0001)       nY =   16 ; /* Total domain size in Y ( = nPy*nSy*sNy ) */
(PID.TID 0000.0001)   nTiles =    1 ; /* Total no. tiles per process ( = nSx*nSy ) */
(PID.TID 0000.0001)   nProcs =    1 ; /* Total no. processes ( = nPx*nPy ) */
(PID.TID 0000.0001) nThreads =    1 ; /* Total no. threads per process ( = nTx*nTy ) */
(PID.TID 0000.0001) usingMPI =    F ; /* Flag used to control whether MPI is in use */
(PID.TID 0000.0001)                   /*  note: To execute a program with MPI calls */
(PID.TID 0000.0001)                   /*  it must be launched appropriately e.g     */
(PID.TID 0000.0001)                   /*  "mpirun -np 64 ......"                    */
(PID.TID 0000.0001) useCoupler=   F ; /* Flag used to control communications with */
(PID.TID 0000.0001)                   /*  other model components, through a coupler */
(PID.TID 0000.0001) 
(PID.TID 0000.0001) // ======================================================
(PID.TID 0000.0001) // Mapping of tiles to threads
(PID.TID 0000.0001) // ======================================================
(PID.TID 0000.0001) // -o- Thread   1, tiles (   1:   1,   1:   1)
(PID.TID 0000.0001) 
(PID.TID 0000.0001) // ======================================================
(PID.TID 0000.0001) // Tile <-> Tile connectvity table
(PID.TID 0000.0001) // ======================================================
(PID.TID 0000.0001) // Tile number: 000001 (process no. = 000001)
(PID.TID 0000.0001) //        WEST: Tile = 000001, Process = 000001, Comm = put
(PID.TID 0000.0001) //                bi = 000001, bj = 000001
(PID.TID 0000.0001) //        EAST: Tile = 000001, Process = 000001, Comm = put
(PID.TID 0000.0001) //                bi = 000001, bj = 000001
(PID.TID 0000.0001) //       SOUTH: Tile = 000001, Process = 000001, Comm = put
(PID.TID 0000.0001) //                bi = 000001, bj = 000001
(PID.TID 0000.0001) //       NORTH: Tile = 000001, Process = 000001, Comm = put
(PID.TID 0000.0001) //                bi = 000001, bj = 000001
(PID.TID 0000.0001) 
(PID.TID 0000.0001) // =======================================================
(PID.TID 0000.0001) // Model parameter file "data"
(PID.TID 0000.0001) // =======================================================
(PID.TID 0000.0001) ># ====================
(PID.TID 0000.0001) ># | Model parameters |
(PID.TID 0000.0001) ># ====================
(PID.TID 0000.0001) >#
(PID.TID 0000.0001) ># Continuous equation parameters
(PID.TID 0000.0001) >#
(PID.TID 0000.0001) >#   tRef            - Reference vertical potential temperature          (deg C)
(PID.TID 0000.0001) >#   sRef            - Reference vertical salinity                         (PSU)
(PID.TID 0000.0001) >#   viscAh          - Horizontal eddy viscosity coefficient             (m^2/s)
(PID.TID 0000.0001) >#   viscAz          - Vertical eddy viscosity coefficient               (m^2/s)
(PID.TID 0000.0001) >#   diffKhT         - Horizontal temperature diffusivity                (m^2/s)
(PID.TID 0000.0001) >#   diffKzT         - Vertical temperature diffusivity                  (m^2/s)
(PID.TID 0000.0001) >#   diffKhS         - Horizontal salt diffusivity                       (m^2/s)
(PID.TID 0000.0001) >#   diffKzS         - Vertical salt diffusivity                         (m^2/s)
(PID.TID 0000.0001) >#   f0              - Reference coriolis parameter,
(PID.TID 0000.0001) >#                     south edge of f on beta plane                       (1/s)
(PID.TID 0000.0001) >#   beta            - df/dy                                         (s^-1.m^-1)
(PID.TID 0000.0001) >#   tAlpha          - Linear EOS thermal expansion coefficient           (1/oC)
(PID.TID 0000.0001) >#   sBeta           - Linear EOS haline contraction coefficient         (1/ppt)
(PID.TID 0000.0001) >#   gravity         - Acceleration due to gravity                       (m/s^2)
(PID.TID 0000.0001) >#   gBaro           - Accel. due to gravity used in barotropic equation (m/s^2)
(PID.TID 0000.0001) >#   rigidLid        - Set to true to use rigid lid
(PID.TID 0000.0001) >#   implicitFreeSurface - Set to true to use implicit free surface
(PID.TID 0000.0001) >#   eosType         - Flag for linear or polynomial equation of state
(PID.TID 0000.0001) >#   momAdvection    - On/Off flag for momentum self transport
(PID.TID 0000.0001) >#   momViscosity    - On/Off flag for momentum mixing
(PID.TID 0000.0001) >#
(PID.TID 0000.0001) > &PARM01
(PID.TID 0000.0001) > tRef= 24.0 , 23.0 , 22.0 , 21.0 , 20.0 ,
(PID.TID 0000.0001) >       19.0 , 18.0 , 17.0 , 16.0 , 15.0 ,
(PID.TID 0000.0001) >       14.0 , 13.0 , 12.0 , 11.0 , 10.0 ,
(PID.TID 0000.0001) >        9.0 ,  8.0 ,  7.0 ,  6.0,   5.0 ,
(PID.TID 0000.0001) >        4.0 ,  3.0 ,  2.0 ,
(PID.TID 0000.0001) > sRef= 34.65, 34.75, 34.82, 34.87, 34.90,
(PID.TID 0000.0001) >       34.90, 34.86, 34.78, 34.69, 34.60,
(PID.TID 0000.0001) >       34.58, 34.62, 34.68, 34.72, 34.73,
(PID.TID 0000.0001) >       34.74, 34.73, 34.73, 34.72, 34.72,
(PID.TID 0000.0001) >       34.71, 34.70, 34.69,
(PID.TID 0000.0001) > no_slip_sides=.FALSE.,
(PID.TID 0000.0001) > no_slip_bottom=.TRUE.,
(PID.TID 0000.0001) > viscAz=1.93e-5,
(PID.TID 0000.0001) > viscAh=5.E4,
(PID.TID 0000.0001) > diffKhT=0.0,
(PID.TID 0000.0001) > diffKzT=1.46e-5,
(PID.TID 0000.0001) > diffKhS=0.0,
(PID.TID 0000.0001) > diffKzS=1.46e-5,
(PID.TID 0000.0001) > beta=1.E-11,
(PID.TID 0000.0001) > tAlpha=2.E-4,
(PID.TID 0000.0001) > sBeta =7.4E-4,
(PID.TID 0000.0001) > rigidLid=.FALSE.,
(PID.TID 0000.0001) > implicitFreeSurface=.TRUE.,
(PID.TID 0000.0001) > eosType='JMD95Z',
(PID.TID 0000.0001) > readBinaryPrec=32,
(PID.TID 0000.0001) > writeBinaryPrec=32,
(PID.TID 0000.0001) > saltStepping=.TRUE.,
(PID.TID 0000.0001) > tempStepping=.TRUE.,
(PID.TID 0000.0001) > momStepping=.TRUE.,
(PID.TID 0000.0001) > implicitDiffusion=.TRUE.,
(PID.TID 0000.0001) > implicitViscosity=.TRUE.,
(PID.TID 0000.0001) >#globalFiles=.TRUE.,
(PID.TID 0000.0001) >#- not safe to use globalFiles in multi-processors runs; set instead useSingleCpuIO
(PID.TID 0000.0001) > useSingleCpuIO=.FALSE.,
(PID.TID 0000.0001) > allowFreezing=.FALSE.,
(PID.TID 0000.0001) > HeatCapacity_Cp = 3986.D0
(PID.TID 0000.0001) > gravity         = 9.8156,
(PID.TID 0000.0001) > rhoNil          = 1027.D0
(PID.TID 0000.0001) > useCDscheme=.TRUE.,
(PID.TID 0000.0001) > inAdExact=.TRUE.,
(PID.TID 0000.0001) > &
(PID.TID 0000.0001) >
(PID.TID 0000.0001) ># Elliptic solver parameters
(PID.TID 0000.0001) >#
(PID.TID 0000.0001) >#   cg2dMaxIters       - Maximum number of 2d solver iterations
(PID.TID 0000.0001) >#   cg2dTargetResidual - Solver target residual
(PID.TID 0000.0001) >#
(PID.TID 0000.0001) > &PARM02
(PID.TID 0000.0001) > cg2dMaxIters=500,
(PID.TID 0000.0001) > cg2dTargetResidual=1.D-8
(PID.TID 0000.0001) > &
(PID.TID 0000.0001) >
(PID.TID 0000.0001) ># Time stepping parameters
(PID.TID 0000.0001) >#
(PID.TID 0000.0001) >#   startTime         - Integration starting time                (s)
(PID.TID 0000.0001) >#   endTime           - Integration ending time                  (s)
(PID.TID 0000.0001) >#   tauCD             - CD scheme coupling timescale             (s)
(PID.TID 0000.0001) >#   deltaTMom         - Timestep for momemtum equations          (s)
(PID.TID 0000.0001) >#   deltaTtracer      - Tracer timestep                          (s)
(PID.TID 0000.0001) >#   deltaTClock       - Timestep used as model "clock"           (s)
(PID.TID 0000.0001) >#   abEps             - Adams-Bashforth stabilising factor
(PID.TID 0000.0001) >#   pChkPtFreq        - Frequency of permanent check pointing    (s)
(PID.TID 0000.0001) >#   chkPtFreq         - Frequency of rolling check pointing      (s)
(PID.TID 0000.0001) >#   dumpFreq          - Frequency at which model state is stored (s)
(PID.TID 0000.0001) >#   tauThetaClimRelax - Relaxation to climatology time scale     (s)
(PID.TID 0000.0001) >#   tauSaltClimRelax  - Relaxation to climatology time scale     (s)
(PID.TID 0000.0001) >#
(PID.TID 0000.0001) > &PARM03
(PID.TID 0000.0001) > tauCD=172800.,
(PID.TID 0000.0001) > startTime=0.0,
(PID.TID 0000.0001) > nTimeSteps=10,
(PID.TID 0000.0001) > deltaTmom=3600.0,
(PID.TID 0000.0001) > deltaTtracer=3600.0,
(PID.TID 0000.0001) > deltaTClock =3600.0,
(PID.TID 0000.0001) > cAdjFreq=0.,
(PID.TID 0000.0001) > abEps=0.1,
(PID.TID 0000.0001) > pChkptFreq=36000.,
(PID.TID 0000.0001) > chkptFreq= 0.,
(PID.TID 0000.0001) > dumpFreq = 0.,
(PID.TID 0000.0001) > tavefreq = 36000.,
(PID.TID 0000.0001) > tauSaltClimRelax = 4142330.,
(PID.TID 0000.0001) > tauThetaClimRelax = 0.,
(PID.TID 0000.0001) > monitorFreq=1.,
(PID.TID 0000.0001) > adjMonitorFreq=1.,
(PID.TID 0000.0001) > adjDumpFreq=1.,
(PID.TID 0000.0001) >#forcing_In_AB = .FALSE.
(PID.TID 0000.0001) > tracForcingOutAB=1,
(PID.TID 0000.0001) > &
(PID.TID 0000.0001) >
(PID.TID 0000.0001) ># Gridding parameters
(PID.TID 0000.0001) >#
(PID.TID 0000.0001) >#   usingSphericalPolarGrid - On/Off flag for spherical polar coordinates
(PID.TID 0000.0001) >#   usingCartesianGrid      - On/Off flag for selecting cartesian coordinates
(PID.TID 0000.0001) >#   delX                    - Zonal grid spacing         (degrees)
(PID.TID 0000.0001) >#   delY                    - Meridional grid spacing    (degrees)
(PID.TID 0000.0001) >#   delZ                    - Vertical grid spacing      (m)
(PID.TID 0000.0001) >#   phiMin                  - Southern boundary latitude (degrees)
(PID.TID 0000.0001) >#
(PID.TID 0000.0001) > &PARM04
(PID.TID 0000.0001) > usingCartesianGrid=.FALSE.,
(PID.TID 0000.0001) > usingSphericalPolarGrid=.TRUE.,
(PID.TID 0000.0001) > delX=20*2.E0,
(PID.TID 0000.0001) > delY=16*2.E0,
(PID.TID 0000.0001) > delZ= 10., 10., 15., 20., 20., 25., 35., 50., 75.,
(PID.TID 0000.0001) >       100., 150., 200., 275., 350., 415., 450.,
(PID.TID 0000.0001) >       500., 500., 500., 500., 500., 500., 500.
(PID.TID 0000.0001) > phimin=46.,
(PID.TID 0000.0001) > thetamin=280.,
(PID.TID 0000.0001) > rSphere         = 6371.D3
(PID.TID 0000.0001) > &
(PID.TID 0000.0001) >
(PID.TID 0000.0001) ># Input datasets
(PID.TID 0000.0001) >#
(PID.TID 0000.0001) >#   bathyFile       - File containing bathymetry
(PID.TID 0000.0001) >#   hydrogThetaFile - File containing initial potential temperature data
(PID.TID 0000.0001) >#   hydrogSaltFile  - File containing initial salinity data
(PID.TID 0000.0001) >#   zonalWindFile   - File containing zonal wind data
(PID.TID 0000.0001) >#   meridWindFile   - File containing meridional wind data
(PID.TID 0000.0001) >#   thetaClimFile   - File containing theta climatology used for relaxation
(PID.TID 0000.0001) >#   saltClimFile    - File containing salt climatology used for relaxation
(PID.TID 0000.0001) >#
(PID.TID 0000.0001) > &PARM05
(PID.TID 0000.0001) > bathyFile       = 'bathy.labsea1979',
(PID.TID 0000.0001) > hydrogThetaFile = 'LevCli_temp.labsea1979',
(PID.TID 0000.0001) > hydrogSaltFile  = 'LevCli_salt.labsea1979',
(PID.TID 0000.0001) > &
(PID.TID 0000.0001) >
(PID.TID 0000.0001) 
(PID.TID 0000.0001) S/R INI_PARMS ; starts to read PARM01
(PID.TID 0000.0001) S/R INI_PARMS ; read PARM01 : OK
(PID.TID 0000.0001) S/R INI_PARMS ; starts to read PARM02
(PID.TID 0000.0001) S/R INI_PARMS ; read PARM02 : OK
(PID.TID 0000.0001) S/R INI_PARMS ; starts to read PARM03
(PID.TID 0000.0001) S/R INI_PARMS ; read PARM03 : OK
(PID.TID 0000.0001) S/R INI_PARMS ; starts to read PARM04
(PID.TID 0000.0001) S/R INI_PARMS ; read PARM04 : OK
(PID.TID 0000.0001) S/R INI_PARMS ; starts to read PARM05
(PID.TID 0000.0001) S/R INI_PARMS ; read PARM05 : OK
(PID.TID 0000.0001)  PACKAGES_BOOT: opening data.pkg
(PID.TID 0000.0001)  OPEN_COPY_DATA_FILE: opening file data.pkg
(PID.TID 0000.0001) // =======================================================
(PID.TID 0000.0001) // Parameter file "data.pkg"
(PID.TID 0000.0001) // =======================================================
(PID.TID 0000.0001) ># Packages
(PID.TID 0000.0001) > &PACKAGES
(PID.TID 0000.0001) >  useGMRedi = .TRUE.,
(PID.TID 0000.0001) >  useKPP    = .TRUE.,
(PID.TID 0000.0001) >  useEXF    = .TRUE.,
(PID.TID 0000.0001) >  useSEAICE = .TRUE.,
(PID.TID 0000.0001) >  useDiagnostics = .FALSE.,
(PID.TID 0000.0001) >  useMNC    = .TRUE.,
(PID.TID 0000.0001) >  useECCO   = .TRUE.,
(PID.TID 0000.0001) >  useGrdchk = .TRUE.,
(PID.TID 0000.0001) > &
(PID.TID 0000.0001) 
(PID.TID 0000.0001)  PACKAGES_BOOT: finished reading data.pkg
(PID.TID 0000.0001)  MNC_READPARMS: opening file 'data.mnc'
(PID.TID 0000.0001)  OPEN_COPY_DATA_FILE: opening file data.mnc
(PID.TID 0000.0001) // =======================================================
(PID.TID 0000.0001) // Parameter file "data.mnc"
(PID.TID 0000.0001) // =======================================================
(PID.TID 0000.0001) ># Example "data.mnc" file
(PID.TID 0000.0001) ># Lines beginning "#" are comments
(PID.TID 0000.0001) > &MNC_01
(PID.TID 0000.0001) ># mnc_echo_gvtypes=.FALSE.,
(PID.TID 0000.0001) ># mnc_use_indir=.FALSE.,
(PID.TID 0000.0001) > mnc_use_outdir=.TRUE.,
(PID.TID 0000.0001) > mnc_outdir_str='mnc_test_',
(PID.TID 0000.0001) > mnc_outdir_date=.TRUE.,
(PID.TID 0000.0001) > monitor_mnc=.FALSE.,
(PID.TID 0000.0001) >#snapshot_mnc=.FALSE.,
(PID.TID 0000.0001) >#timeave_mnc=.FALSE.,
(PID.TID 0000.0001) > pickup_write_mnc=.FALSE.,
(PID.TID 0000.0001) > &
(PID.TID 0000.0001) ># Note: Some systems use & as the
(PID.TID 0000.0001) ># namelist terminator. Other systems
(PID.TID 0000.0001) ># use a / character (as shown here).
(PID.TID 0000.0001) 
(PID.TID 0000.0001)  MNC_READPARMS: finished reading data.mnc
(PID.TID 0000.0001) CAL_READPARMS: opening data.cal
(PID.TID 0000.0001)  OPEN_COPY_DATA_FILE: opening file data.cal
(PID.TID 0000.0001) // =======================================================
(PID.TID 0000.0001) // Parameter file "data.cal"
(PID.TID 0000.0001) // =======================================================
(PID.TID 0000.0001) >#
(PID.TID 0000.0001) ># *******************
(PID.TID 0000.0001) ># Calendar Parameters
(PID.TID 0000.0001) ># *******************
(PID.TID 0000.0001) > &CAL_NML
(PID.TID 0000.0001) > TheCalendar='gregorian',
(PID.TID 0000.0001) ># TheCalendar='model',
(PID.TID 0000.0001) > startDate_1=19790101,
(PID.TID 0000.0001) > startDate_2=000000,
(PID.TID 0000.0001) > &
(PID.TID 0000.0001) 
(PID.TID 0000.0001) CAL_READPARMS: finished reading data.cal
(PID.TID 0000.0001) 
(PID.TID 0000.0001) // =======================================================
(PID.TID 0000.0001) // Calendar configuration >>> START <<<
(PID.TID 0000.0001) // =======================================================
(PID.TID 0000.0001) 
(PID.TID 0000.0001) Calendar version: 0.2.0
(PID.TID 0000.0001) 
(PID.TID 0000.0001) startTime =   /* Start time of the model integration [s] */
(PID.TID 0000.0001)                 0.000000000000000E+00
(PID.TID 0000.0001)     ;
(PID.TID 0000.0001) endTime =   /* End time of the model integration [s] */
(PID.TID 0000.0001)                 3.600000000000000E+04
(PID.TID 0000.0001)     ;
(PID.TID 0000.0001) deltatclock =   /* Time interval for a model forward step [s] */
(PID.TID 0000.0001)                 3.600000000000000E+03
(PID.TID 0000.0001)     ;
(PID.TID 0000.0001) usingGregorianCalendar =  /* Calendar Type: Gregorian Calendar */
(PID.TID 0000.0001)                   T
(PID.TID 0000.0001)     ;
(PID.TID 0000.0001) usingJulianCalendar =  /* Calendar Type: Julian Calendar */
(PID.TID 0000.0001)                   F
(PID.TID 0000.0001)     ;
(PID.TID 0000.0001) usingModelCalendar =  /* Calendar Type: Model Calendar */
(PID.TID 0000.0001)                   F
(PID.TID 0000.0001)     ;
(PID.TID 0000.0001) usingNoCalendar =  /* Calendar Type: No Calendar */
(PID.TID 0000.0001)                   F
(PID.TID 0000.0001)     ;
(PID.TID 0000.0001) modelstartdate (YYYYMMDD) =   /* Model start date YYYY-MM-DD  */
(PID.TID 0000.0001)                19790101
(PID.TID 0000.0001)     ;
(PID.TID 0000.0001) modelstartdate (HHMMSS) =   /* Model start date HH-MM-SS  */
(PID.TID 0000.0001)                       0
(PID.TID 0000.0001)     ;
(PID.TID 0000.0001) modelenddate (YYYYMMDD) =   /* Model end date YYYY-MM-DD  */
(PID.TID 0000.0001)                19790101
(PID.TID 0000.0001)     ;
(PID.TID 0000.0001) modelenddate (HHMMSS) =   /* Model end date HH-MM-SS  */
(PID.TID 0000.0001)                  100000
(PID.TID 0000.0001)     ;
(PID.TID 0000.0001) intyears =   /* Number of calendar years affected by the integration  */
(PID.TID 0000.0001)                       1
(PID.TID 0000.0001)     ;
(PID.TID 0000.0001) intmonths =   /* Number of calendar months affected by the integration  */
(PID.TID 0000.0001)                       1
(PID.TID 0000.0001)     ;
(PID.TID 0000.0001) intdays =   /* Number of calendar days affected by the integration  */
(PID.TID 0000.0001)                       1
(PID.TID 0000.0001)     ;
(PID.TID 0000.0001) nIter0 =   /* Base timestep number  */
(PID.TID 0000.0001)                       0
(PID.TID 0000.0001)     ;
(PID.TID 0000.0001) nEndIter =   /* Final timestep number  */
(PID.TID 0000.0001)                      10
(PID.TID 0000.0001)     ;
(PID.TID 0000.0001) nTimeSteps =   /* Number of model timesteps  */
(PID.TID 0000.0001)                      10
(PID.TID 0000.0001)     ;
(PID.TID 0000.0001) 
(PID.TID 0000.0001) // =======================================================
(PID.TID 0000.0001) // Calendar configuration  >>> END <<<
(PID.TID 0000.0001) // =======================================================
(PID.TID 0000.0001) 
(PID.TID 0000.0001)  GM_READPARMS: opening data.gmredi
(PID.TID 0000.0001)  OPEN_COPY_DATA_FILE: opening file data.gmredi
(PID.TID 0000.0001) // =======================================================
(PID.TID 0000.0001) // Parameter file "data.gmredi"
(PID.TID 0000.0001) // =======================================================
(PID.TID 0000.0001) ># GM+Redi package parameters:
(PID.TID 0000.0001) >#     GM_Small_Number  :: epsilon used in computing the slope
(PID.TID 0000.0001) >#     GM_slopeSqCutoff :: slope^2 cut-off value
(PID.TID 0000.0001) >
(PID.TID 0000.0001) >#-from MOM :
(PID.TID 0000.0001) ># GM_background_K: 	G & Mc.W  diffusion coefficient
(PID.TID 0000.0001) ># GM_maxSlope    :	max slope of isopycnals
(PID.TID 0000.0001) ># GM_Scrit       :	transition for scaling diffusion coefficient
(PID.TID 0000.0001) ># GM_Sd          :	half width scaling for diffusion coefficient
(PID.TID 0000.0001) ># GM_taper_scheme:	slope clipping or one of the tapering schemes
(PID.TID 0000.0001) ># GM_Kmin_horiz  :	horizontal diffusion minimum value
(PID.TID 0000.0001) >
(PID.TID 0000.0001) >#-Option parameters (needs to "define" options in GMREDI_OPTIONS.h")
(PID.TID 0000.0001) ># GM_isopycK     :	isopycnal diffusion coefficient (default=GM_background_K)
(PID.TID 0000.0001) ># GM_AdvForm     :	turn on GM Advective form       (default=Skew flux form)
(PID.TID 0000.0001) >
(PID.TID 0000.0001) > &GM_PARM01
(PID.TID 0000.0001) >  GM_Small_Number  = 1.D-20,
(PID.TID 0000.0001) >  GM_slopeSqCutoff = 1.D+08,
(PID.TID 0000.0001) >  GM_AdvForm         = .FALSE.,
(PID.TID 0000.0001) >#  GM_isopycK         = 1.1D+3,
(PID.TID 0000.0001) >#  GM_background_K    = 0.9D+3,
(PID.TID 0000.0001) >  GM_background_K    = 1.D+3,
(PID.TID 0000.0001) >  GM_taper_scheme    = 'dm95',
(PID.TID 0000.0001) >  GM_maxSlope        = 1.D-2,
(PID.TID 0000.0001) >  GM_Kmin_horiz      = 50.,
(PID.TID 0000.0001) >  GM_Scrit           = 4.D-3,
(PID.TID 0000.0001) >  GM_Sd              = 1.D-3,
(PID.TID 0000.0001) >#  GM_Visbeck_alpha   = 1.5D-2,
(PID.TID 0000.0001) >  GM_Visbeck_alpha   = 0.,
(PID.TID 0000.0001) >  GM_Visbeck_length  = 2.D+5,
(PID.TID 0000.0001) >  GM_Visbeck_depth   = 1.D+3,
(PID.TID 0000.0001) >  GM_Visbeck_maxval_K= 2.5D+3,
(PID.TID 0000.0001) > &
(PID.TID 0000.0001) >
(PID.TID 0000.0001) >
(PID.TID 0000.0001) 
(PID.TID 0000.0001)  GM_READPARMS: finished reading data.gmredi
(PID.TID 0000.0001)  KPP_INIT: opening data.kpp
(PID.TID 0000.0001)  OPEN_COPY_DATA_FILE: opening file data.kpp
(PID.TID 0000.0001) // =======================================================
(PID.TID 0000.0001) // Parameter file "data.kpp"
(PID.TID 0000.0001) // =======================================================
(PID.TID 0000.0001) ># KPP parameters
(PID.TID 0000.0001) > &KPP_PARM01
(PID.TID 0000.0001) > KPPmixingMaps   = .FALSE.,
(PID.TID 0000.0001) > KPPwriteState   = .TRUE.,
(PID.TID 0000.0001) > KPP_ghatUseTotalDiffus=.TRUE.,
(PID.TID 0000.0001) > &
(PID.TID 0000.0001) 
(PID.TID 0000.0001)  KPP_INIT: finished reading data.kpp
(PID.TID 0000.0001) 
(PID.TID 0000.0001)  SEAICE_READPARMS: opening data.seaice
(PID.TID 0000.0001)  OPEN_COPY_DATA_FILE: opening file data.seaice
(PID.TID 0000.0001) // =======================================================
(PID.TID 0000.0001) // Parameter file "data.seaice"
(PID.TID 0000.0001) // =======================================================
(PID.TID 0000.0001) ># SEAICE parameters
(PID.TID 0000.0001) > &SEAICE_PARM01
(PID.TID 0000.0001) >      SEAICEwriteState   = .TRUE.,
(PID.TID 0000.0001) >      SEAICE_initialHEFF = 1.0,
(PID.TID 0000.0001) >      SEAICE_deltaTtherm = 3600.,
(PID.TID 0000.0001) >      SEAICE_deltaTdyn   = 3600.,
(PID.TID 0000.0001) >      SEAICEuseDYNAMICS  =.TRUE.,
(PID.TID 0000.0001) >      LSR_ERROR          = 1.E-6,
(PID.TID 0000.0001) >      SEAICE_deltaTevp   = 60,
(PID.TID 0000.0001) >      SEAICE_EPS         = 1.E-8,
(PID.TID 0000.0001) >#     SEAICE_tave_mnc    = .FALSE.,
(PID.TID 0000.0001) >#     SEAICE_dump_mnc    = .FALSE.,
(PID.TID 0000.0001) >#     SEAICE_mon_mnc     = .FALSE.,
(PID.TID 0000.0001) > &
(PID.TID 0000.0001) > &SEAICE_PARM02
(PID.TID 0000.0001) >  mult_ice   = 1.,
(PID.TID 0000.0001) ># choose which seaice cost term you want
(PID.TID 0000.0001) >  cost_ice_flag = 1,
(PID.TID 0000.0001) ># the following timings are obsolete;
(PID.TID 0000.0001) ># replaced by lastinterval
(PID.TID 0000.0001) > costIceStart1        = 20000101,
(PID.TID 0000.0001) > costIceStart2        = 00000,
(PID.TID 0000.0001) > costIceEnd1        = 20000201,
(PID.TID 0000.0001) > costIceEnd2        = 00000,
(PID.TID 0000.0001) > &
(PID.TID 0000.0001) 
(PID.TID 0000.0001)  SEAICE_READPARMS: finished reading data.seaice
(PID.TID 0000.0001) 
(PID.TID 0000.0001) // =======================================================
(PID.TID 0000.0001) // Seaice configuration (SEAICE_PARM01) >>> START <<<
(PID.TID 0000.0001) // =======================================================
(PID.TID 0000.0001) 
(PID.TID 0000.0001) SEAICEwriteState  = /* write sea ice state to file */
(PID.TID 0000.0001)                   T
(PID.TID 0000.0001)     ;
(PID.TID 0000.0001) SEAICEuseDYNAMICS = /* use dynamics */
(PID.TID 0000.0001)                   T
(PID.TID 0000.0001)     ;
(PID.TID 0000.0001) SEAICEuseEVP      = /* use EVP solver */
(PID.TID 0000.0001)                   T
(PID.TID 0000.0001)     ;
(PID.TID 0000.0001) SEAICE_no_slip    = /* no slip boundary conditions */
(PID.TID 0000.0001)                   F
(PID.TID 0000.0001)     ;
(PID.TID 0000.0001) SEAICE_maskRHS    = /* mask RHS of solver */
(PID.TID 0000.0001)                   F
(PID.TID 0000.0001)     ;
(PID.TID 0000.0001) SEAICE_clipVeloctities = /* impose max. vels. */
(PID.TID 0000.0001)                   T
(PID.TID 0000.0001)     ;
(PID.TID 0000.0001) useHB87stressCoupling  = /* altern. ice-ocean stress */
(PID.TID 0000.0001)                   F
(PID.TID 0000.0001)     ;
(PID.TID 0000.0001) usePW79thermodynamics  = /* default 0-layer TD */
(PID.TID 0000.0001)                   T
(PID.TID 0000.0001)     ;
(PID.TID 0000.0001) SEAICEadvHeff = /* advect effective ice thickness */
(PID.TID 0000.0001)                   T
(PID.TID 0000.0001)     ;
(PID.TID 0000.0001) SEAICEadvArea = /* advect fractional ice area */
(PID.TID 0000.0001)                   T
(PID.TID 0000.0001)     ;
(PID.TID 0000.0001) SEAICEadvSnow = /* advect snow layer together with ice */
(PID.TID 0000.0001)                   F
(PID.TID 0000.0001)     ;
(PID.TID 0000.0001) SEAICEuseFlooding = /* turn submerged snow into ice */
(PID.TID 0000.0001)                   F
(PID.TID 0000.0001)     ;
(PID.TID 0000.0001) LAD               = /* time stepping scheme */
(PID.TID 0000.0001)                       2
(PID.TID 0000.0001)     ;
(PID.TID 0000.0001) IMAX_TICE         = /* iterations for ice heat budget */
(PID.TID 0000.0001)                      10
(PID.TID 0000.0001)     ;
(PID.TID 0000.0001) SEAICEadvScheme   = /* advection scheme for thickness */
(PID.TID 0000.0001)                       2
(PID.TID 0000.0001)     ;
(PID.TID 0000.0001) SEAICEuseFluxForm = /* advection in FV flux form */
(PID.TID 0000.0001)                   F
(PID.TID 0000.0001)     ;
(PID.TID 0000.0001) SEAICEadvSchArea   = /* advection scheme for area */
(PID.TID 0000.0001)                       2
(PID.TID 0000.0001)     ;
(PID.TID 0000.0001) SEAICEadvSchHeff   = /* advection scheme for thickness */
(PID.TID 0000.0001)                       2
(PID.TID 0000.0001)     ;
(PID.TID 0000.0001) SEAICE_deltaTtherm= /* thermodynamic timestep */
(PID.TID 0000.0001)                 3.600000000000000E+03
(PID.TID 0000.0001)     ;
(PID.TID 0000.0001) SEAICE_deltaTdyn  = /* dynamic timestep */
(PID.TID 0000.0001)                 3.600000000000000E+03
(PID.TID 0000.0001)     ;
(PID.TID 0000.0001) SEAICE_deltaTevp  = /* EVP timestep */
(PID.TID 0000.0001)                 6.000000000000000E+01
(PID.TID 0000.0001)     ;
(PID.TID 0000.0001) SEAICE_elasticParm= /* EVP elastic parameter */
(PID.TID 0000.0001)                 3.333333333333333E-01
(PID.TID 0000.0001)     ;
(PID.TID 0000.0001) SEAICE_evpTauRelax= /* EVP relaxation timescale */
(PID.TID 0000.0001)                 1.200000000000000E+03
(PID.TID 0000.0001)     ;
(PID.TID 0000.0001) SEAICE_evpDampC   = /* EVP damping parameter */
(PID.TID 0000.0001)                -1.000000000000000E+00
(PID.TID 0000.0001)     ;
(PID.TID 0000.0001) SEAICE_monFreq  = /* monitor frequency */
(PID.TID 0000.0001)                 1.000000000000000E+00
(PID.TID 0000.0001)     ;
(PID.TID 0000.0001) SEAICE_dumpFreq   = /* dump frequency */
(PID.TID 0000.0001)                 0.000000000000000E+00
(PID.TID 0000.0001)     ;
(PID.TID 0000.0001) SEAICE_taveFreq   = /* time-averaging frequency */
(PID.TID 0000.0001)                 3.600000000000000E+04
(PID.TID 0000.0001)     ;
(PID.TID 0000.0001) SEAICE_mon_stdio  = /* write monitor to std-outp */
(PID.TID 0000.0001)                   T
(PID.TID 0000.0001)     ;
(PID.TID 0000.0001) SEAICE_dump_mdsio = /* write snap-shot   using MDSIO */
(PID.TID 0000.0001)                   F
(PID.TID 0000.0001)     ;
(PID.TID 0000.0001) SEAICE_tave_mdsio = /* write TimeAverage using MDSIO */
(PID.TID 0000.0001)                   F
(PID.TID 0000.0001)     ;
(PID.TID 0000.0001) SEAICE_mon_mnc    = /* write monitor to netcdf file */
(PID.TID 0000.0001)                   F
(PID.TID 0000.0001)     ;
(PID.TID 0000.0001) SEAICE_dump_mnc   = /* write snap-shot   using MNC */
(PID.TID 0000.0001)                   T
(PID.TID 0000.0001)     ;
(PID.TID 0000.0001) SEAICE_tave_mnc   = /* write TimeAverage using MNC */
(PID.TID 0000.0001)                   T
(PID.TID 0000.0001)     ;
(PID.TID 0000.0001) SEAICE_initialHEFF= /* initial sea-ice thickness */
(PID.TID 0000.0001)                 1.000000000000000E+00
(PID.TID 0000.0001)     ;
(PID.TID 0000.0001) SEAICE_drag       = /* air-ice drag coefficient */
(PID.TID 0000.0001)                 2.000000000000000E-03
(PID.TID 0000.0001)     ;
(PID.TID 0000.0001) OCEAN_drag        = /* air-ocean drag coefficient */
(PID.TID 0000.0001)                 1.000000000000000E-03
(PID.TID 0000.0001)     ;
(PID.TID 0000.0001) SEAICE_waterDrag  = /* water-ice drag * density */
(PID.TID 0000.0001)                 5.500000000000000E+00
(PID.TID 0000.0001)     ;
(PID.TID 0000.0001) SEAICE_dryIceAlb  = /* winter albedo */
(PID.TID 0000.0001)                 7.500000000000000E-01
(PID.TID 0000.0001)     ;
(PID.TID 0000.0001) SEAICE_wetIceAlb  = /* summer albedo */
(PID.TID 0000.0001)                 6.600000000000000E-01
(PID.TID 0000.0001)     ;
(PID.TID 0000.0001) SEAICE_drySnowAlb = /* dry snow albedo */
(PID.TID 0000.0001)                 8.400000000000000E-01
(PID.TID 0000.0001)     ;
(PID.TID 0000.0001) SEAICE_wetSnowAlb = /* wet snow albedo */
(PID.TID 0000.0001)                 7.000000000000000E-01
(PID.TID 0000.0001)     ;
(PID.TID 0000.0001) SEAICE_waterAlbedo= /* water albedo */
(PID.TID 0000.0001)                 1.000000000000000E-01
(PID.TID 0000.0001)     ;
(PID.TID 0000.0001) SEAICE_strength   = /* sea-ice strength Pstar */
(PID.TID 0000.0001)                 2.750000000000000E+04
(PID.TID 0000.0001)     ;
(PID.TID 0000.0001) SEAICE_sensHeat   = /* sensible heat transfer */
(PID.TID 0000.0001)                 2.284000000000000E+00
(PID.TID 0000.0001)     ;
(PID.TID 0000.0001) SEAICE_latentWater= /* latent heat transfer for water */
(PID.TID 0000.0001)                 5.687500000000000E+03
(PID.TID 0000.0001)     ;
(PID.TID 0000.0001) SEAICE_latentIce  = /* latent heat transfer for ice */
(PID.TID 0000.0001)                 6.447400000000000E+03
(PID.TID 0000.0001)     ;
(PID.TID 0000.0001) SEAICE_iceConduct = /* sea-ice conductivity */
(PID.TID 0000.0001)                 2.165600000000000E+00
(PID.TID 0000.0001)     ;
(PID.TID 0000.0001) SEAICE_snowConduct= /* snow conductivity */
(PID.TID 0000.0001)                 3.100000000000000E-01
(PID.TID 0000.0001)     ;
(PID.TID 0000.0001) SEAICE_emissivity = /* Stefan-Boltzman * emissivity */
(PID.TID 0000.0001)                 5.500000000000000E-08
(PID.TID 0000.0001)     ;
(PID.TID 0000.0001) SEAICE_snowThick  = /* cutoff snow thickness */
(PID.TID 0000.0001)                 1.500000000000000E-01
(PID.TID 0000.0001)     ;
(PID.TID 0000.0001) SEAICE_shortwave  = /* penetration shortwave radiation */
(PID.TID 0000.0001)                 3.000000000000000E-01
(PID.TID 0000.0001)     ;
(PID.TID 0000.0001) SEAICE_freeze     = /* freezing temp. of sea water */
(PID.TID 0000.0001)                -1.960000000000000E+00
(PID.TID 0000.0001)     ;
(PID.TID 0000.0001) Initial sea-ice concentration is read from file:
(PID.TID 0000.0001)    >>    <<
(PID.TID 0000.0001) Initial sea-ice thickness is read from file:
(PID.TID 0000.0001)    >>    <<
(PID.TID 0000.0001)     ;
(PID.TID 0000.0001) LSR_ERROR         = /* sets accuracy of LSR solver */
(PID.TID 0000.0001)                 1.000000000000000E-06
(PID.TID 0000.0001)     ;
(PID.TID 0000.0001) DIFF1             = /* parameter used in advect.F */
(PID.TID 0000.0001)                 4.000000000000000E-03
(PID.TID 0000.0001)     ;
(PID.TID 0000.0001) A22               = /* parameter used in growth.F */
(PID.TID 0000.0001)                 1.500000000000000E-01
(PID.TID 0000.0001)     ;
(PID.TID 0000.0001) HO                = /* demarcation ice thickness */
(PID.TID 0000.0001)                 5.000000000000000E-01
(PID.TID 0000.0001)     ;
(PID.TID 0000.0001) MAX_HEFF          = /* maximum ice thickness */
(PID.TID 0000.0001)                 1.000000000000000E+01
(PID.TID 0000.0001)     ;
(PID.TID 0000.0001) MIN_ATEMP         = /* minimum air temperature */
(PID.TID 0000.0001)                -5.000000000000000E+01
(PID.TID 0000.0001)     ;
(PID.TID 0000.0001) MIN_LWDOWN        = /* minimum downward longwave */
(PID.TID 0000.0001)                 6.000000000000000E+01
(PID.TID 0000.0001)     ;
(PID.TID 0000.0001) MAX_TICE          = /* maximum ice temperature */
(PID.TID 0000.0001)                 3.000000000000000E+01
(PID.TID 0000.0001)     ;
(PID.TID 0000.0001) MIN_TICE          = /* minimum ice temperature */
(PID.TID 0000.0001)                -5.000000000000000E+01
(PID.TID 0000.0001)     ;
(PID.TID 0000.0001) SEAICE_EPS        = /* reduce derivative singularities */
(PID.TID 0000.0001)                 1.000000000000000E-08
(PID.TID 0000.0001)     ;
(PID.TID 0000.0001) // =======================================================
(PID.TID 0000.0001) // Seaice configuration (SEAICE_PARM01) >>> END <<<
(PID.TID 0000.0001) // =======================================================
(PID.TID 0000.0001) OPTIM_READPARMS: opening data.optim
(PID.TID 0000.0001)  OPEN_COPY_DATA_FILE: opening file data.optim
(PID.TID 0000.0001) // =======================================================
(PID.TID 0000.0001) // Parameter file "data.optim"
(PID.TID 0000.0001) // =======================================================
(PID.TID 0000.0001) >#
(PID.TID 0000.0001) ># ********************************
(PID.TID 0000.0001) ># Off-line optimization parameters
(PID.TID 0000.0001) ># ********************************
(PID.TID 0000.0001) > &OPTIM
(PID.TID 0000.0001) > optimcycle=0,
(PID.TID 0000.0001) > &
(PID.TID 0000.0001) 
(PID.TID 0000.0001) OPTIM_READPARMS: finished reading data.optim
(PID.TID 0000.0001) CTRL_READPARMS: opening data.ctrl
(PID.TID 0000.0001)  OPEN_COPY_DATA_FILE: opening file data.ctrl
(PID.TID 0000.0001) // =======================================================
(PID.TID 0000.0001) // Parameter file "data.ctrl"
(PID.TID 0000.0001) // =======================================================
(PID.TID 0000.0001) >#
(PID.TID 0000.0001) >#
(PID.TID 0000.0001) ># *********************
(PID.TID 0000.0001) ># ECCO controlvariables
(PID.TID 0000.0001) ># *********************
(PID.TID 0000.0001) > &CTRL_NML
(PID.TID 0000.0001) > xx_theta_file      ='xx_theta',
(PID.TID 0000.0001) > xx_salt_file       ='xx_salt',
(PID.TID 0000.0001) >#
(PID.TID 0000.0001) > xx_hfluxstartdate1 = 19790101,
(PID.TID 0000.0001) > xx_hfluxstartdate2 = 000000,
(PID.TID 0000.0001) > xx_hfluxperiod     = 864000.0,
(PID.TID 0000.0001) > xx_hflux_file      = 'xx_hfl',
(PID.TID 0000.0001) >#
(PID.TID 0000.0001) > xx_sfluxstartdate1 = 19790101,
(PID.TID 0000.0001) > xx_sfluxstartdate2 = 000000,
(PID.TID 0000.0001) > xx_sfluxperiod     = 864000.0,
(PID.TID 0000.0001) > xx_sflux_file      = 'xx_sfl',
(PID.TID 0000.0001) >#
(PID.TID 0000.0001) > xx_tauustartdate1 = 19790101,
(PID.TID 0000.0001) > xx_tauustartdate2 = 000000,
(PID.TID 0000.0001) > xx_tauuperiod     = 864000.0,
(PID.TID 0000.0001) > xx_tauu_file      = 'xx_tauu',
(PID.TID 0000.0001) >#
(PID.TID 0000.0001) > xx_tauvstartdate1 = 19790101,
(PID.TID 0000.0001) > xx_tauvstartdate2 = 000000,
(PID.TID 0000.0001) > xx_tauvperiod     = 864000.0,
(PID.TID 0000.0001) > xx_tauv_file      = 'xx_tauv',
(PID.TID 0000.0001) >#
(PID.TID 0000.0001) > xx_atempstartdate1 = 19790101,
(PID.TID 0000.0001) > xx_atempstartdate2 = 000000,
(PID.TID 0000.0001) > xx_atempperiod     = 864000.0,
(PID.TID 0000.0001) > xx_atemp_file      = 'xx_atemp',
(PID.TID 0000.0001) >#
(PID.TID 0000.0001) > xx_aqhstartdate1 = 19790101,
(PID.TID 0000.0001) > xx_aqhstartdate2 = 000000,
(PID.TID 0000.0001) > xx_aqhperiod     = 864000.0,
(PID.TID 0000.0001) > xx_aqh_file      = 'xx_aqh',
(PID.TID 0000.0001) >#
(PID.TID 0000.0001) > xx_precipstartdate1 = 19790101,
(PID.TID 0000.0001) > xx_precipstartdate2 = 000000,
(PID.TID 0000.0001) > xx_precipperiod     = 864000.0,
(PID.TID 0000.0001) > xx_precip_file      = 'xx_precip',
(PID.TID 0000.0001) >#
(PID.TID 0000.0001) > xx_swfluxstartdate1 = 19790101,
(PID.TID 0000.0001) > xx_swfluxstartdate2 = 000000,
(PID.TID 0000.0001) > xx_swfluxperiod     = 864000.0,
(PID.TID 0000.0001) > xx_swflux_file      = 'xx_swflux',
(PID.TID 0000.0001) >#
(PID.TID 0000.0001) > xx_swdownstartdate1 = 19790101,
(PID.TID 0000.0001) > xx_swdownstartdate2 = 000000,
(PID.TID 0000.0001) > xx_swdownperiod     = 864000.0,
(PID.TID 0000.0001) > xx_swdown_file      = 'xx_swdown',
(PID.TID 0000.0001) >#
(PID.TID 0000.0001) > xx_lwfluxstartdate1 = 19790101,
(PID.TID 0000.0001) > xx_lwfluxstartdate2 = 000000,
(PID.TID 0000.0001) > xx_lwfluxperiod     = 864000.0,
(PID.TID 0000.0001) > xx_lwflux_file      = 'xx_lwflux',
(PID.TID 0000.0001) >#
(PID.TID 0000.0001) > xx_lwdownstartdate1 = 19790101,
(PID.TID 0000.0001) > xx_lwdownstartdate2 = 000000,
(PID.TID 0000.0001) > xx_lwdownperiod     = 864000.0,
(PID.TID 0000.0001) > xx_lwdown_file      = 'xx_lwdown',
(PID.TID 0000.0001) >#
(PID.TID 0000.0001) > xx_evapstartdate1 = 19790101,
(PID.TID 0000.0001) > xx_evapstartdate2 = 000000,
(PID.TID 0000.0001) > xx_evapperiod     = 864000.0,
(PID.TID 0000.0001) > xx_evap_file      = 'xx_evap',
(PID.TID 0000.0001) >#
(PID.TID 0000.0001) > xx_snowprecipstartdate1 = 19790101,
(PID.TID 0000.0001) > xx_snowprecipstartdate2 = 000000,
(PID.TID 0000.0001) > xx_snowprecipperiod     = 864000.0,
(PID.TID 0000.0001) > xx_snowprecip_file      = 'xx_snowprecip',
(PID.TID 0000.0001) >#
(PID.TID 0000.0001) > xx_apressurestartdate1 = 19790101,
(PID.TID 0000.0001) > xx_apressurestartdate2 = 000000,
(PID.TID 0000.0001) > xx_apressureperiod     = 864000.0,
(PID.TID 0000.0001) > xx_apressure_file      = 'xx_apressure',
(PID.TID 0000.0001) >#
(PID.TID 0000.0001) > xx_uwindstartdate1 = 19790101,
(PID.TID 0000.0001) > xx_uwindstartdate2 = 000000,
(PID.TID 0000.0001) > xx_uwindperiod     = 864000.0,
(PID.TID 0000.0001) > xx_uwind_file      = 'xx_uwind',
(PID.TID 0000.0001) >#
(PID.TID 0000.0001) > xx_vwindstartdate1 = 19790101,
(PID.TID 0000.0001) > xx_vwindstartdate2 = 000000,
(PID.TID 0000.0001) > xx_vwindperiod     = 864000.0,
(PID.TID 0000.0001) > xx_vwind_file      = 'xx_vwind',
(PID.TID 0000.0001) > &
(PID.TID 0000.0001) >#
(PID.TID 0000.0001) ># *********************
(PID.TID 0000.0001) ># names for ctrl_pack/unpack
(PID.TID 0000.0001) ># *********************
(PID.TID 0000.0001) > &CTRL_PACKNAMES
(PID.TID 0000.0001) > ctrlname = 'ecco_ctrl',
(PID.TID 0000.0001) > costname = 'ecco_cost',
(PID.TID 0000.0001) > &
(PID.TID 0000.0001) 
(PID.TID 0000.0001) CTRL_READPARMS: finished reading data.ctrl
(PID.TID 0000.0001) COST_READPARMS: opening data.cost
(PID.TID 0000.0001)  OPEN_COPY_DATA_FILE: opening file data.cost
(PID.TID 0000.0001) // =======================================================
(PID.TID 0000.0001) // Parameter file "data.cost"
(PID.TID 0000.0001) // =======================================================
(PID.TID 0000.0001) >#
(PID.TID 0000.0001) >#
(PID.TID 0000.0001) ># ******************
(PID.TID 0000.0001) ># cost function
(PID.TID 0000.0001) ># ******************
(PID.TID 0000.0001) > &COST_NML
(PID.TID 0000.0001) > &
(PID.TID 0000.0001) 
(PID.TID 0000.0001) COST_READPARMS: finished reading data.cost
(PID.TID 0000.0001) GRDCHK_READPARMS: opening data.grdchk
(PID.TID 0000.0001)  OPEN_COPY_DATA_FILE: opening file data.grdchk
(PID.TID 0000.0001) // =======================================================
(PID.TID 0000.0001) // Parameter file "data.grdchk"
(PID.TID 0000.0001) // =======================================================
(PID.TID 0000.0001) >
(PID.TID 0000.0001) ># *******************
(PID.TID 0000.0001) ># ECCO gradient check
(PID.TID 0000.0001) ># *******************
(PID.TID 0000.0001) > &GRDCHK_NML
(PID.TID 0000.0001) > grdchk_eps       = 1.d-4,
(PID.TID 0000.0001) > nbeg             = 4,
(PID.TID 0000.0001) > nstep            = 1,
(PID.TID 0000.0001) > nend             = 8,
(PID.TID 0000.0001) > grdchkvarindex   = 7,
(PID.TID 0000.0001) > &
(PID.TID 0000.0001) 
(PID.TID 0000.0001) GRDCHK_READPARMS: finished reading data.grdchk
(PID.TID 0000.0001) 
(PID.TID 0000.0001) // =======================================================
(PID.TID 0000.0001) // Gradient check configuration  >>> START <<<
(PID.TID 0000.0001) // =======================================================
(PID.TID 0000.0001) 
(PID.TID 0000.0001)   eps:                              0.100E-03
(PID.TID 0000.0001)   First location:                           4
(PID.TID 0000.0001)   Last location:                            8
(PID.TID 0000.0001)   Increment:                                1
(PID.TID 0000.0001) 
(PID.TID 0000.0001) // =======================================================
(PID.TID 0000.0001) // Gradient check configuration  >>> END <<<
(PID.TID 0000.0001) // =======================================================
(PID.TID 0000.0001) 
(PID.TID 0000.0001) EXF_READPARMS: opening data.exf
(PID.TID 0000.0001)  OPEN_COPY_DATA_FILE: opening file data.exf
(PID.TID 0000.0001) // =======================================================
(PID.TID 0000.0001) // Parameter file "data.exf"
(PID.TID 0000.0001) // =======================================================
(PID.TID 0000.0001) ># $Header: /home/jahn/src/cvs2git/MITgcm/20170915-2/gcmpack-all-patch/MITgcm/verification/lab_sea/results_ad/Attic/output_adm.txt,v 1.11 2007/06/08 15:09:36 heimbach Exp $
(PID.TID 0000.0001) >#
(PID.TID 0000.0001) ># *********************
(PID.TID 0000.0001) ># External Forcing Data
(PID.TID 0000.0001) ># *********************
(PID.TID 0000.0001) > &EXF_NML_01
(PID.TID 0000.0001) >#
(PID.TID 0000.0001) > useExfCheckRange  = .TRUE.,
(PID.TID 0000.0001) > repeatPeriod      = 31622400.0,
(PID.TID 0000.0001) > exf_iprec         = 32,
(PID.TID 0000.0001) > exf_yftype        = 'RL',
(PID.TID 0000.0001) >#
(PID.TID 0000.0001) > &
(PID.TID 0000.0001) >
(PID.TID 0000.0001) ># *********************
(PID.TID 0000.0001) > &EXF_NML_02
(PID.TID 0000.0001) >#
(PID.TID 0000.0001) > hfluxstartdate1   = 19781216,
(PID.TID 0000.0001) > hfluxstartdate2   = 180000,
(PID.TID 0000.0001) > hfluxperiod       = 2635200.0,
(PID.TID 0000.0001) >#
(PID.TID 0000.0001) > sfluxstartdate1   = 19781216,
(PID.TID 0000.0001) > sfluxstartdate2   = 180000,
(PID.TID 0000.0001) > sfluxperiod       = 2635200.0,
(PID.TID 0000.0001) >#
(PID.TID 0000.0001) > ustressstartdate1 = 19781216,
(PID.TID 0000.0001) > ustressstartdate2 = 180000,
(PID.TID 0000.0001) > ustressperiod     = 2635200.0,
(PID.TID 0000.0001) >#
(PID.TID 0000.0001) > vstressstartdate1 = 19781216,
(PID.TID 0000.0001) > vstressstartdate2 = 180000,
(PID.TID 0000.0001) > vstressperiod     = 2635200.0,
(PID.TID 0000.0001) >#
(PID.TID 0000.0001) > atempstartdate1   = 19781216,
(PID.TID 0000.0001) > atempstartdate2   = 180000,
(PID.TID 0000.0001) > atempperiod       = 2635200.0,
(PID.TID 0000.0001) >#
(PID.TID 0000.0001) > aqhstartdate1     = 19781216,
(PID.TID 0000.0001) > aqhstartdate2     = 180000,
(PID.TID 0000.0001) > aqhperiod         = 2635200.0,
(PID.TID 0000.0001) >#
(PID.TID 0000.0001) >#evapstartdate1    = 19781216,
(PID.TID 0000.0001) >#evapstartdate2    = 180000,
(PID.TID 0000.0001) >#evapperiod        = 2635200.0,
(PID.TID 0000.0001) >#
(PID.TID 0000.0001) > precipstartdate1  = 19781216,
(PID.TID 0000.0001) > precipstartdate2  = 180000,
(PID.TID 0000.0001) > precipperiod      = 2635200.0,
(PID.TID 0000.0001) >#
(PID.TID 0000.0001) > uwindstartdate1   = 19781216,
(PID.TID 0000.0001) > uwindstartdate2   = 180000,
(PID.TID 0000.0001) > uwindperiod       = 2635200.0,
(PID.TID 0000.0001) >#
(PID.TID 0000.0001) > vwindstartdate1   = 19781216,
(PID.TID 0000.0001) > vwindstartdate2   = 180000,
(PID.TID 0000.0001) > vwindperiod       = 2635200.0,
(PID.TID 0000.0001) >#
(PID.TID 0000.0001) > swfluxstartdate1  = 19781216,
(PID.TID 0000.0001) > swfluxstartdate2  = 180000,
(PID.TID 0000.0001) > swfluxperiod      = 2635200.0,
(PID.TID 0000.0001) >#
(PID.TID 0000.0001) > lwfluxstartdate1  = 19781216,
(PID.TID 0000.0001) > lwfluxstartdate2  = 180000,
(PID.TID 0000.0001) > lwfluxperiod      = 2635200.0,
(PID.TID 0000.0001) >#
(PID.TID 0000.0001) > swdownstartdate1  = 19781216,
(PID.TID 0000.0001) > swdownstartdate2  = 180000,
(PID.TID 0000.0001) > swdownperiod      = 2635200.0,
(PID.TID 0000.0001) >#
(PID.TID 0000.0001) > lwdownstartdate1  = 19781216,
(PID.TID 0000.0001) > lwdownstartdate2  = 180000,
(PID.TID 0000.0001) > lwdownperiod      = 2635200.0,
(PID.TID 0000.0001) >#
(PID.TID 0000.0001) > climsststartdate1  = 19781216,
(PID.TID 0000.0001) > climsststartdate2  = 180000,
(PID.TID 0000.0001) > climsstperiod      = 2635200.0,
(PID.TID 0000.0001) >#
(PID.TID 0000.0001) > climsssstartdate1  = 19781216,
(PID.TID 0000.0001) > climsssstartdate2  = 180000,
(PID.TID 0000.0001) > climsssperiod      = 2635200.0,
(PID.TID 0000.0001) >#
(PID.TID 0000.0001) > hfluxfile         = ' ',
(PID.TID 0000.0001) > sfluxfile         = ' ',
(PID.TID 0000.0001) > ustressfile       = ' ',
(PID.TID 0000.0001) > vstressfile       = ' ',
(PID.TID 0000.0001) > atempfile         = 'tair.labsea1979',
(PID.TID 0000.0001) > aqhfile           = 'qa.labsea1979',
(PID.TID 0000.0001) > uwindfile         = 'u10m.labsea1979',
(PID.TID 0000.0001) > vwindfile         = 'v10m.labsea1979',
(PID.TID 0000.0001) >#evapfile          = 'evap.labsea1979',
(PID.TID 0000.0001) > precipfile        = 'prate.labsea1979',
(PID.TID 0000.0001) > lwfluxfile        = ' ',
(PID.TID 0000.0001) > swfluxfile        = ' ',
(PID.TID 0000.0001) > lwdownfile        = 'flo.labsea1979',
(PID.TID 0000.0001) > swdownfile        = 'fsh.labsea1979',
(PID.TID 0000.0001) > runoffFile        = ' '
(PID.TID 0000.0001) > climsstfile       = ' ',
(PID.TID 0000.0001) > climsssfile       = 'SSS_monthly.labsea1979',
(PID.TID 0000.0001) >#
(PID.TID 0000.0001) > &
(PID.TID 0000.0001) >
(PID.TID 0000.0001) ># *********************
(PID.TID 0000.0001) > &EXF_NML_03
(PID.TID 0000.0001) > &
(PID.TID 0000.0001) >
(PID.TID 0000.0001) ># *********************
(PID.TID 0000.0001) > &EXF_NML_04
(PID.TID 0000.0001) > &
(PID.TID 0000.0001) 
(PID.TID 0000.0001) EXF_READPARMS: reading EXF_NML_01
(PID.TID 0000.0001) EXF_READPARMS: reading EXF_NML_02
(PID.TID 0000.0001) EXF_READPARMS: reading EXF_NML_03
(PID.TID 0000.0001) EXF_READPARMS: reading EXF_NML_04
(PID.TID 0000.0001) EXF_READPARMS: finished reading data.exf
(PID.TID 0000.0001) ECCO_READPARMS: opening data.ecco
(PID.TID 0000.0001)  OPEN_COPY_DATA_FILE: opening file data.ecco
(PID.TID 0000.0001) // =======================================================
(PID.TID 0000.0001) // Parameter file "data.ecco"
(PID.TID 0000.0001) // =======================================================
(PID.TID 0000.0001) >#
(PID.TID 0000.0001) >#
(PID.TID 0000.0001) ># ******************
(PID.TID 0000.0001) ># ECCO cost function
(PID.TID 0000.0001) ># ******************
(PID.TID 0000.0001) > &ECCO_COST_NML
(PID.TID 0000.0001) > data_errfile ='data.err',
(PID.TID 0000.0001) > tbarfile   = 'tbar',
(PID.TID 0000.0001) > sbarfile   = 'sbar',
(PID.TID 0000.0001) > psbarfile  = 'psbar',
(PID.TID 0000.0001) >#
(PID.TID 0000.0001) > topexstartdate1 = 19790101,
(PID.TID 0000.0001) > topexstartdate2 = 00000,
(PID.TID 0000.0001) > topexperiod     = 2635200.0,
(PID.TID 0000.0001) > topexfile       = 'labsea_TP_fields',
(PID.TID 0000.0001) > topexmeanfile   = 'labsea_TP_mean',
(PID.TID 0000.0001) >#
(PID.TID 0000.0001) > ersfile       = 'labsea_ERS_fields',
(PID.TID 0000.0001) > ersstartdate1 = 19790101,
(PID.TID 0000.0001) > ersstartdate2 = 00000,
(PID.TID 0000.0001) > ersperiod     = 2635200.0,
(PID.TID 0000.0001) >#
(PID.TID 0000.0001) > sststartdate1        = 19790101,
(PID.TID 0000.0001) > sststartdate2        = 00000,
(PID.TID 0000.0001) > sstdatfile           = 'labsea_SST_fields',
(PID.TID 0000.0001) > tdatfile             = 'labsea_Lev.ptmp',
(PID.TID 0000.0001) > sdatfile             = 'labsea_Lev.salt',
(PID.TID 0000.0001) > ssh_errfile          = 'labsea_ssh.err',
(PID.TID 0000.0001) > geoid_errfile        = 'labsea_geoid.err',
(PID.TID 0000.0001) > geoid_covariancefile = ' ',
(PID.TID 0000.0001) >#
(PID.TID 0000.0001) > hflux_errfile        = ' ',
(PID.TID 0000.0001) > sflux_errfile        = ' ',
(PID.TID 0000.0001) > tauu_errfile         = ' ',
(PID.TID 0000.0001) > tauv_errfile         = ' ',
(PID.TID 0000.0001) > atemp_errfile        = ' ',
(PID.TID 0000.0001) > aqh_errfile          = ' ',
(PID.TID 0000.0001) > precip_errfile       = ' ',
(PID.TID 0000.0001) > swflux_errfile       = ' ',
(PID.TID 0000.0001) > swdown_errfile       = ' ',
(PID.TID 0000.0001) > uwind_errfile        = ' ',
(PID.TID 0000.0001) > vwind_errfile        = ' ',
(PID.TID 0000.0001) >#
(PID.TID 0000.0001) > whflux0              = 20.,
(PID.TID 0000.0001) > wsflux0              = 3.0E-8,
(PID.TID 0000.0001) > wtau0                = 2.0E-2,
(PID.TID 0000.0001) > watemp0              = 0.5,
(PID.TID 0000.0001) > waqh0                = 5.E-4,
(PID.TID 0000.0001) > wprecip0             = 1.E-8,
(PID.TID 0000.0001) > wswflux0             = 20.,
(PID.TID 0000.0001) > wswdown0             = 20.,
(PID.TID 0000.0001) > wlwflux0             = 20.,
(PID.TID 0000.0001) > wlwdown0             = 20.,
(PID.TID 0000.0001) > wwind0               = 1.0,
(PID.TID 0000.0001) > wevap0               = 1.0,
(PID.TID 0000.0001) > wsnowprecip0         = 1.0,
(PID.TID 0000.0001) >#
(PID.TID 0000.0001) > wmean_hflux          = 30.,
(PID.TID 0000.0001) > wmean_sflux          = 1.6E-8,
(PID.TID 0000.0001) > wmean_tau            = 0.1,
(PID.TID 0000.0001) > wmean_atemp          = 1.,
(PID.TID 0000.0001) > wmean_aqh            = 1.E-3,
(PID.TID 0000.0001) > wmean_precip         = 1.5E-8,
(PID.TID 0000.0001) > wmean_swflux         = 20.,
(PID.TID 0000.0001) > wmean_swdown         = 20.,
(PID.TID 0000.0001) > wmean_lwdown         = 20.,
(PID.TID 0000.0001) > wmean_lwflux         = 20.,
(PID.TID 0000.0001) > wmean_wind           = 2.0,
(PID.TID 0000.0001) > wmean_evap           = 1.0,
(PID.TID 0000.0001) > wmean_snowprecip     = 1.0,
(PID.TID 0000.0001) >#
(PID.TID 0000.0001) > mult_hmean = 0.,
(PID.TID 0000.0001) > mult_h     = 0.,
(PID.TID 0000.0001) > mult_temp  = 1.,
(PID.TID 0000.0001) > mult_salt  = 1.,
(PID.TID 0000.0001) > mult_sst   = 1.,
(PID.TID 0000.0001) > mult_hflux = 0.,
(PID.TID 0000.0001) > mult_sflux = 0.,
(PID.TID 0000.0001) > mult_tauu  = 0.,
(PID.TID 0000.0001) > mult_tauv  = 0.,
(PID.TID 0000.0001) > mult_atemp = 0.,
(PID.TID 0000.0001) > mult_aqh   = 0.,
(PID.TID 0000.0001) > mult_precip= 0.,
(PID.TID 0000.0001) > mult_swflux= 0.,
(PID.TID 0000.0001) > mult_swdown= 0.,
(PID.TID 0000.0001) > mult_uwind = 0.,
(PID.TID 0000.0001) > mult_vwind = 0.,
(PID.TID 0000.0001) >#
(PID.TID 0000.0001) > cost_iprec  = 64,
(PID.TID 0000.0001) > cost_yftype = 'RL',
(PID.TID 0000.0001) > &
(PID.TID 0000.0001) 
(PID.TID 0000.0001) ECCO_READPARMS: finished reading data.ecco
(PID.TID 0000.0001) ECCO_READPARMS: start assigning cost dates
(PID.TID 0000.0001) cal_CheckDate: Calendar date before predef. reference date
(PID.TID 0000.0001) cal_CheckDate: Calendar date before predef. reference date
(PID.TID 0000.0001) cal_CheckDate: Calendar date before predef. reference date
(PID.TID 0000.0001) cal_CheckDate: Calendar date before predef. reference date
(PID.TID 0000.0001) cal_CheckDate: Calendar date before predef. reference date
(PID.TID 0000.0001) ECCO_READPARMS: end assigning cost dates
(PID.TID 0000.0001) SET_PARMS: done
(PID.TID 0000.0001) Enter INI_VERTICAL_GRID: setInterFDr=    T ; setCenterDr=    F
(PID.TID 0000.0001) %MON XC_max                       =   3.1900000000000E+02
(PID.TID 0000.0001) %MON XC_min                       =   2.8100000000000E+02
(PID.TID 0000.0001) %MON XC_mean                      =   3.0000000000000E+02
(PID.TID 0000.0001) %MON XC_sd                        =   1.1532562594671E+01
(PID.TID 0000.0001) %MON XG_max                       =   3.1800000000000E+02
(PID.TID 0000.0001) %MON XG_min                       =   2.8000000000000E+02
(PID.TID 0000.0001) %MON XG_mean                      =   2.9900000000000E+02
(PID.TID 0000.0001) %MON XG_sd                        =   1.1532562594671E+01
(PID.TID 0000.0001) %MON DXC_max                      =   1.5166951523772E+05
(PID.TID 0000.0001) %MON DXC_min                      =   5.0026831972764E+04
(PID.TID 0000.0001) %MON DXC_mean                     =   1.0305926321463E+05
(PID.TID 0000.0001) %MON DXC_sd                       =   3.1375805318756E+04
(PID.TID 0000.0001) %MON DXF_max                      =   1.5166951523772E+05
(PID.TID 0000.0001) %MON DXF_min                      =   5.0026831972764E+04
(PID.TID 0000.0001) %MON DXF_mean                     =   1.0305926321463E+05
(PID.TID 0000.0001) %MON DXF_sd                       =   3.1375805318756E+04
(PID.TID 0000.0001) %MON DXG_max                      =   1.5448497309243E+05
(PID.TID 0000.0001) %MON DXG_min                      =   5.3800974869835E+04
(PID.TID 0000.0001) %MON DXG_mean                     =   1.0642630187324E+05
(PID.TID 0000.0001) %MON DXG_sd                       =   3.1081829200899E+04
(PID.TID 0000.0001) %MON DXV_max                      =   1.5448497309243E+05
(PID.TID 0000.0001) %MON DXV_min                      =   5.3800974869835E+04
(PID.TID 0000.0001) %MON DXV_mean                     =   1.0642630187324E+05
(PID.TID 0000.0001) %MON DXV_sd                       =   3.1081829200899E+04
(PID.TID 0000.0001) %MON YC_max                       =   7.7000000000000E+01
(PID.TID 0000.0001) %MON YC_min                       =   4.7000000000000E+01
(PID.TID 0000.0001) %MON YC_mean                      =   6.2000000000000E+01
(PID.TID 0000.0001) %MON YC_sd                        =   9.2195444572929E+00
(PID.TID 0000.0001) %MON YG_max                       =   7.6000000000000E+01
(PID.TID 0000.0001) %MON YG_min                       =   4.6000000000000E+01
(PID.TID 0000.0001) %MON YG_mean                      =   6.1000000000000E+01
(PID.TID 0000.0001) %MON YG_sd                        =   9.2195444572929E+00
(PID.TID 0000.0001) %MON DYC_max                      =   2.2238985328912E+05
(PID.TID 0000.0001) %MON DYC_min                      =   2.2238985328912E+05
(PID.TID 0000.0001) %MON DYC_mean                     =   2.2238985328912E+05
(PID.TID 0000.0001) %MON DYC_sd                       =   6.1118043959141E-10
(PID.TID 0000.0001) %MON DYF_max                      =   2.2238985328912E+05
(PID.TID 0000.0001) %MON DYF_min                      =   2.2238985328912E+05
(PID.TID 0000.0001) %MON DYF_mean                     =   2.2238985328912E+05
(PID.TID 0000.0001) %MON DYF_sd                       =   6.1118043959141E-10
(PID.TID 0000.0001) %MON DYG_max                      =   2.2238985328912E+05
(PID.TID 0000.0001) %MON DYG_min                      =   2.2238985328912E+05
(PID.TID 0000.0001) %MON DYG_mean                     =   2.2238985328912E+05
(PID.TID 0000.0001) %MON DYG_sd                       =   6.1118043959141E-10
(PID.TID 0000.0001) %MON DYU_max                      =   2.2238985328912E+05
(PID.TID 0000.0001) %MON DYU_min                      =   2.2238985328912E+05
(PID.TID 0000.0001) %MON DYU_mean                     =   2.2238985328912E+05
(PID.TID 0000.0001) %MON DYU_sd                       =   6.1118043959141E-10
(PID.TID 0000.0001) %MON RA_max                       =   3.3728048822756E+10
(PID.TID 0000.0001) %MON RA_min                       =   1.1124894996734E+10
(PID.TID 0000.0001) %MON RA_mean                      =   2.2918170839356E+10
(PID.TID 0000.0001) %MON RA_sd                        =   6.9773064942263E+09
(PID.TID 0000.0001) %MON RAW_max                      =   3.3728048822756E+10
(PID.TID 0000.0001) %MON RAW_min                      =   1.1124894996734E+10
(PID.TID 0000.0001) %MON RAW_mean                     =   2.2918170839356E+10
(PID.TID 0000.0001) %MON RAW_sd                       =   6.9773064942263E+09
(PID.TID 0000.0001) %MON RAS_max                      =   3.4354146294179E+10
(PID.TID 0000.0001) %MON RAS_min                      =   1.1964183470077E+10
(PID.TID 0000.0001) %MON RAS_mean                     =   2.3666928057229E+10
(PID.TID 0000.0001) %MON RAS_sd                       =   6.9119325076329E+09
(PID.TID 0000.0001) %MON RAZ_max                      =   3.4354146294179E+10
(PID.TID 0000.0001) %MON RAZ_min                      =   1.1964183470077E+10
(PID.TID 0000.0001) %MON RAZ_mean                     =   2.3666928057229E+10
(PID.TID 0000.0001) %MON RAZ_sd                       =   6.9119325076329E+09
(PID.TID 0000.0001) %MON AngleCS_max                  =   1.0000000000000E+00
(PID.TID 0000.0001) %MON AngleCS_min                  =   1.0000000000000E+00
(PID.TID 0000.0001) %MON AngleCS_mean                 =   1.0000000000000E+00
(PID.TID 0000.0001) %MON AngleCS_sd                   =   0.0000000000000E+00
(PID.TID 0000.0001) %MON AngleSN_max                  =   0.0000000000000E+00
(PID.TID 0000.0001) %MON AngleSN_min                  =   0.0000000000000E+00
(PID.TID 0000.0001) %MON AngleSN_mean                 =   0.0000000000000E+00
(PID.TID 0000.0001) %MON AngleSN_sd                   =   0.0000000000000E+00
(PID.TID 0000.0001) // =======================================================
(PID.TID 0000.0001) // Field Model R_low (ini_masks_etc) at iteration          1
(PID.TID 0000.0001) // CMIN =         -4.200000000000000E+03
(PID.TID 0000.0001) // CMAX =         -5.500000000000000E+01
(PID.TID 0000.0001) // CINT =          1.535185185185185E+02
(PID.TID 0000.0001) // SYMBOLS (CMIN->CMAX): -abcdefghijklmnopqrstuvwxyz+
(PID.TID 0000.0001) //                  0.0: .
(PID.TID 0000.0001) // RANGE I (Lo:Hi:Step):(  -2:  23:   1)
(PID.TID 0000.0001) // RANGE J (Lo:Hi:Step):(  19:  -2:  -1)
(PID.TID 0000.0001) // RANGE K (Lo:Hi:Step):(   1:   1:   1)
(PID.TID 0000.0001) // =======================================================
(PID.TID 0000.0001) K =   1
(PID.TID 0000.0001) //                I=7       I=17
(PID.TID 0000.0001) // |--J--|210123456|890123456|890123
(PID.TID 0000.0001) //     19 cc-..........+.zzxmgcc-...
(PID.TID 0000.0001) //     18 jc-.......+zzz..zzsmjc-...
(PID.TID 0000.0001) //     17 wc-........++z+++z+wwc-...
(PID.TID 0000.0001) //     16 ....zyyz................zy
(PID.TID 0000.0001) //     15 ...yxwwuspxyxz.........yxw
(PID.TID 0000.0001) //     14 ....+wwspppsxzz.........+w
(PID.TID 0000.0001) //     13 .......zwsppsyz...........
(PID.TID 0000.0001) //     12 .........+ypswzz+.........
(PID.TID 0000.0001) //     11 ...........+wwy+..........
(PID.TID 0000.0001) //     10 ..........zzzywy+.........
(PID.TID 0000.0001) //      9 ..z.......+zxsmmm+....z...
(PID.TID 0000.0001) //      8 ..s.....zzzxumjjjjuz..s...
(PID.TID 0000.0001) //      7 pmj......z.+zmjggggjpmj...
(PID.TID 0000.0001) //      6 ggg.........zxmjggggggg...
(PID.TID 0000.0001) //      5 ggg..........zzsjgggggg...
(PID.TID 0000.0001) //      4 ccg............zzmgcccg...
(PID.TID 0000.0001) //      3 cc-..........+.zzxmgcc-...
(PID.TID 0000.0001) //      2 jc-.......+zzz..zzsmjc-...
(PID.TID 0000.0001) //      1 wc-........++z+++z+wwc-...
(PID.TID 0000.0001) //      0 ....zyyz................zy
(PID.TID 0000.0001) //     -1 ...yxwwuspxyxz.........yxw
(PID.TID 0000.0001) //     -2 ....+wwspppsxzz.........+w
(PID.TID 0000.0001) // =======================================================
(PID.TID 0000.0001) // END OF FIELD                                          =
(PID.TID 0000.0001) // =======================================================
(PID.TID 0000.0001) 
(PID.TID 0000.0001) // =======================================================
(PID.TID 0000.0001) // Field Model Ro_surf (ini_masks_etc) at iteration          1
(PID.TID 0000.0001) // CMIN =          1.000000000000000E+32
(PID.TID 0000.0001) // CMAX =         -1.000000000000000E+32
(PID.TID 0000.0001) // CINT =          0.000000000000000E+00
(PID.TID 0000.0001) // SYMBOLS (CMIN->CMAX): -abcdefghijklmnopqrstuvwxyz+
(PID.TID 0000.0001) //                  0.0: .
(PID.TID 0000.0001) // RANGE I (Lo:Hi:Step):(  -2:  23:   1)
(PID.TID 0000.0001) // RANGE J (Lo:Hi:Step):(  19:  -2:  -1)
(PID.TID 0000.0001) // RANGE K (Lo:Hi:Step):(   1:   1:   1)
(PID.TID 0000.0001) // =======================================================
(PID.TID 0000.0001) // =======================================================
(PID.TID 0000.0001) // END OF FIELD                                          =
(PID.TID 0000.0001) // =======================================================
(PID.TID 0000.0001) 
(PID.TID 0000.0001) // =======================================================
(PID.TID 0000.0001) // Field hFacC at iteration          1
(PID.TID 0000.0001) // CMIN =          1.000000000000000E+00
(PID.TID 0000.0001) // CMAX =          1.000000000000000E+00
(PID.TID 0000.0001) // CINT =          0.000000000000000E+00
(PID.TID 0000.0001) // SYMBOLS (CMIN->CMAX): -abcdefghijklmnopqrstuvwxyz+
(PID.TID 0000.0001) //                  0.0: .
(PID.TID 0000.0001) // RANGE I (Lo:Hi:Step):(  -2:  23:   1)
(PID.TID 0000.0001) // RANGE J (Lo:Hi:Step):(  19:  -2:  -1)
(PID.TID 0000.0001) // RANGE K (Lo:Hi:Step):(   1:   1:   1)
(PID.TID 0000.0001) // =======================================================
(PID.TID 0000.0001) // =======================================================
(PID.TID 0000.0001) // END OF FIELD                                          =
(PID.TID 0000.0001) // =======================================================
(PID.TID 0000.0001) 
(PID.TID 0000.0001) // =======================================================
(PID.TID 0000.0001) // Field hFacW at iteration          1
(PID.TID 0000.0001) // CMIN =          1.000000000000000E+00
(PID.TID 0000.0001) // CMAX =          1.000000000000000E+00
(PID.TID 0000.0001) // CINT =          0.000000000000000E+00
(PID.TID 0000.0001) // SYMBOLS (CMIN->CMAX): -abcdefghijklmnopqrstuvwxyz+
(PID.TID 0000.0001) //                  0.0: .
(PID.TID 0000.0001) // RANGE I (Lo:Hi:Step):(  -2:  23:   1)
(PID.TID 0000.0001) // RANGE J (Lo:Hi:Step):(  19:  -2:  -1)
(PID.TID 0000.0001) // RANGE K (Lo:Hi:Step):(   1:   1:   1)
(PID.TID 0000.0001) // =======================================================
(PID.TID 0000.0001) // =======================================================
(PID.TID 0000.0001) // END OF FIELD                                          =
(PID.TID 0000.0001) // =======================================================
(PID.TID 0000.0001) 
(PID.TID 0000.0001) // =======================================================
(PID.TID 0000.0001) // Field hFacS at iteration          1
(PID.TID 0000.0001) // CMIN =          1.000000000000000E+00
(PID.TID 0000.0001) // CMAX =          1.000000000000000E+00
(PID.TID 0000.0001) // CINT =          0.000000000000000E+00
(PID.TID 0000.0001) // SYMBOLS (CMIN->CMAX): -abcdefghijklmnopqrstuvwxyz+
(PID.TID 0000.0001) //                  0.0: .
(PID.TID 0000.0001) // RANGE I (Lo:Hi:Step):(  -2:  23:   1)
(PID.TID 0000.0001) // RANGE J (Lo:Hi:Step):(  19:  -2:  -1)
(PID.TID 0000.0001) // RANGE K (Lo:Hi:Step):(   1:   1:   1)
(PID.TID 0000.0001) // =======================================================
(PID.TID 0000.0001) // =======================================================
(PID.TID 0000.0001) // END OF FIELD                                          =
(PID.TID 0000.0001) // =======================================================
(PID.TID 0000.0001) 
(PID.TID 0000.0001) 
(PID.TID 0000.0001) // ===================================
(PID.TID 0000.0001) // GAD parameters :
(PID.TID 0000.0001) // ===================================
(PID.TID 0000.0001) tempAdvScheme =   /* Temp. Horiz.Advection scheme selector */
(PID.TID 0000.0001)                       2
(PID.TID 0000.0001)     ;
(PID.TID 0000.0001) tempVertAdvScheme =   /* Temp. Vert. Advection scheme selector */
(PID.TID 0000.0001)                       2
(PID.TID 0000.0001)     ;
(PID.TID 0000.0001) tempMultiDimAdvec =   /* use Muti-Dim Advec method for Temp */
(PID.TID 0000.0001)                   F
(PID.TID 0000.0001)     ;
(PID.TID 0000.0001) tempSOM_Advection = /* use 2nd Order Moment Advection for Temp */
(PID.TID 0000.0001)                   F
(PID.TID 0000.0001)     ;
(PID.TID 0000.0001) AdamsBashforthGt = /* apply Adams-Bashforth extrapolation on Gt */
(PID.TID 0000.0001)                   T
(PID.TID 0000.0001)     ;
(PID.TID 0000.0001) AdamsBashforth_T = /* apply Adams-Bashforth extrapolation on Temp */
(PID.TID 0000.0001)                   F
(PID.TID 0000.0001)     ;
(PID.TID 0000.0001) saltAdvScheme =   /* Salt. Horiz.advection scheme selector */
(PID.TID 0000.0001)                       2
(PID.TID 0000.0001)     ;
(PID.TID 0000.0001) saltVertAdvScheme =   /* Salt. Vert. Advection scheme selector */
(PID.TID 0000.0001)                       2
(PID.TID 0000.0001)     ;
(PID.TID 0000.0001) saltMultiDimAdvec =   /* use Muti-Dim Advec method for Salt */
(PID.TID 0000.0001)                   F
(PID.TID 0000.0001)     ;
(PID.TID 0000.0001) saltSOM_Advection = /* use 2nd Order Moment Advection for Salt */
(PID.TID 0000.0001)                   F
(PID.TID 0000.0001)     ;
(PID.TID 0000.0001) AdamsBashforthGs = /* apply Adams-Bashforth extrapolation on Gs */
(PID.TID 0000.0001)                   T
(PID.TID 0000.0001)     ;
(PID.TID 0000.0001) AdamsBashforth_S = /* apply Adams-Bashforth extrapolation on Salt */
(PID.TID 0000.0001)                   F
(PID.TID 0000.0001)     ;
(PID.TID 0000.0001) // ===================================
(PID.TID 0000.0001) 
(PID.TID 0000.0001) // =======================================================
(PID.TID 0000.0001) // External forcing configuration >>> START <<<
(PID.TID 0000.0001) // =======================================================
(PID.TID 0000.0001) 
(PID.TID 0000.0001)  EXF general parameters:
(PID.TID 0000.0001) 
(PID.TID 0000.0001) exf_yftype =  /* ? */
(PID.TID 0000.0001)               'RL'
(PID.TID 0000.0001)     ;
(PID.TID 0000.0001) exf_iprec = /* exf file precision */
(PID.TID 0000.0001)                      32
(PID.TID 0000.0001)     ;
(PID.TID 0000.0001) useExfYearlyFields = /* add extension _YEAR to input file names */
(PID.TID 0000.0001)                   F
(PID.TID 0000.0001)     ;
(PID.TID 0000.0001) twoDigitYear = /* use 2-digit year extension */
(PID.TID 0000.0001)                   F
(PID.TID 0000.0001)     ;
(PID.TID 0000.0001) useExfCheckRange = /* check for fields range */
(PID.TID 0000.0001)                   T
(PID.TID 0000.0001)     ;
(PID.TID 0000.0001) exf_monFreq = /* EXF monitor frequency [ s ] */
(PID.TID 0000.0001)                 1.000000000000000E+00
(PID.TID 0000.0001)     ;
(PID.TID 0000.0001) repeatPeriod = /* period for cycling forcing dataset [ s ] */
(PID.TID 0000.0001)                 3.162240000000000E+07
(PID.TID 0000.0001)     ;
(PID.TID 0000.0001) climTempFreeze= /* Minimum climatological temperature [deg.C] */
(PID.TID 0000.0001)                -1.900000000000000E+00
(PID.TID 0000.0001)     ;
(PID.TID 0000.0001) windStressMax = /* Maximum absolute windstress [ Pa ] */
(PID.TID 0000.0001)                 2.000000000000000E+00
(PID.TID 0000.0001)     ;
(PID.TID 0000.0001) stressIsOnCgrid = /* set u,v_stress on Arakawa C-grid */
(PID.TID 0000.0001)                   F
(PID.TID 0000.0001)     ;
(PID.TID 0000.0001) cen2kel = /* conversion of deg. Centigrade to Kelvin [K] */
(PID.TID 0000.0001)                 2.731500000000000E+02
(PID.TID 0000.0001)     ;
(PID.TID 0000.0001) gravity_mks= /* gravitational acceleration [m/s^2] */
(PID.TID 0000.0001)                 9.810000000000000E+00
(PID.TID 0000.0001)     ;
(PID.TID 0000.0001) atmrho =  /* mean atmospheric density [kg/m^3] */
(PID.TID 0000.0001)                 1.200000000000000E+00
(PID.TID 0000.0001)     ;
(PID.TID 0000.0001) atmcp =  /* mean atmospheric specific heat [J/kg/K] */
(PID.TID 0000.0001)                 1.005000000000000E+03
(PID.TID 0000.0001)     ;
(PID.TID 0000.0001) flamb =  /* latent heat of evaporation [J/kg] */
(PID.TID 0000.0001)                 2.500000000000000E+06
(PID.TID 0000.0001)     ;
(PID.TID 0000.0001) flami =  /* latent heat of pure-ice melting [J/kg] */
(PID.TID 0000.0001)                 3.340000000000000E+05
(PID.TID 0000.0001)     ;
(PID.TID 0000.0001) cvapor_fac = /* const. for Saturation calculation [?] */
(PID.TID 0000.0001)                 6.403800000000000E+05
(PID.TID 0000.0001)     ;
(PID.TID 0000.0001) cvapor_exp = /* const. for Saturation calculation [?] */
(PID.TID 0000.0001)                 5.107400000000000E+03
(PID.TID 0000.0001)     ;
(PID.TID 0000.0001) cvapor_fac_ice= /* const. for Saturation calculation [?] */
(PID.TID 0000.0001)                 1.163780000000000E+07
(PID.TID 0000.0001)     ;
(PID.TID 0000.0001) cvapor_exp_ice= /* const. for Saturation calculation [?] */
(PID.TID 0000.0001)                 5.897800000000000E+03
(PID.TID 0000.0001)     ;
(PID.TID 0000.0001) humid_fac = /* humidity coef. in virtual temp. [(kg/kg)^-1] */
(PID.TID 0000.0001)                 6.060000000000000E-01
(PID.TID 0000.0001)     ;
(PID.TID 0000.0001) gamma_blk = /* adiabatic lapse rate [?] */
(PID.TID 0000.0001)                 1.000000000000000E-02
(PID.TID 0000.0001)     ;
(PID.TID 0000.0001) saltsat = /* reduction of Qsat over salty water [-] */
(PID.TID 0000.0001)                 9.800000000000000E-01
(PID.TID 0000.0001)     ;
(PID.TID 0000.0001) cDrag_1 = /* coef used in drag calculation [?] */
(PID.TID 0000.0001)                 2.700000000000000E-03
(PID.TID 0000.0001)     ;
(PID.TID 0000.0001) cDrag_2 = /* coef used in drag calculation [?] */
(PID.TID 0000.0001)                 1.420000000000000E-04
(PID.TID 0000.0001)     ;
(PID.TID 0000.0001) cDrag_3 = /* coef used in drag calculation [?] */
(PID.TID 0000.0001)                 7.640000000000000E-05
(PID.TID 0000.0001)     ;
(PID.TID 0000.0001) cStanton_1 = /* coef used in Stanton number calculation [?] */
(PID.TID 0000.0001)                 3.270000000000000E-02
(PID.TID 0000.0001)     ;
(PID.TID 0000.0001) cStanton_2 = /* coef used in Stanton number calculation [?] */
(PID.TID 0000.0001)                 1.800000000000000E-02
(PID.TID 0000.0001)     ;
(PID.TID 0000.0001) cDalton = /* coef used in Dalton number calculation [?] */
(PID.TID 0000.0001)                 3.460000000000000E-02
(PID.TID 0000.0001)     ;
(PID.TID 0000.0001) exf_scal_BulkCdn= /* Drag coefficient scaling factor [-] */
(PID.TID 0000.0001)                 1.000000000000000E+00
(PID.TID 0000.0001)     ;
(PID.TID 0000.0001) zolmin = /* minimum stability parameter [?] */
(PID.TID 0000.0001)                -1.000000000000000E+02
(PID.TID 0000.0001)     ;
(PID.TID 0000.0001) psim_fac = /* coef used in turbulent fluxes calculation [-] */
(PID.TID 0000.0001)                 5.000000000000000E+00
(PID.TID 0000.0001)     ;
(PID.TID 0000.0001) zref =  /* reference height [ m ] */
(PID.TID 0000.0001)                 1.000000000000000E+01
(PID.TID 0000.0001)     ;
(PID.TID 0000.0001) hu =  /* height of mean wind [ m ] */
(PID.TID 0000.0001)                 1.000000000000000E+01
(PID.TID 0000.0001)     ;
(PID.TID 0000.0001) ht =  /* height of mean temperature [ m ] */
(PID.TID 0000.0001)                 2.000000000000000E+00
(PID.TID 0000.0001)     ;
(PID.TID 0000.0001) hq =  /* height of mean spec.humidity [ m ] */
(PID.TID 0000.0001)                 2.000000000000000E+00
(PID.TID 0000.0001)     ;
(PID.TID 0000.0001) uMin = /* minimum wind speed [m/s] */
(PID.TID 0000.0001)                 5.000000000000000E-01
(PID.TID 0000.0001)     ;
(PID.TID 0000.0001) useStabilityFct_overIce= /* transfert Coeffs over sea-ice depend on stability */
(PID.TID 0000.0001)                   F
(PID.TID 0000.0001)     ;
(PID.TID 0000.0001) exf_iceCd = /* drag coefficient over sea-ice (fixed) [-] */
(PID.TID 0000.0001)                 1.630000000000000E-03
(PID.TID 0000.0001)     ;
(PID.TID 0000.0001) exf_iceCe = /* transfert coeff. over sea-ice, for Evap (fixed) [-] */
(PID.TID 0000.0001)                 1.630000000000000E-03
(PID.TID 0000.0001)     ;
(PID.TID 0000.0001) exf_iceCh = /* transfert coeff. over sea-ice, Sens.Heat.(fixed)[-] */
(PID.TID 0000.0001)                 1.630000000000000E-03
(PID.TID 0000.0001)     ;
(PID.TID 0000.0001) exf_albedo =  /* Sea-water albedo [-] */
(PID.TID 0000.0001)                 1.000000000000000E-01
(PID.TID 0000.0001)     ;
(PID.TID 0000.0001) ocean_emissivity = /* longwave ocean-surface emissivity [-] */
(PID.TID 0000.0001)                 9.700176366843034E-01
(PID.TID 0000.0001)     ;
(PID.TID 0000.0001) ice_emissivity = /* longwave seaice emissivity [-] */
(PID.TID 0000.0001)                 9.500000000000000E-01
(PID.TID 0000.0001)     ;
(PID.TID 0000.0001) snow_emissivity = /* longwave snow  emissivity [-] */
(PID.TID 0000.0001)                 9.500000000000000E-01
(PID.TID 0000.0001)     ;
(PID.TID 0000.0001) 
(PID.TID 0000.0001)  EXF main CPP flags:
(PID.TID 0000.0001) 
(PID.TID 0000.0001) // ALLOW_ATM_TEMP:                     defined
(PID.TID 0000.0001) // ALLOW_ATM_WIND:                     defined
(PID.TID 0000.0001) // ALLOW_DOWNWARD_RADIATION:           defined
(PID.TID 0000.0001) // ALLOW_BULKFORMULAE:                 defined
(PID.TID 0000.0001) 
(PID.TID 0000.0001)    Net shortwave flux forcing starts at                0.
(PID.TID 0000.0001)    Net shortwave flux forcing period is          2635200.
(PID.TID 0000.0001)    Net shortwave flux forcing is read from file:
(PID.TID 0000.0001)    >>    <<
(PID.TID 0000.0001) 
(PID.TID 0000.0001)    Zonal wind forcing starts at                   -1317600.
(PID.TID 0000.0001)    Zonal wind forcing period is                    2635200.
(PID.TID 0000.0001)    Zonal wind forcing is read from file:
(PID.TID 0000.0001)    >>  u10m.labsea1979  <<
(PID.TID 0000.0001) 
(PID.TID 0000.0001)    Meridional wind forcing starts at              -1317600.
(PID.TID 0000.0001)    Meridional wind forcing period is               2635200.
(PID.TID 0000.0001)    Meridional wind forcing is read from file:
(PID.TID 0000.0001)    >>  v10m.labsea1979  <<
(PID.TID 0000.0001) 
(PID.TID 0000.0001)    Atmospheric temperature starts at              -1317600.
(PID.TID 0000.0001)    Atmospheric temperature period is               2635200.
(PID.TID 0000.0001)    Atmospheric temperature is read from file:
(PID.TID 0000.0001)    >>  tair.labsea1979  <<
(PID.TID 0000.0001) 
(PID.TID 0000.0001)    Atmospheric specific humidity starts at        -1317600.
(PID.TID 0000.0001)    Atmospheric specific humidity period is         2635200.
(PID.TID 0000.0001)    Atmospheric specific humidity is read from file:
(PID.TID 0000.0001)    >>  qa.labsea1979  <<
(PID.TID 0000.0001) 
(PID.TID 0000.0001)    Net longwave flux forcing starts at                 0.
(PID.TID 0000.0001)    Net longwave flux forcing period is           2635200.
(PID.TID 0000.0001)    Net longwave flux forcing is read from file:
(PID.TID 0000.0001)    >>    <<
(PID.TID 0000.0001) 
(PID.TID 0000.0001)    Precipitation data set starts at               -1317600.
(PID.TID 0000.0001)    Precipitation data period is                    2635200.
(PID.TID 0000.0001)    Precipitation data is read from file:
(PID.TID 0000.0001)    >>  prate.labsea1979  <<
(PID.TID 0000.0001) 
(PID.TID 0000.0001) // EXF_READ_EVAP:                  NOT defined
(PID.TID 0000.0001) 
(PID.TID 0000.0001) // ALLOW_RUNOFF:                       defined
(PID.TID 0000.0001)    Runnoff starts at               0.
(PID.TID 0000.0001)    Runoff period is               0.
(PID.TID 0000.0001)    Runoff is read from file:
(PID.TID 0000.0001)    >>    <<
(PID.TID 0000.0001) 
(PID.TID 0000.0001)    Atmospheric pressure forcing starts at                0.
(PID.TID 0000.0001)    Atmospheric pressure forcing period is                0.
(PID.TID 0000.0001)    Atmospheric pressureforcing is read from file:
(PID.TID 0000.0001)    >>    <<
(PID.TID 0000.0001) 
(PID.TID 0000.0001) // =======================================================
(PID.TID 0000.0001) // External forcing configuration  >>> END <<<
(PID.TID 0000.0001) // =======================================================
(PID.TID 0000.0001) 
(PID.TID 0000.0001) 
(PID.TID 0000.0001) // =======================================================
(PID.TID 0000.0001) // External forcing climatology configuration >>> START <<<
(PID.TID 0000.0001) // =======================================================
(PID.TID 0000.0001) 
(PID.TID 0000.0001) // ALLOW_CLIMSST_RELAXATION:           defined
(PID.TID 0000.0001) // ALLOW_CLIMSSS_RELAXATION:           defined
(PID.TID 0000.0001) 
(PID.TID 0000.0001)    Climatological SST starts at                   0.
(PID.TID 0000.0001)    Climatological SST period is             2635200.
(PID.TID 0000.0001)    Climatological SST is read from file:
(PID.TID 0000.0001)    >>    <<
(PID.TID 0000.0001) 
(PID.TID 0000.0001)    Climatological SSS starts at            -1317600.
(PID.TID 0000.0001)    Climatological SSS period is             2635200.
(PID.TID 0000.0001)    Climatological SSS is read from file:
(PID.TID 0000.0001)    >>  SSS_monthly.labsea1979  <<
(PID.TID 0000.0001) 
(PID.TID 0000.0001) // =======================================================
(PID.TID 0000.0001) // External forcing climatology configuration  >>> END <<<
(PID.TID 0000.0001) // =======================================================
(PID.TID 0000.0001) 
(PID.TID 0000.0001) cal_CheckDate: Calendar date before predef. reference date
(PID.TID 0000.0001) cal_CheckDate: Calendar date before predef. reference date
(PID.TID 0000.0001) cal_CheckDate: Calendar date before predef. reference date
(PID.TID 0000.0001) cal_CheckDate: Calendar date before predef. reference date
(PID.TID 0000.0001) cal_CheckDate: Calendar date before predef. reference date
(PID.TID 0000.0001) cal_CheckDate: Calendar date before predef. reference date
(PID.TID 0000.0001) cal_CheckDate: Calendar date before predef. reference date
(PID.TID 0000.0001)  OPEN_COPY_DATA_FILE: opening file data.err
(PID.TID 0000.0001) // =======================================================
(PID.TID 0000.0001) // Parameter file "data.err"
(PID.TID 0000.0001) // =======================================================
(PID.TID 0000.0001) > 0.25
(PID.TID 0000.0001) >    0.5201    0.2676
(PID.TID 0000.0001) >    0.5199    0.2224
(PID.TID 0000.0001) >    0.5201    0.1942
(PID.TID 0000.0001) >    0.5142    0.1751
(PID.TID 0000.0001) >    0.4917    0.1452
(PID.TID 0000.0001) >    0.4707    0.1223
(PID.TID 0000.0001) >    0.4324    0.1125
(PID.TID 0000.0001) >    0.3782    0.1078
(PID.TID 0000.0001) >    0.3103    0.0884
(PID.TID 0000.0001) >    0.2435    0.0785
(PID.TID 0000.0001) >    0.1994    0.0777
(PID.TID 0000.0001) >    0.1582    0.0702
(PID.TID 0000.0001) >    0.1144    0.0710
(PID.TID 0000.0001) >    0.0905    0.0599
(PID.TID 0000.0001) >    0.0659    0.0510
(PID.TID 0000.0001) >    0.0602    0.0408
(PID.TID 0000.0001) >    0.0508    0.0399
(PID.TID 0000.0001) >    0.0498    0.0314
(PID.TID 0000.0001) >    0.0501    0.0205
(PID.TID 0000.0001) >    0.0500    0.0199
(PID.TID 0000.0001) >    0.0500    0.0200
(PID.TID 0000.0001) >    0.0500    0.0200
(PID.TID 0000.0001) >    0.0500    0.0200
(PID.TID 0000.0001) 
(PID.TID 0000.0001) 
(PID.TID 0000.0001) // =======================================================
(PID.TID 0000.0001) // ECCO cost function configuration  >>> START <<<
(PID.TID 0000.0001) // =======================================================
(PID.TID 0000.0001) 
(PID.TID 0000.0001)   Multipliers for the indivdual cost function contributions:
(PID.TID 0000.0001) 
(PID.TID 0000.0001)   Net heat flux:                 0.000E+00
(PID.TID 0000.0001)   Salt flux:                     0.000E+00
(PID.TID 0000.0001)   Zonal wind stress:             0.000E+00
(PID.TID 0000.0001)   Meridional wind stress:        0.000E+00
(PID.TID 0000.0001)   Mean sea surface height:       0.000E+00
(PID.TID 0000.0001)   Sea surface height anomalies:  0.000E+00
(PID.TID 0000.0001)   Temperature Lev.:              0.100E+01
(PID.TID 0000.0001)   Salinity Lev.:                 0.100E+01
(PID.TID 0000.0001)   Temperature ini.:              0.000E+00
(PID.TID 0000.0001)   Salinity ini.:                 0.000E+00
(PID.TID 0000.0001)   TMI Sea surface temperature:   0.000E+00
(PID.TID 0000.0001)   Sea surface temperature:       0.100E+01
(PID.TID 0000.0001)   Sea surface salinity:         0.000E+00
(PID.TID 0000.0001)   CTD temperature:               0.000E+00
(PID.TID 0000.0001)   CTD salinity:                  0.000E+00
(PID.TID 0000.0001)   CTD clim temperature:          0.000E+00
(PID.TID 0000.0001)   CTD clim salinity:             0.000E+00
(PID.TID 0000.0001)   XBT Temperature:               0.000E+00
(PID.TID 0000.0001)   ARGO Temperature:               0.000E+00
(PID.TID 0000.0001)   ARGO Salt:                      0.000E+00
(PID.TID 0000.0001)   drifter velocities:            0.000E+00
(PID.TID 0000.0001)   drift between last and 1st year: 0.000E+00
(PID.TID 0000.0001)   drift between last and 1st year: 0.000E+00
(PID.TID 0000.0001)   Ageostrophic bdy flow:         0.000E+00
(PID.TID 0000.0001)   OB North:                      0.000E+00
(PID.TID 0000.0001)   OB South:                      0.000E+00
(PID.TID 0000.0001)   OB West:                       0.000E+00
(PID.TID 0000.0001)   OB East:                       0.000E+00
(PID.TID 0000.0001) 
(PID.TID 0000.0001) 
(PID.TID 0000.0001)   Temperature data are read from: labsea_Lev.ptmp
(PID.TID 0000.0001)   Salinity data are read from:    labsea_Lev.salt
(PID.TID 0000.0001) ctrl-wet 1:    nvarlength =         6420
(PID.TID 0000.0001) ctrl-wet 2: surface wet C =          150
(PID.TID 0000.0001) ctrl-wet 3: surface wet W =          129
(PID.TID 0000.0001) ctrl-wet 4: surface wet S =          120
(PID.TID 0000.0001) ctrl-wet 4a:surface wet V =            0
(PID.TID 0000.0001) ctrl-wet 5: 3D wet points =         1860
(PID.TID 0000.0001) ctrl-wet 6: no recs for i =     1           1
(PID.TID 0000.0001) ctrl-wet 6: no recs for i =     2           1
(PID.TID 0000.0001) ctrl-wet 6: no recs for i =     3           0
(PID.TID 0000.0001) ctrl-wet 6: no recs for i =     4           0
(PID.TID 0000.0001) ctrl-wet 6: no recs for i =     5           0
(PID.TID 0000.0001) ctrl-wet 6: no recs for i =     6           0
(PID.TID 0000.0001) ctrl-wet 6: no recs for i =     7           2
(PID.TID 0000.0001) ctrl-wet 6: no recs for i =     8           2
(PID.TID 0000.0001) ctrl-wet 6: no recs for i =     9           2
(PID.TID 0000.0001) ctrl-wet 6: no recs for i =    10           2
(PID.TID 0000.0001) ctrl-wet 6: no recs for i =    11           0
(PID.TID 0000.0001) ctrl-wet 6: no recs for i =    12           0
(PID.TID 0000.0001) ctrl-wet 6: no recs for i =    13           0
(PID.TID 0000.0001) ctrl-wet 6: no recs for i =    14           0
(PID.TID 0000.0001) ctrl-wet 6: no recs for i =    15           0
(PID.TID 0000.0001) ctrl-wet 6: no recs for i =    16           0
(PID.TID 0000.0001) ctrl-wet 6: no recs for i =    17           0
(PID.TID 0000.0001) ctrl-wet 6: no recs for i =    18           0
(PID.TID 0000.0001) ctrl-wet 6: no recs for i =    19           0
(PID.TID 0000.0001) ctrl-wet 6: no recs for i =    20           0
(PID.TID 0000.0001) ctrl-wet 6: no recs for i =    21           0
(PID.TID 0000.0001) ctrl-wet 6: no recs for i =    22           0
(PID.TID 0000.0001) ctrl-wet 6: no recs for i =    23           0
(PID.TID 0000.0001) ctrl-wet 6: no recs for i =    24           0
(PID.TID 0000.0001) ctrl-wet 6: no recs for i =    25           0
(PID.TID 0000.0001) ctrl-wet 6: no recs for i =    26           0
(PID.TID 0000.0001) ctrl-wet 6: no recs for i =    27           0
(PID.TID 0000.0001) ctrl-wet 6: no recs for i =    28           0
(PID.TID 0000.0001) ctrl-wet 6: no recs for i =    29           0
(PID.TID 0000.0001) ctrl-wet 6: no recs for i =    30           0
(PID.TID 0000.0001) ctrl-wet 6: no recs for i =    31           0
(PID.TID 0000.0001) ctrl-wet 6: no recs for i =    32           2
(PID.TID 0000.0001) ctrl-wet 6: no recs for i =    33           0
(PID.TID 0000.0001) ctrl-wet 6: no recs for i =    34           2
(PID.TID 0000.0001) ctrl-wet 6: no recs for i =    35           0
(PID.TID 0000.0001) ctrl-wet 6: no recs for i =    36           2
(PID.TID 0000.0001) ctrl-wet 6: no recs for i =    37           0
(PID.TID 0000.0001) ctrl-wet 6: no recs for i =    38           2
(PID.TID 0000.0001) ctrl-wet 6: no recs for i =    39           2
(PID.TID 0000.0001) ctrl-wet 6: no recs for i =    40           0
(PID.TID 0000.0001) ctrl-wet 7: flux          3720
(PID.TID 0000.0001) ctrl-wet 8: atmos         4818
(PID.TID 0000.0001) ctrl-wet -------------------------------------------------
(PID.TID 0000.0001) ctrl-wet 13: global nvarlength for Nr =   23        6420
(PID.TID 0000.0001) ctrl-wet -------------------------------------------------
(PID.TID 0000.0001) ctrl-wet 14: global nWet C/S/W/V k=    1         150         120         129           0
(PID.TID 0000.0001) ctrl-wet 14: global nWet C/S/W/V k=    2         150         120         129           0
(PID.TID 0000.0001) ctrl-wet 14: global nWet C/S/W/V k=    3         150         120         129           0
(PID.TID 0000.0001) ctrl-wet 14: global nWet C/S/W/V k=    4         150         120         129           0
(PID.TID 0000.0001) ctrl-wet 14: global nWet C/S/W/V k=    5         145         116         125           0
(PID.TID 0000.0001) ctrl-wet 14: global nWet C/S/W/V k=    6         140         112         119           0
(PID.TID 0000.0001) ctrl-wet 14: global nWet C/S/W/V k=    7         133         104         111           0
(PID.TID 0000.0001) ctrl-wet 14: global nWet C/S/W/V k=    8         126          98         106           0
(PID.TID 0000.0001) ctrl-wet 14: global nWet C/S/W/V k=    9         115          89          95           0
(PID.TID 0000.0001) ctrl-wet 14: global nWet C/S/W/V k=   10          99          77          82           0
(PID.TID 0000.0001) ctrl-wet 14: global nWet C/S/W/V k=   11          90          68          73           0
(PID.TID 0000.0001) ctrl-wet 14: global nWet C/S/W/V k=   12          82          62          66           0
(PID.TID 0000.0001) ctrl-wet 14: global nWet C/S/W/V k=   13          71          54          57           0
(PID.TID 0000.0001) ctrl-wet 14: global nWet C/S/W/V k=   14          68          52          54           0
(PID.TID 0000.0001) ctrl-wet 14: global nWet C/S/W/V k=   15          58          44          45           0
(PID.TID 0000.0001) ctrl-wet 14: global nWet C/S/W/V k=   16          50          40          40           0
(PID.TID 0000.0001) ctrl-wet 14: global nWet C/S/W/V k=   17          40          31          31           0
(PID.TID 0000.0001) ctrl-wet 14: global nWet C/S/W/V k=   18          30          22          23           0
(PID.TID 0000.0001) ctrl-wet 14: global nWet C/S/W/V k=   19          10           6           6           0
(PID.TID 0000.0001) ctrl-wet 14: global nWet C/S/W/V k=   20           3           2           0           0
(PID.TID 0000.0001) ctrl-wet 14: global nWet C/S/W/V k=   21           0           0           0           0
(PID.TID 0000.0001) ctrl-wet 14: global nWet C/S/W/V k=   22           0           0           0           0
(PID.TID 0000.0001) ctrl-wet 14: global nWet C/S/W/V k=   23           0           0           0           0
(PID.TID 0000.0001) ctrl-wet -------------------------------------------------
(PID.TID 0000.0001) ctrl-wet -------------------------------------------------
(PID.TID 0000.0001) ctrl-wet -------------------------------------------------
(PID.TID 0000.0001) ctrl_init: no. of control variables:           11
(PID.TID 0000.0001) ctrl_init: control vector length:            6420
(PID.TID 0000.0001) GAD_CHECK: #define ALLOW_GENERIC_ADVDIFF
(PID.TID 0000.0001) KPP_CHECK: #define ALLOW_KPP
(PID.TID 0000.0001) GMREDI_CHECK: #define GMREDI
(PID.TID 0000.0001) GM_AdvForm =  /* if FALSE => use SkewFlux Form */
(PID.TID 0000.0001)                   F
(PID.TID 0000.0001)     ;
(PID.TID 0000.0001) GM_AdvSeparate = /* Calc Bolus & Euler Adv. separately */
(PID.TID 0000.0001)                   F
(PID.TID 0000.0001)     ;
(PID.TID 0000.0001) GM_ExtraDiag =  /* Tensor Extra Diag (line 1&2) non 0 */
(PID.TID 0000.0001)                   F
(PID.TID 0000.0001)     ;
(PID.TID 0000.0001) GM_isopycK =   /* Background Isopyc. Diffusivity ( m^2/s ) */
(PID.TID 0000.0001)                 1.000000000000000E+03
(PID.TID 0000.0001)     ;
(PID.TID 0000.0001)  GM_skewflx*K =   /* Background GM_SkewFlx Diffusivity ( m^2/s ) */
(PID.TID 0000.0001)                 1.000000000000000E+03
(PID.TID 0000.0001)     ;
(PID.TID 0000.0001)  GM_advec*K =   /* Backg. GM-Advec(=Bolus) Diffusivity ( m^2/s ) */
(PID.TID 0000.0001)                 0.000000000000000E+00
(PID.TID 0000.0001)     ;
(PID.TID 0000.0001)  GM_Visbeck_alpha =   /* Visbeck alpha coeff. ( ) */
(PID.TID 0000.0001)                 0.000000000000000E+00
(PID.TID 0000.0001)     ;
(PID.TID 0000.0001)  Tapering/Cliping : dm95
(PID.TID 0000.0001)  GM_Small_Number =  /* epsilon used in slope calc */
(PID.TID 0000.0001)                 9.999999999999999E-21
(PID.TID 0000.0001)     ;
(PID.TID 0000.0001)  GM_slopeSqCutoff =  /* Slope^2 cut-off value */
(PID.TID 0000.0001)                 1.000000000000000E+08
(PID.TID 0000.0001)     ;
(PID.TID 0000.0001) SEAICE_CHECK: #define ALLOW_SEAICE
(PID.TID 0000.0001) CTRL_CHECK: ctrl package
(PID.TID 0000.0001) COST_CHECK: cost package
(PID.TID 0000.0001) CTRL_CHECK: ctrl package
(PID.TID 0000.0001) %MON fCori_max                    =   1.4210453727344E-04
(PID.TID 0000.0001) %MON fCori_min                    =   1.0666243053630E-04
(PID.TID 0000.0001) %MON fCori_mean                   =   1.2711058365303E-04
(PID.TID 0000.0001) %MON fCori_sd                     =   1.1031533875266E-05
(PID.TID 0000.0001) %MON fCoriG_max                   =   1.4151032568025E-04
(PID.TID 0000.0001) %MON fCoriG_min                   =   1.0491029349513E-04
(PID.TID 0000.0001) %MON fCoriG_mean                  =   1.2591168756569E-04
(PID.TID 0000.0001) %MON fCoriG_sd                    =   1.1383815633153E-05
(PID.TID 0000.0001) %MON fCoriCos_max                 =   9.9464325599212E-05
(PID.TID 0000.0001) %MON fCoriCos_min                 =   3.2807417471054E-05
(PID.TID 0000.0001) %MON fCoriCos_mean                =   6.7585896192312E-05
(PID.TID 0000.0001) %MON fCoriCos_sd                  =   2.0576140902612E-05
(PID.TID 0000.0001) INI_CG2D: CG2D normalisation factor =  1.6094939840939192E-04
(PID.TID 0000.0001) 
(PID.TID 0000.0001) CONFIG_CHECK: OK
(PID.TID 0000.0001) // =======================================================
(PID.TID 0000.0001) // Model configuration
(PID.TID 0000.0001) // =======================================================
(PID.TID 0000.0001) //
(PID.TID 0000.0001) // "Physical" paramters ( PARM01 in namelist )
(PID.TID 0000.0001) //
(PID.TID 0000.0001) buoyancyRelation = /* Type of relation to get Buoyancy */
(PID.TID 0000.0001)               'OCEANIC'
(PID.TID 0000.0001)     ;
(PID.TID 0000.0001) fluidIsAir  =  /* fluid major constituent is Air */
(PID.TID 0000.0001)                   F
(PID.TID 0000.0001)     ;
(PID.TID 0000.0001) fluidIsWater=  /* fluid major constituent is Water */
(PID.TID 0000.0001)                   T
(PID.TID 0000.0001)     ;
(PID.TID 0000.0001) usingPCoords =  /* use p (or p*) vertical coordinate */
(PID.TID 0000.0001)                   F
(PID.TID 0000.0001)     ;
(PID.TID 0000.0001) usingZCoords =  /* use z (or z*) vertical coordinate */
(PID.TID 0000.0001)                   T
(PID.TID 0000.0001)     ;
(PID.TID 0000.0001) tRef =   /* Reference temperature profile ( oC or K ) */
(PID.TID 0000.0001)                 2.400000000000000E+01,      /* K =  1 */
(PID.TID 0000.0001)                 2.300000000000000E+01,      /* K =  2 */
(PID.TID 0000.0001)                 2.200000000000000E+01,      /* K =  3 */
(PID.TID 0000.0001)                 2.100000000000000E+01,      /* K =  4 */
(PID.TID 0000.0001)                 2.000000000000000E+01,      /* K =  5 */
(PID.TID 0000.0001)                 1.900000000000000E+01,      /* K =  6 */
(PID.TID 0000.0001)                 1.800000000000000E+01,      /* K =  7 */
(PID.TID 0000.0001)                 1.700000000000000E+01,      /* K =  8 */
(PID.TID 0000.0001)                 1.600000000000000E+01,      /* K =  9 */
(PID.TID 0000.0001)                 1.500000000000000E+01,      /* K = 10 */
(PID.TID 0000.0001)                 1.400000000000000E+01,      /* K = 11 */
(PID.TID 0000.0001)                 1.300000000000000E+01,      /* K = 12 */
(PID.TID 0000.0001)                 1.200000000000000E+01,      /* K = 13 */
(PID.TID 0000.0001)                 1.100000000000000E+01,      /* K = 14 */
(PID.TID 0000.0001)                 1.000000000000000E+01,      /* K = 15 */
(PID.TID 0000.0001)                 9.000000000000000E+00,      /* K = 16 */
(PID.TID 0000.0001)                 8.000000000000000E+00,      /* K = 17 */
(PID.TID 0000.0001)                 7.000000000000000E+00,      /* K = 18 */
(PID.TID 0000.0001)                 6.000000000000000E+00,      /* K = 19 */
(PID.TID 0000.0001)                 5.000000000000000E+00,      /* K = 20 */
(PID.TID 0000.0001)                 4.000000000000000E+00,      /* K = 21 */
(PID.TID 0000.0001)                 3.000000000000000E+00,      /* K = 22 */
(PID.TID 0000.0001)                 2.000000000000000E+00       /* K = 23 */
(PID.TID 0000.0001)     ;
(PID.TID 0000.0001) sRef =   /* Reference salinity profile ( psu ) */
(PID.TID 0000.0001)                 3.465000000000000E+01,      /* K =  1 */
(PID.TID 0000.0001)                 3.475000000000000E+01,      /* K =  2 */
(PID.TID 0000.0001)                 3.482000000000000E+01,      /* K =  3 */
(PID.TID 0000.0001)                 3.487000000000000E+01,      /* K =  4 */
(PID.TID 0000.0001)     2 @  3.490000000000000E+01,             /* K =  5:  6 */
(PID.TID 0000.0001)                 3.486000000000000E+01,      /* K =  7 */
(PID.TID 0000.0001)                 3.478000000000000E+01,      /* K =  8 */
(PID.TID 0000.0001)                 3.469000000000000E+01,      /* K =  9 */
(PID.TID 0000.0001)                 3.460000000000000E+01,      /* K = 10 */
(PID.TID 0000.0001)                 3.458000000000000E+01,      /* K = 11 */
(PID.TID 0000.0001)                 3.462000000000000E+01,      /* K = 12 */
(PID.TID 0000.0001)                 3.468000000000000E+01,      /* K = 13 */
(PID.TID 0000.0001)                 3.472000000000000E+01,      /* K = 14 */
(PID.TID 0000.0001)                 3.473000000000000E+01,      /* K = 15 */
(PID.TID 0000.0001)                 3.474000000000000E+01,      /* K = 16 */
(PID.TID 0000.0001)     2 @  3.473000000000000E+01,             /* K = 17: 18 */
(PID.TID 0000.0001)     2 @  3.472000000000000E+01,             /* K = 19: 20 */
(PID.TID 0000.0001)                 3.471000000000000E+01,      /* K = 21 */
(PID.TID 0000.0001)                 3.470000000000000E+01,      /* K = 22 */
(PID.TID 0000.0001)                 3.469000000000000E+01       /* K = 23 */
(PID.TID 0000.0001)     ;
(PID.TID 0000.0001) viscAh =   /* Lateral eddy viscosity ( m^2/s ) */
(PID.TID 0000.0001)                 5.000000000000000E+04
(PID.TID 0000.0001)     ;
(PID.TID 0000.0001) viscAhMax =   /* Maximum lateral eddy viscosity ( m^2/s ) */
(PID.TID 0000.0001)                 1.000000000000000E+21
(PID.TID 0000.0001)     ;
(PID.TID 0000.0001) viscAhGrid =   /* Grid dependent lateral eddy viscosity ( non-dim. ) */
(PID.TID 0000.0001)                 0.000000000000000E+00
(PID.TID 0000.0001)     ;
(PID.TID 0000.0001) useFullLeith =   /* Use Full Form of Leith Viscosity on/off flag*/
(PID.TID 0000.0001)                   F
(PID.TID 0000.0001)     ;
(PID.TID 0000.0001) useStrainTensionVisc =   /* Use StrainTension Form of Viscous Operator on/off flag*/
(PID.TID 0000.0001)                   F
(PID.TID 0000.0001)     ;
(PID.TID 0000.0001) useAreaViscLength =   /* Use area for visc length instead of geom. mean*/
(PID.TID 0000.0001)                   F
(PID.TID 0000.0001)     ;
(PID.TID 0000.0001) viscC2leith = /* Leith harmonic visc. factor (on grad(vort),non-dim.) */
(PID.TID 0000.0001)                 0.000000000000000E+00
(PID.TID 0000.0001)     ;
(PID.TID 0000.0001) viscC2leithD = /* Leith harmonic viscosity factor (on grad(div),non-dim.) */
(PID.TID 0000.0001)                 0.000000000000000E+00
(PID.TID 0000.0001)     ;
(PID.TID 0000.0001) viscC2smag =   /* Smagorinsky harmonic viscosity factor (non-dim.) */
(PID.TID 0000.0001)                 0.000000000000000E+00
(PID.TID 0000.0001)     ;
(PID.TID 0000.0001) viscA4 =   /* Lateral biharmonic viscosity ( m^4/s ) */
(PID.TID 0000.0001)                 0.000000000000000E+00
(PID.TID 0000.0001)     ;
(PID.TID 0000.0001) viscA4Max =   /* Maximum biharmonic viscosity ( m^2/s ) */
(PID.TID 0000.0001)                 1.000000000000000E+21
(PID.TID 0000.0001)     ;
(PID.TID 0000.0001) viscA4Grid =   /* Grid dependent biharmonic viscosity ( non-dim. ) */
(PID.TID 0000.0001)                 0.000000000000000E+00
(PID.TID 0000.0001)     ;
(PID.TID 0000.0001) viscC4leith = /* Leith biharm viscosity factor (on grad(vort), non-dim.) */
(PID.TID 0000.0001)                 0.000000000000000E+00
(PID.TID 0000.0001)     ;
(PID.TID 0000.0001) viscC4leithD = /* Leith biharm viscosity factor (on grad(div), non-dim.) */
(PID.TID 0000.0001)                 0.000000000000000E+00
(PID.TID 0000.0001)     ;
(PID.TID 0000.0001) viscC4Smag = /* Smagorinsky biharm viscosity factor (non-dim) */
(PID.TID 0000.0001)                 0.000000000000000E+00
(PID.TID 0000.0001)     ;
(PID.TID 0000.0001) no_slip_sides =  /* Viscous BCs: No-slip sides */
(PID.TID 0000.0001)                   F
(PID.TID 0000.0001)     ;
(PID.TID 0000.0001) sideDragFactor = /* side-drag scaling factor (non-dim) */
(PID.TID 0000.0001)                 2.000000000000000E+00
(PID.TID 0000.0001)     ;
(PID.TID 0000.0001) viscAr =   /* Vertical eddy viscosity ( units of r^2/s ) */
(PID.TID 0000.0001)                 1.930000000000000E-05
(PID.TID 0000.0001)     ;
(PID.TID 0000.0001) no_slip_bottom =  /* Viscous BCs: No-slip bottom */
(PID.TID 0000.0001)                   T
(PID.TID 0000.0001)     ;
(PID.TID 0000.0001) bottomDragLinear = /* linear bottom-drag coefficient ( 1/s ) */
(PID.TID 0000.0001)                 0.000000000000000E+00
(PID.TID 0000.0001)     ;
(PID.TID 0000.0001) bottomDragQuadratic = /* quadratic bottom-drag coeff. ( 1/m ) */
(PID.TID 0000.0001)                 0.000000000000000E+00
(PID.TID 0000.0001)     ;
(PID.TID 0000.0001) diffKhT =   /* Laplacian diffusion of heat laterally ( m^2/s ) */
(PID.TID 0000.0001)                 0.000000000000000E+00
(PID.TID 0000.0001)     ;
(PID.TID 0000.0001) diffK4T =   /* Bihaarmonic diffusion of heat laterally ( m^4/s ) */
(PID.TID 0000.0001)                 0.000000000000000E+00
(PID.TID 0000.0001)     ;
(PID.TID 0000.0001) diffKhS =   /* Laplacian diffusion of salt laterally ( m^2/s ) */
(PID.TID 0000.0001)                 0.000000000000000E+00
(PID.TID 0000.0001)     ;
(PID.TID 0000.0001) diffK4S =   /* Bihaarmonic diffusion of salt laterally ( m^4/s ) */
(PID.TID 0000.0001)                 0.000000000000000E+00
(PID.TID 0000.0001)     ;
(PID.TID 0000.0001) diffKrNrT = /* vertical profile of vertical diffusion of Temp ( m^2/s )*/
(PID.TID 0000.0001)    23 @  1.460000000000000E-05              /* K =  1: 23 */
(PID.TID 0000.0001)     ;
(PID.TID 0000.0001) diffKrNrS = /* vertical profile of vertical diffusion of Salt ( m^2/s )*/
(PID.TID 0000.0001)    23 @  1.460000000000000E-05              /* K =  1: 23 */
(PID.TID 0000.0001)     ;
(PID.TID 0000.0001) diffKrBL79surf =   /* Surface diffusion for Bryan and Lewis 1979 ( m^2/s ) */
(PID.TID 0000.0001)                 0.000000000000000E+00
(PID.TID 0000.0001)     ;
(PID.TID 0000.0001) diffKrBL79deep =   /* Deep diffusion for Bryan and Lewis 1979 ( m^2/s ) */
(PID.TID 0000.0001)                 0.000000000000000E+00
(PID.TID 0000.0001)     ;
(PID.TID 0000.0001) diffKrBL79scl =   /* Depth scale for Bryan and Lewis 1979 ( m ) */
(PID.TID 0000.0001)                 2.000000000000000E+02
(PID.TID 0000.0001)     ;
(PID.TID 0000.0001) diffKrBL79Ho =   /* Turning depth for Bryan and Lewis 1979 ( m ) */
(PID.TID 0000.0001)                -2.000000000000000E+03
(PID.TID 0000.0001)     ;
(PID.TID 0000.0001) ivdc_kappa = /* Implicit Vertical Diffusivity for Convection ( m^2/s ) */
(PID.TID 0000.0001)                 0.000000000000000E+00
(PID.TID 0000.0001)     ;
(PID.TID 0000.0001) hMixCriteria=  /* Criteria for mixed-layer diagnostic */
(PID.TID 0000.0001)                -8.000000000000000E-01
(PID.TID 0000.0001)     ;
(PID.TID 0000.0001) eosType =  /* Type of Equation of State */
(PID.TID 0000.0001)               'JMD95Z'
(PID.TID 0000.0001)     ;
(PID.TID 0000.0001) tAlpha =   /* Linear EOS thermal expansion coefficient ( 1/oC ) */
(PID.TID 0000.0001)                 2.000000000000000E-04
(PID.TID 0000.0001)     ;
(PID.TID 0000.0001) sBeta =   /* Linear EOS haline contraction coefficient ( 1/psu ) */
(PID.TID 0000.0001)                 7.400000000000000E-04
(PID.TID 0000.0001)     ;
(PID.TID 0000.0001) rhonil =   /* Reference density ( kg/m^3 ) */
(PID.TID 0000.0001)                 1.027000000000000E+03
(PID.TID 0000.0001)     ;
(PID.TID 0000.0001) rhoConst =   /* Reference density ( kg/m^3 ) */
(PID.TID 0000.0001)                 1.027000000000000E+03
(PID.TID 0000.0001)     ;
(PID.TID 0000.0001) rhoFacC = /* normalized Reference density @ cell-Center (-) */
(PID.TID 0000.0001)    23 @  1.000000000000000E+00              /* K =  1: 23 */
(PID.TID 0000.0001)     ;
(PID.TID 0000.0001) rhoFacF = /* normalized Reference density @ W-Interface (-) */
(PID.TID 0000.0001)    24 @  1.000000000000000E+00              /* K =  1: 24 */
(PID.TID 0000.0001)     ;
(PID.TID 0000.0001) rhoConstFresh =   /* Reference density ( kg/m^3 ) */
(PID.TID 0000.0001)                 1.027000000000000E+03
(PID.TID 0000.0001)     ;
(PID.TID 0000.0001) gravity =   /* Gravitational acceleration ( m/s^2 ) */
(PID.TID 0000.0001)                 9.815600000000000E+00
(PID.TID 0000.0001)     ;
(PID.TID 0000.0001) gBaro =   /* Barotropic gravity ( m/s^2 ) */
(PID.TID 0000.0001)                 9.815600000000000E+00
(PID.TID 0000.0001)     ;
(PID.TID 0000.0001) rotationPeriod =   /* Rotation Period ( s ) */
(PID.TID 0000.0001)                 8.616400000000000E+04
(PID.TID 0000.0001)     ;
(PID.TID 0000.0001) omega =   /* Angular velocity ( rad/s ) */
(PID.TID 0000.0001)                 7.292123516990375E-05
(PID.TID 0000.0001)     ;
(PID.TID 0000.0001) f0 =   /* Reference coriolis parameter ( 1/s ) */
(PID.TID 0000.0001)                 1.000000000000000E-04
(PID.TID 0000.0001)     ;
(PID.TID 0000.0001) beta =   /* Beta ( 1/(m.s) ) */
(PID.TID 0000.0001)                 9.999999999999999E-12
(PID.TID 0000.0001)     ;
(PID.TID 0000.0001) freeSurfFac =   /* Implicit free surface factor */
(PID.TID 0000.0001)                 1.000000000000000E+00
(PID.TID 0000.0001)     ;
(PID.TID 0000.0001) implicitFreeSurface =   /* Implicit free surface on/off flag */
(PID.TID 0000.0001)                   T
(PID.TID 0000.0001)     ;
(PID.TID 0000.0001) rigidLid =   /* Rigid lid on/off flag */
(PID.TID 0000.0001)                   F
(PID.TID 0000.0001)     ;
(PID.TID 0000.0001) implicSurfPress =   /* Surface Pressure implicit factor (0-1)*/
(PID.TID 0000.0001)                 1.000000000000000E+00
(PID.TID 0000.0001)     ;
(PID.TID 0000.0001) implicDiv2Dflow =   /* Barot. Flow Div. implicit factor (0-1)*/
(PID.TID 0000.0001)                 1.000000000000000E+00
(PID.TID 0000.0001)     ;
(PID.TID 0000.0001) exactConserv =   /* Exact Volume Conservation on/off flag*/
(PID.TID 0000.0001)                   F
(PID.TID 0000.0001)     ;
(PID.TID 0000.0001) linFSConserveTr =   /* Tracer correction for Lin Free Surface on/off flag*/
(PID.TID 0000.0001)                   F
(PID.TID 0000.0001)     ;
(PID.TID 0000.0001) uniformLin_PhiSurf =   /* use uniform Bo_surf on/off flag*/
(PID.TID 0000.0001)                   T
(PID.TID 0000.0001)     ;
(PID.TID 0000.0001) nonlinFreeSurf =   /* Non-linear Free Surf. options (-1,0,1,2,3)*/
(PID.TID 0000.0001)                       0
(PID.TID 0000.0001)     ;
(PID.TID 0000.0001)      -1,0= Off ; 1,2,3= On, 2=+rescale gU,gV, 3=+update cg2d solv.
(PID.TID 0000.0001) hFacInf =   /* lower threshold for hFac (nonlinFreeSurf only)*/
(PID.TID 0000.0001)                 2.000000000000000E-01
(PID.TID 0000.0001)     ;
(PID.TID 0000.0001) hFacSup =   /* upper threshold for hFac (nonlinFreeSurf only)*/
(PID.TID 0000.0001)                 2.000000000000000E+00
(PID.TID 0000.0001)     ;
(PID.TID 0000.0001) select_rStar =   /* r* Coordinate options (not yet implemented)*/
(PID.TID 0000.0001)                       0
(PID.TID 0000.0001)     ;
(PID.TID 0000.0001) useRealFreshWaterFlux =   /* Real Fresh Water Flux on/off flag*/
(PID.TID 0000.0001)                   F
(PID.TID 0000.0001)     ;
(PID.TID 0000.0001) convertFW2Salt = /* convert F.W. Flux to Salt Flux (-1=use local S)(ppt)*/
(PID.TID 0000.0001)                 3.500000000000000E+01
(PID.TID 0000.0001)     ;
(PID.TID 0000.0001) use3Dsolver = /* use 3-D pressure solver on/off flag */
(PID.TID 0000.0001)                   F
(PID.TID 0000.0001)     ;
(PID.TID 0000.0001) nonHydrostatic =  /* Non-Hydrostatic on/off flag */
(PID.TID 0000.0001)                   F
(PID.TID 0000.0001)     ;
(PID.TID 0000.0001) nh_Am2 = /* Non-Hydrostatic terms scaling factor */
(PID.TID 0000.0001)                 1.000000000000000E+00
(PID.TID 0000.0001)     ;
(PID.TID 0000.0001) quasiHydrostatic = /* Quasi-Hydrostatic on/off flag */
(PID.TID 0000.0001)                   F
(PID.TID 0000.0001)     ;
(PID.TID 0000.0001) momStepping =  /* Momentum equation on/off flag */
(PID.TID 0000.0001)                   T
(PID.TID 0000.0001)     ;
(PID.TID 0000.0001) vectorInvariantMomentum= /* Vector-Invariant Momentum on/off */
(PID.TID 0000.0001)                   F
(PID.TID 0000.0001)     ;
(PID.TID 0000.0001) momAdvection =  /* Momentum advection on/off flag */
(PID.TID 0000.0001)                   T
(PID.TID 0000.0001)     ;
(PID.TID 0000.0001) momViscosity =  /* Momentum viscosity on/off flag */
(PID.TID 0000.0001)                   T
(PID.TID 0000.0001)     ;
(PID.TID 0000.0001) momImplVertAdv =/* Momentum implicit vert. advection on/off*/
(PID.TID 0000.0001)                   F
(PID.TID 0000.0001)     ;
(PID.TID 0000.0001) implicitViscosity = /* Implicit viscosity on/off flag */
(PID.TID 0000.0001)                   T
(PID.TID 0000.0001)     ;
(PID.TID 0000.0001) metricTerms =  /* metric-Terms on/off flag */
(PID.TID 0000.0001)                   T
(PID.TID 0000.0001)     ;
(PID.TID 0000.0001) useNHMTerms = /* Non-Hydrostatic Metric-Terms on/off */
(PID.TID 0000.0001)                   F
(PID.TID 0000.0001)     ;
(PID.TID 0000.0001) useConstantF =  /* use Constant f0 Coriolis flag */
(PID.TID 0000.0001)                   F
(PID.TID 0000.0001)     ;
(PID.TID 0000.0001) useBetaPlaneF = /* use Beta-Plane Coriolis flag */
(PID.TID 0000.0001)                   F
(PID.TID 0000.0001)     ;
(PID.TID 0000.0001) useSphereF  =   /* use Spherical Coriolis flag */
(PID.TID 0000.0001)                   T
(PID.TID 0000.0001)     ;
(PID.TID 0000.0001) use3dCoriolis = /* 3-D Coriolis on/off flag */
(PID.TID 0000.0001)                   F
(PID.TID 0000.0001)     ;
(PID.TID 0000.0001) useCoriolis =  /* Coriolis on/off flag */
(PID.TID 0000.0001)                   T
(PID.TID 0000.0001)     ;
(PID.TID 0000.0001) useCDscheme =  /* CD scheme on/off flag */
(PID.TID 0000.0001)                   T
(PID.TID 0000.0001)     ;
(PID.TID 0000.0001) useJamartWetPoints= /* Coriolis WetPoints method flag */
(PID.TID 0000.0001)                   F
(PID.TID 0000.0001)     ;
(PID.TID 0000.0001) useJamartMomAdv= /* V.I. Non-linear terms Jamart flag */
(PID.TID 0000.0001)                   F
(PID.TID 0000.0001)     ;
(PID.TID 0000.0001) SadournyCoriolis= /* Sadourny Coriolis discr. flag */
(PID.TID 0000.0001)                   F
(PID.TID 0000.0001)     ;
(PID.TID 0000.0001) upwindVorticity= /* Upwind bias vorticity flag */
(PID.TID 0000.0001)                   F
(PID.TID 0000.0001)     ;
(PID.TID 0000.0001) useAbsVorticity= /* Work with f+zeta in Coriolis */
(PID.TID 0000.0001)                   F
(PID.TID 0000.0001)     ;
(PID.TID 0000.0001) highOrderVorticity= /* High order interp. of vort. flag */
(PID.TID 0000.0001)                   F
(PID.TID 0000.0001)     ;
(PID.TID 0000.0001) upwindShear= /* Upwind vertical Shear advection flag */
(PID.TID 0000.0001)                   F
(PID.TID 0000.0001)     ;
(PID.TID 0000.0001) selectKEscheme= /* Kinetic Energy scheme selector */
(PID.TID 0000.0001)                       0
(PID.TID 0000.0001)     ;
(PID.TID 0000.0001) momForcing =  /* Momentum forcing on/off flag */
(PID.TID 0000.0001)                   T
(PID.TID 0000.0001)     ;
(PID.TID 0000.0001) momPressureForcing =  /* Momentum pressure term on/off flag */
(PID.TID 0000.0001)                   T
(PID.TID 0000.0001)     ;
(PID.TID 0000.0001) implicitIntGravWave= /* Implicit Internal Gravity Wave flag */
(PID.TID 0000.0001)                   F
(PID.TID 0000.0001)     ;
(PID.TID 0000.0001) staggerTimeStep =   /* Stagger time stepping on/off flag */
(PID.TID 0000.0001)                   F
(PID.TID 0000.0001)     ;
(PID.TID 0000.0001) multiDimAdvection =   /* enable/disable Multi-Dim Advection */
(PID.TID 0000.0001)                   T
(PID.TID 0000.0001)     ;
(PID.TID 0000.0001) useMultiDimAdvec =   /* Multi-Dim Advection is/is-not used */
(PID.TID 0000.0001)                   F
(PID.TID 0000.0001)     ;
(PID.TID 0000.0001) implicitDiffusion =/* Implicit Diffusion on/off flag */
(PID.TID 0000.0001)                   T
(PID.TID 0000.0001)     ;
(PID.TID 0000.0001) tempStepping =  /* Temperature equation on/off flag */
(PID.TID 0000.0001)                   T
(PID.TID 0000.0001)     ;
(PID.TID 0000.0001) tempAdvection=  /* Temperature advection on/off flag */
(PID.TID 0000.0001)                   T
(PID.TID 0000.0001)     ;
(PID.TID 0000.0001) tempImplVertAdv =/* Temp. implicit vert. advection on/off */
(PID.TID 0000.0001)                   F
(PID.TID 0000.0001)     ;
(PID.TID 0000.0001) tempForcing  =  /* Temperature forcing on/off flag */
(PID.TID 0000.0001)                   T
(PID.TID 0000.0001)     ;
(PID.TID 0000.0001) saltStepping =  /* Salinity equation on/off flag */
(PID.TID 0000.0001)                   T
(PID.TID 0000.0001)     ;
(PID.TID 0000.0001) saltAdvection=  /* Salinity advection on/off flag */
(PID.TID 0000.0001)                   T
(PID.TID 0000.0001)     ;
(PID.TID 0000.0001) saltImplVertAdv =/* Sali. implicit vert. advection on/off */
(PID.TID 0000.0001)                   F
(PID.TID 0000.0001)     ;
(PID.TID 0000.0001) saltForcing  =  /* Salinity forcing on/off flag */
(PID.TID 0000.0001)                   T
(PID.TID 0000.0001)     ;
(PID.TID 0000.0001)  readBinaryPrec = /* Precision used for reading binary files */
(PID.TID 0000.0001)                      32
(PID.TID 0000.0001)     ;
(PID.TID 0000.0001) writeBinaryPrec = /* Precision used for writing binary files */
(PID.TID 0000.0001)                      32
(PID.TID 0000.0001)     ;
(PID.TID 0000.0001)  globalFiles = /* write "global" (=not per tile) files */
(PID.TID 0000.0001)                   F
(PID.TID 0000.0001)     ;
(PID.TID 0000.0001)  useSingleCpuIO = /* only master MPI process does I/O */
(PID.TID 0000.0001)                   F
(PID.TID 0000.0001)     ;
(PID.TID 0000.0001)  debugMode  =  /* Debug Mode on/off flag */
(PID.TID 0000.0001)                   F
(PID.TID 0000.0001)     ;
(PID.TID 0000.0001)    debLevA  =  /* 1rst level of debugging */
(PID.TID 0000.0001)                       1
(PID.TID 0000.0001)     ;
(PID.TID 0000.0001)    debLevB  =  /* 2nd  level of debugging */
(PID.TID 0000.0001)                       2
(PID.TID 0000.0001)     ;
(PID.TID 0000.0001)  debugLevel =  /* select debugging level */
(PID.TID 0000.0001)                       1
(PID.TID 0000.0001)     ;
(PID.TID 0000.0001) //
(PID.TID 0000.0001) // Elliptic solver(s) paramters ( PARM02 in namelist )
(PID.TID 0000.0001) //
(PID.TID 0000.0001) cg2dMaxIters =   /* Upper limit on 2d con. grad iterations  */
(PID.TID 0000.0001)                     500
(PID.TID 0000.0001)     ;
(PID.TID 0000.0001) cg2dChkResFreq =   /* 2d con. grad convergence test frequency */
(PID.TID 0000.0001)                       1
(PID.TID 0000.0001)     ;
(PID.TID 0000.0001) cg2dTargetResidual =   /* 2d con. grad target residual  */
(PID.TID 0000.0001)                 1.000000000000000E-08
(PID.TID 0000.0001)     ;
(PID.TID 0000.0001) cg2dTargetResWunit =   /* CG2d target residual [W units] */
(PID.TID 0000.0001)                -1.000000000000000E+00
(PID.TID 0000.0001)     ;
(PID.TID 0000.0001) cg2dPreCondFreq =   /* Freq. for updating cg2d preconditioner */
(PID.TID 0000.0001)                       1
(PID.TID 0000.0001)     ;
(PID.TID 0000.0001) //
(PID.TID 0000.0001) // Time stepping paramters ( PARM03 in namelist )
(PID.TID 0000.0001) //
(PID.TID 0000.0001) nIter0 =   /* Run starting timestep number  */
(PID.TID 0000.0001)                       0
(PID.TID 0000.0001)     ;
(PID.TID 0000.0001) nTimeSteps =   /* Number of timesteps */
(PID.TID 0000.0001)                      10
(PID.TID 0000.0001)     ;
(PID.TID 0000.0001) deltaTmom =   /* Momentum equation timestep ( s ) */
(PID.TID 0000.0001)                 3.600000000000000E+03
(PID.TID 0000.0001)     ;
(PID.TID 0000.0001) deltaTfreesurf =   /* FreeSurface equation timestep ( s ) */
(PID.TID 0000.0001)                 3.600000000000000E+03
(PID.TID 0000.0001)     ;
(PID.TID 0000.0001) dTtracerLev =   /* Tracer equation timestep ( s ) */
(PID.TID 0000.0001)    23 @  3.600000000000000E+03              /* K =  1: 23 */
(PID.TID 0000.0001)     ;
(PID.TID 0000.0001) deltaTClock  =   /* Model clock timestep ( s ) */
(PID.TID 0000.0001)                 3.600000000000000E+03
(PID.TID 0000.0001)     ;
(PID.TID 0000.0001) cAdjFreq =   /* Convective adjustment interval ( s ) */
(PID.TID 0000.0001)                 0.000000000000000E+00
(PID.TID 0000.0001)     ;
(PID.TID 0000.0001) momForcingOutAB = /* =1: take Momentum Forcing out of Adams-Bash. stepping */
(PID.TID 0000.0001)                       0
(PID.TID 0000.0001)     ;
(PID.TID 0000.0001) tracForcingOutAB = /* =1: take T,S,pTr Forcing out of Adams-Bash. stepping */
(PID.TID 0000.0001)                       1
(PID.TID 0000.0001)     ;
(PID.TID 0000.0001) momDissip_In_AB = /* put Dissipation Tendency in Adams-Bash. stepping */
(PID.TID 0000.0001)                   T
(PID.TID 0000.0001)     ;
(PID.TID 0000.0001) doAB_onGtGs = /* apply AB on Tendencies (rather than on T,S)*/
(PID.TID 0000.0001)                   T
(PID.TID 0000.0001)     ;
(PID.TID 0000.0001) abEps =   /* Adams-Bashforth-2 stabilizing weight */
(PID.TID 0000.0001)                 1.000000000000000E-01
(PID.TID 0000.0001)     ;
(PID.TID 0000.0001) tauCD =   /* CD coupling time-scale ( s ) */
(PID.TID 0000.0001)                 1.728000000000000E+05
(PID.TID 0000.0001)     ;
(PID.TID 0000.0001) rCD =   /* Normalised CD coupling parameter */
(PID.TID 0000.0001)                 9.791666666666666E-01
(PID.TID 0000.0001)     ;
(PID.TID 0000.0001) baseTime =   /* Model base time ( s ). */
(PID.TID 0000.0001)                 0.000000000000000E+00
(PID.TID 0000.0001)     ;
(PID.TID 0000.0001) startTime =   /* Run start time ( s ). */
(PID.TID 0000.0001)                 0.000000000000000E+00
(PID.TID 0000.0001)     ;
(PID.TID 0000.0001) endTime =   /* Integration ending time ( s ). */
(PID.TID 0000.0001)                 3.600000000000000E+04
(PID.TID 0000.0001)     ;
(PID.TID 0000.0001) pChkPtFreq =   /* Permanent restart/checkpoint file interval ( s ). */
(PID.TID 0000.0001)                 3.600000000000000E+04
(PID.TID 0000.0001)     ;
(PID.TID 0000.0001) chkPtFreq =   /* Rolling restart/checkpoint file interval ( s ). */
(PID.TID 0000.0001)                 0.000000000000000E+00
(PID.TID 0000.0001)     ;
(PID.TID 0000.0001) pickup_write_mdsio =   /* Model IO flag. */
(PID.TID 0000.0001)                   T
(PID.TID 0000.0001)     ;
(PID.TID 0000.0001) pickup_read_mdsio =   /* Model IO flag. */
(PID.TID 0000.0001)                   F
(PID.TID 0000.0001)     ;
(PID.TID 0000.0001) pickup_write_mnc =   /* Model IO flag. */
(PID.TID 0000.0001)                   F
(PID.TID 0000.0001)     ;
(PID.TID 0000.0001) pickup_read_mnc =   /* Model IO flag. */
(PID.TID 0000.0001)                   T
(PID.TID 0000.0001)     ;
(PID.TID 0000.0001) pickup_write_immed =   /* Model IO flag. */
(PID.TID 0000.0001)                   F
(PID.TID 0000.0001)     ;
(PID.TID 0000.0001) dumpFreq =   /* Model state write out interval ( s ). */
(PID.TID 0000.0001)                 0.000000000000000E+00
(PID.TID 0000.0001)     ;
(PID.TID 0000.0001) dumpInitAndLast= /* write out Initial & Last iter. model state */
(PID.TID 0000.0001)                   T
(PID.TID 0000.0001)     ;
(PID.TID 0000.0001) snapshot_mdsio =   /* Model IO flag. */
(PID.TID 0000.0001)                   F
(PID.TID 0000.0001)     ;
(PID.TID 0000.0001) snapshot_mnc =   /* Model IO flag. */
(PID.TID 0000.0001)                   T
(PID.TID 0000.0001)     ;
(PID.TID 0000.0001) monitorFreq =   /* Monitor output interval ( s ). */
(PID.TID 0000.0001)                 1.000000000000000E+00
(PID.TID 0000.0001)     ;
(PID.TID 0000.0001) monitor_stdio =   /* Model IO flag. */
(PID.TID 0000.0001)                   T
(PID.TID 0000.0001)     ;
(PID.TID 0000.0001) monitor_mnc =   /* Model IO flag. */
(PID.TID 0000.0001)                   F
(PID.TID 0000.0001)     ;
(PID.TID 0000.0001) externForcingPeriod =   /* forcing period (s) */
(PID.TID 0000.0001)                 0.000000000000000E+00
(PID.TID 0000.0001)     ;
(PID.TID 0000.0001) externForcingCycle =   /* period of the cyle (s). */
(PID.TID 0000.0001)                 0.000000000000000E+00
(PID.TID 0000.0001)     ;
(PID.TID 0000.0001) tauThetaClimRelax =   /* relaxation time scale (s) */
(PID.TID 0000.0001)                 0.000000000000000E+00
(PID.TID 0000.0001)     ;
(PID.TID 0000.0001) tauSaltClimRelax =   /* relaxation time scale (s) */
(PID.TID 0000.0001)                 4.142330000000000E+06
(PID.TID 0000.0001)     ;
(PID.TID 0000.0001) latBandClimRelax =   /* max. Lat. where relaxation */
(PID.TID 0000.0001)                 1.800000000000000E+02
(PID.TID 0000.0001)     ;
(PID.TID 0000.0001) //
(PID.TID 0000.0001) // Gridding paramters ( PARM04 in namelist )
(PID.TID 0000.0001) //
(PID.TID 0000.0001) usingCartesianGrid = /* Cartesian coordinates flag ( True/False ) */
(PID.TID 0000.0001)                   F
(PID.TID 0000.0001)     ;
(PID.TID 0000.0001) usingCylindricalGrid = /* Cylindrical coordinates flag ( True/False ) */
(PID.TID 0000.0001)                   F
(PID.TID 0000.0001)     ;
(PID.TID 0000.0001) usingSphericalPolarGrid = /* Spherical coordinates flag ( True/False ) */
(PID.TID 0000.0001)                   T
(PID.TID 0000.0001)     ;
(PID.TID 0000.0001) usingCurvilinearGrid = /* Curvilinear coordinates flag ( True/False ) */
(PID.TID 0000.0001)                   F
(PID.TID 0000.0001)     ;
(PID.TID 0000.0001) Ro_SeaLevel = /* r(1) ( units of r ) */
(PID.TID 0000.0001)                 0.000000000000000E+00
(PID.TID 0000.0001)     ;
(PID.TID 0000.0001) rkSign =   /* index orientation relative to vertical coordinate */
(PID.TID 0000.0001)                -1.000000000000000E+00
(PID.TID 0000.0001)     ;
(PID.TID 0000.0001) gravitySign = /* gravity orientation relative to vertical coordinate */
(PID.TID 0000.0001)                -1.000000000000000E+00
(PID.TID 0000.0001)     ;
(PID.TID 0000.0001) horiVertRatio =   /* Ratio on units : Horiz - Vertical */
(PID.TID 0000.0001)                 1.000000000000000E+00
(PID.TID 0000.0001)     ;
(PID.TID 0000.0001) drC =   /* C spacing ( units of r ) */
(PID.TID 0000.0001)                 5.000000000000000E+00,      /* K =  1 */
(PID.TID 0000.0001)                 1.000000000000000E+01,      /* K =  2 */
(PID.TID 0000.0001)                 1.250000000000000E+01,      /* K =  3 */
(PID.TID 0000.0001)                 1.750000000000000E+01,      /* K =  4 */
(PID.TID 0000.0001)                 2.000000000000000E+01,      /* K =  5 */
(PID.TID 0000.0001)                 2.250000000000000E+01,      /* K =  6 */
(PID.TID 0000.0001)                 3.000000000000000E+01,      /* K =  7 */
(PID.TID 0000.0001)                 4.250000000000000E+01,      /* K =  8 */
(PID.TID 0000.0001)                 6.250000000000000E+01,      /* K =  9 */
(PID.TID 0000.0001)                 8.750000000000000E+01,      /* K = 10 */
(PID.TID 0000.0001)                 1.250000000000000E+02,      /* K = 11 */
(PID.TID 0000.0001)                 1.750000000000000E+02,      /* K = 12 */
(PID.TID 0000.0001)                 2.375000000000000E+02,      /* K = 13 */
(PID.TID 0000.0001)                 3.125000000000000E+02,      /* K = 14 */
(PID.TID 0000.0001)                 3.825000000000000E+02,      /* K = 15 */
(PID.TID 0000.0001)                 4.325000000000000E+02,      /* K = 16 */
(PID.TID 0000.0001)                 4.750000000000000E+02,      /* K = 17 */
(PID.TID 0000.0001)     6 @  5.000000000000000E+02              /* K = 18: 23 */
(PID.TID 0000.0001)     ;
(PID.TID 0000.0001) drF =   /* W spacing ( units of r ) */
(PID.TID 0000.0001)     2 @  1.000000000000000E+01,             /* K =  1:  2 */
(PID.TID 0000.0001)                 1.500000000000000E+01,      /* K =  3 */
(PID.TID 0000.0001)     2 @  2.000000000000000E+01,             /* K =  4:  5 */
(PID.TID 0000.0001)                 2.500000000000000E+01,      /* K =  6 */
(PID.TID 0000.0001)                 3.500000000000000E+01,      /* K =  7 */
(PID.TID 0000.0001)                 5.000000000000000E+01,      /* K =  8 */
(PID.TID 0000.0001)                 7.500000000000000E+01,      /* K =  9 */
(PID.TID 0000.0001)                 1.000000000000000E+02,      /* K = 10 */
(PID.TID 0000.0001)                 1.500000000000000E+02,      /* K = 11 */
(PID.TID 0000.0001)                 2.000000000000000E+02,      /* K = 12 */
(PID.TID 0000.0001)                 2.750000000000000E+02,      /* K = 13 */
(PID.TID 0000.0001)                 3.500000000000000E+02,      /* K = 14 */
(PID.TID 0000.0001)                 4.150000000000000E+02,      /* K = 15 */
(PID.TID 0000.0001)                 4.500000000000000E+02,      /* K = 16 */
(PID.TID 0000.0001)     7 @  5.000000000000000E+02              /* K = 17: 23 */
(PID.TID 0000.0001)     ;
(PID.TID 0000.0001) delX =   /* U spacing ( m - cartesian, degrees - spherical ) */
(PID.TID 0000.0001)    20 @  2.000000000000000E+00              /* I =  1: 20 */
(PID.TID 0000.0001)     ;
(PID.TID 0000.0001) delY =   /* V spacing ( m - cartesian, degrees - spherical ) */
(PID.TID 0000.0001)    16 @  2.000000000000000E+00              /* J =  1: 16 */
(PID.TID 0000.0001)     ;
(PID.TID 0000.0001) phiMin =    /* South edge (ignored - cartesian, degrees - spherical ) */
(PID.TID 0000.0001)                 4.600000000000000E+01
(PID.TID 0000.0001)     ;
(PID.TID 0000.0001) thetaMin =    /* West edge ( ignored - cartesian, degrees - spherical ) */
(PID.TID 0000.0001)                 2.800000000000000E+02
(PID.TID 0000.0001)     ;
(PID.TID 0000.0001) rSphere =  /* Radius ( ignored - cartesian, m - spherical ) */
(PID.TID 0000.0001)                 6.371000000000000E+06
(PID.TID 0000.0001)     ;
(PID.TID 0000.0001) deepAtmosphere = /* Deep/Shallow Atmosphere flag (True/False) */
(PID.TID 0000.0001)                   F
(PID.TID 0000.0001)     ;
(PID.TID 0000.0001) xcoord =   /* P-point X coord ( m - cartesian, degrees - spherical ) */
(PID.TID 0000.0001)                 2.810000000000000E+02,      /* I =  1 */
(PID.TID 0000.0001)                 2.830000000000000E+02,      /* I =  2 */
(PID.TID 0000.0001)                 2.850000000000000E+02,      /* I =  3 */
(PID.TID 0000.0001)                 2.870000000000000E+02,      /* I =  4 */
(PID.TID 0000.0001)                 2.890000000000000E+02,      /* I =  5 */
(PID.TID 0000.0001)                 2.910000000000000E+02,      /* I =  6 */
(PID.TID 0000.0001)                 2.930000000000000E+02,      /* I =  7 */
(PID.TID 0000.0001)                 2.950000000000000E+02,      /* I =  8 */
(PID.TID 0000.0001)                 2.970000000000000E+02,      /* I =  9 */
(PID.TID 0000.0001)                 2.990000000000000E+02,      /* I = 10 */
(PID.TID 0000.0001)                 3.010000000000000E+02,      /* I = 11 */
(PID.TID 0000.0001)                 3.030000000000000E+02,      /* I = 12 */
(PID.TID 0000.0001)                 3.050000000000000E+02,      /* I = 13 */
(PID.TID 0000.0001)                 3.070000000000000E+02,      /* I = 14 */
(PID.TID 0000.0001)                 3.090000000000000E+02,      /* I = 15 */
(PID.TID 0000.0001)                 3.110000000000000E+02,      /* I = 16 */
(PID.TID 0000.0001)                 3.130000000000000E+02,      /* I = 17 */
(PID.TID 0000.0001)                 3.150000000000000E+02,      /* I = 18 */
(PID.TID 0000.0001)                 3.170000000000000E+02,      /* I = 19 */
(PID.TID 0000.0001)                 3.190000000000000E+02       /* I = 20 */
(PID.TID 0000.0001)     ;
(PID.TID 0000.0001) ycoord =   /* P-point Y coord ( m - cartesian, degrees - spherical ) */
(PID.TID 0000.0001)                 4.700000000000000E+01,      /* J =  1 */
(PID.TID 0000.0001)                 4.900000000000000E+01,      /* J =  2 */
(PID.TID 0000.0001)                 5.100000000000000E+01,      /* J =  3 */
(PID.TID 0000.0001)                 5.300000000000000E+01,      /* J =  4 */
(PID.TID 0000.0001)                 5.500000000000000E+01,      /* J =  5 */
(PID.TID 0000.0001)                 5.700000000000000E+01,      /* J =  6 */
(PID.TID 0000.0001)                 5.900000000000000E+01,      /* J =  7 */
(PID.TID 0000.0001)                 6.100000000000000E+01,      /* J =  8 */
(PID.TID 0000.0001)                 6.300000000000000E+01,      /* J =  9 */
(PID.TID 0000.0001)                 6.500000000000000E+01,      /* J = 10 */
(PID.TID 0000.0001)                 6.700000000000000E+01,      /* J = 11 */
(PID.TID 0000.0001)                 6.900000000000000E+01,      /* J = 12 */
(PID.TID 0000.0001)                 7.100000000000000E+01,      /* J = 13 */
(PID.TID 0000.0001)                 7.300000000000000E+01,      /* J = 14 */
(PID.TID 0000.0001)                 7.500000000000000E+01,      /* J = 15 */
(PID.TID 0000.0001)                 7.700000000000000E+01       /* J = 16 */
(PID.TID 0000.0001)     ;
(PID.TID 0000.0001) rcoord =   /* P-point R coordinate (  units of r ) */
(PID.TID 0000.0001)                -5.000000000000000E+00,      /* K =  1 */
(PID.TID 0000.0001)                -1.500000000000000E+01,      /* K =  2 */
(PID.TID 0000.0001)                -2.750000000000000E+01,      /* K =  3 */
(PID.TID 0000.0001)                -4.500000000000000E+01,      /* K =  4 */
(PID.TID 0000.0001)                -6.500000000000000E+01,      /* K =  5 */
(PID.TID 0000.0001)                -8.750000000000000E+01,      /* K =  6 */
(PID.TID 0000.0001)                -1.175000000000000E+02,      /* K =  7 */
(PID.TID 0000.0001)                -1.600000000000000E+02,      /* K =  8 */
(PID.TID 0000.0001)                -2.225000000000000E+02,      /* K =  9 */
(PID.TID 0000.0001)                -3.100000000000000E+02,      /* K = 10 */
(PID.TID 0000.0001)                -4.350000000000000E+02,      /* K = 11 */
(PID.TID 0000.0001)                -6.100000000000000E+02,      /* K = 12 */
(PID.TID 0000.0001)                -8.475000000000000E+02,      /* K = 13 */
(PID.TID 0000.0001)                -1.160000000000000E+03,      /* K = 14 */
(PID.TID 0000.0001)                -1.542500000000000E+03,      /* K = 15 */
(PID.TID 0000.0001)                -1.975000000000000E+03,      /* K = 16 */
(PID.TID 0000.0001)                -2.450000000000000E+03,      /* K = 17 */
(PID.TID 0000.0001)                -2.950000000000000E+03,      /* K = 18 */
(PID.TID 0000.0001)                -3.450000000000000E+03,      /* K = 19 */
(PID.TID 0000.0001)                -3.950000000000000E+03,      /* K = 20 */
(PID.TID 0000.0001)                -4.450000000000000E+03,      /* K = 21 */
(PID.TID 0000.0001)                -4.950000000000000E+03,      /* K = 22 */
(PID.TID 0000.0001)                -5.450000000000000E+03       /* K = 23 */
(PID.TID 0000.0001)     ;
(PID.TID 0000.0001) rF =   /* W-Interf. R coordinate (  units of r ) */
(PID.TID 0000.0001)                 0.000000000000000E+00,      /* K =  1 */
(PID.TID 0000.0001)                -1.000000000000000E+01,      /* K =  2 */
(PID.TID 0000.0001)                -2.000000000000000E+01,      /* K =  3 */
(PID.TID 0000.0001)                -3.500000000000000E+01,      /* K =  4 */
(PID.TID 0000.0001)                -5.500000000000000E+01,      /* K =  5 */
(PID.TID 0000.0001)                -7.500000000000000E+01,      /* K =  6 */
(PID.TID 0000.0001)                -1.000000000000000E+02,      /* K =  7 */
(PID.TID 0000.0001)                -1.350000000000000E+02,      /* K =  8 */
(PID.TID 0000.0001)                -1.850000000000000E+02,      /* K =  9 */
(PID.TID 0000.0001)                -2.600000000000000E+02,      /* K = 10 */
(PID.TID 0000.0001)                -3.600000000000000E+02,      /* K = 11 */
(PID.TID 0000.0001)                -5.100000000000000E+02,      /* K = 12 */
(PID.TID 0000.0001)                -7.100000000000000E+02,      /* K = 13 */
(PID.TID 0000.0001)                -9.850000000000000E+02,      /* K = 14 */
(PID.TID 0000.0001)                -1.335000000000000E+03,      /* K = 15 */
(PID.TID 0000.0001)                -1.750000000000000E+03,      /* K = 16 */
(PID.TID 0000.0001)                -2.200000000000000E+03,      /* K = 17 */
(PID.TID 0000.0001)                -2.700000000000000E+03,      /* K = 18 */
(PID.TID 0000.0001)                -3.200000000000000E+03,      /* K = 19 */
(PID.TID 0000.0001)                -3.700000000000000E+03,      /* K = 20 */
(PID.TID 0000.0001)                -4.200000000000000E+03,      /* K = 21 */
(PID.TID 0000.0001)                -4.700000000000000E+03,      /* K = 22 */
(PID.TID 0000.0001)                -5.200000000000000E+03,      /* K = 23 */
(PID.TID 0000.0001)                -5.700000000000000E+03       /* K = 24 */
(PID.TID 0000.0001)     ;
(PID.TID 0000.0001) deepFacC = /* deep-model grid factor @ cell-Center (-) */
(PID.TID 0000.0001)    23 @  1.000000000000000E+00              /* K =  1: 23 */
(PID.TID 0000.0001)     ;
(PID.TID 0000.0001) deepFacF = /* deep-model grid factor @ W-Interface (-) */
(PID.TID 0000.0001)    24 @  1.000000000000000E+00              /* K =  1: 24 */
(PID.TID 0000.0001)     ;
(PID.TID 0000.0001) rVel2wUnit = /* convert units: rVel -> wSpeed (=1 if z-coord)*/
(PID.TID 0000.0001)    24 @  1.000000000000000E+00              /* K =  1: 24 */
(PID.TID 0000.0001)     ;
(PID.TID 0000.0001) wUnit2rVel = /* convert units: wSpeed -> rVel (=1 if z-coord)*/
(PID.TID 0000.0001)    24 @  1.000000000000000E+00              /* K =  1: 24 */
(PID.TID 0000.0001)     ;
(PID.TID 0000.0001) dBdrRef = /* Vertical gradient of reference boyancy [(m/s/r)^2)] */
(PID.TID 0000.0001)                 0.000000000000000E+00,      /* K =  1 */
(PID.TID 0000.0001)                 3.513461801096672E-04,      /* K =  2 */
(PID.TID 0000.0001)                 2.578462793867026E-04,      /* K =  3 */
(PID.TID 0000.0001)                 1.716535447918954E-04,      /* K =  4 */
(PID.TID 0000.0001)                 1.391849606744939E-04,      /* K =  5 */
(PID.TID 0000.0001)                 1.106038973987551E-04,      /* K =  6 */
(PID.TID 0000.0001)                 7.062448315028799E-05,      /* K =  7 */
(PID.TID 0000.0001)                 4.112152780686669E-05,      /* K =  8 */
(PID.TID 0000.0001)                 2.554455911799560E-05,      /* K =  9 */
(PID.TID 0000.0001)                 1.739274227427603E-05,      /* K = 10 */
(PID.TID 0000.0001)                 1.573008010125636E-05,      /* K = 11 */
(PID.TID 0000.0001)                 1.341763357458043E-05,      /* K = 12 */
(PID.TID 0000.0001)                 1.029886793911016E-05,      /* K = 13 */
(PID.TID 0000.0001)                 7.244777660794312E-06,      /* K = 14 */
(PID.TID 0000.0001)                 5.291061202791868E-06,      /* K = 15 */
(PID.TID 0000.0001)                 4.668992652371521E-06,      /* K = 16 */
(PID.TID 0000.0001)                 3.952349989520169E-06,      /* K = 17 */
(PID.TID 0000.0001)                 3.937600045035830E-06,      /* K = 18 */
(PID.TID 0000.0001)                 3.833348475309353E-06,      /* K = 19 */
(PID.TID 0000.0001)                 4.027570774400333E-06,      /* K = 20 */
(PID.TID 0000.0001)                 3.935806005392895E-06,      /* K = 21 */
(PID.TID 0000.0001)                 3.995673930141529E-06,      /* K = 22 */
(PID.TID 0000.0001)                 4.061338744769299E-06       /* K = 23 */
(PID.TID 0000.0001)     ;
(PID.TID 0000.0001) dxF =  /* dxF(:,1,:,1) ( units: m ) */
(PID.TID 0000.0001)    20 @  1.516695152377178E+05              /* I =  1: 20 */
(PID.TID 0000.0001)     ;
(PID.TID 0000.0001) dxF =  /* dxF(1,:,1,:) ( units: m ) */
(PID.TID 0000.0001)                 1.516695152377178E+05,      /* J =  1 */
(PID.TID 0000.0001)                 1.459008712061998E+05,      /* J =  2 */
(PID.TID 0000.0001)                 1.399544694374234E+05,      /* J =  3 */
(PID.TID 0000.0001)                 1.338375547059709E+05,      /* J =  4 */
(PID.TID 0000.0001)                 1.275575795302040E+05,      /* J =  5 */
(PID.TID 0000.0001)                 1.211221950925184E+05,      /* J =  6 */
(PID.TID 0000.0001)                 1.145392419175564E+05,      /* J =  7 */
(PID.TID 0000.0001)                 1.078167403197357E+05,      /* J =  8 */
(PID.TID 0000.0001)                 1.009628806317309E+05,      /* J =  9 */
(PID.TID 0000.0001)                 9.398601322581600E+04,      /* J = 10 */
(PID.TID 0000.0001)                 8.689463834022089E+04,      /* J = 11 */
(PID.TID 0000.0001)                 7.969739572290120E+04,      /* J = 12 */
(PID.TID 0000.0001)                 7.240305410533583E+04,      /* J = 13 */
(PID.TID 0000.0001)                 6.502050051917860E+04,      /* J = 14 */
(PID.TID 0000.0001)                 5.755872946877906E+04,      /* J = 15 */
(PID.TID 0000.0001)                 5.002683197276441E+04       /* J = 16 */
(PID.TID 0000.0001)     ;
(PID.TID 0000.0001) dyF =  /* dyF(:,1,:,1) ( units: m ) */
(PID.TID 0000.0001)    20 @  2.223898532891175E+05              /* I =  1: 20 */
(PID.TID 0000.0001)     ;
(PID.TID 0000.0001) dyF =  /* dyF(1,:,1,:) ( units: m ) */
(PID.TID 0000.0001)    16 @  2.223898532891175E+05              /* J =  1: 16 */
(PID.TID 0000.0001)     ;
(PID.TID 0000.0001) dxG =  /* dxG(:,1,:,1) ( units: m ) */
(PID.TID 0000.0001)    20 @  1.544849730924338E+05              /* I =  1: 20 */
(PID.TID 0000.0001)     ;
(PID.TID 0000.0001) dxG =  /* dxG(1,:,1,:) ( units: m ) */
(PID.TID 0000.0001)                 1.544849730924338E+05,      /* J =  1 */
(PID.TID 0000.0001)                 1.488078573794047E+05,      /* J =  2 */
(PID.TID 0000.0001)                 1.429494422142520E+05,      /* J =  3 */
(PID.TID 0000.0001)                 1.369168651734348E+05,      /* J =  4 */
(PID.TID 0000.0001)                 1.307174760228300E+05,      /* J =  5 */
(PID.TID 0000.0001)                 1.243588277631750E+05,      /* J =  6 */
(PID.TID 0000.0001)                 1.178486674278995E+05,      /* J =  7 */
(PID.TID 0000.0001)                 1.111949266445588E+05,      /* J =  8 */
(PID.TID 0000.0001)                 1.044057119713670E+05,      /* J =  9 */
(PID.TID 0000.0001)                 9.748929502060512E+04,      /* J = 10 */
(PID.TID 0000.0001)                 9.045410238093534E+04,      /* J = 11 */
(PID.TID 0000.0001)                 8.330870535090075E+04,      /* J = 12 */
(PID.TID 0000.0001)                 7.606180949611843E+04,      /* J = 13 */
(PID.TID 0000.0001)                 6.872224404288860E+04,      /* J = 14 */
(PID.TID 0000.0001)                 6.129895112114271E+04,      /* J = 15 */
(PID.TID 0000.0001)                 5.380097486983529E+04       /* J = 16 */
(PID.TID 0000.0001)     ;
(PID.TID 0000.0001) dyG =  /* dyG(:,1,:,1) ( units: m ) */
(PID.TID 0000.0001)    20 @  2.223898532891175E+05              /* I =  1: 20 */
(PID.TID 0000.0001)     ;
(PID.TID 0000.0001) dyG =  /* dyG(1,:,1,:) ( units: m ) */
(PID.TID 0000.0001)    16 @  2.223898532891175E+05              /* J =  1: 16 */
(PID.TID 0000.0001)     ;
(PID.TID 0000.0001) dxC =  /* dxC(:,1,:,1) ( units: m ) */
(PID.TID 0000.0001)    20 @  1.516695152377178E+05              /* I =  1: 20 */
(PID.TID 0000.0001)     ;
(PID.TID 0000.0001) dxC =  /* dxC(1,:,1,:) ( units: m ) */
(PID.TID 0000.0001)                 1.516695152377178E+05,      /* J =  1 */
(PID.TID 0000.0001)                 1.459008712061998E+05,      /* J =  2 */
(PID.TID 0000.0001)                 1.399544694374234E+05,      /* J =  3 */
(PID.TID 0000.0001)                 1.338375547059709E+05,      /* J =  4 */
(PID.TID 0000.0001)                 1.275575795302040E+05,      /* J =  5 */
(PID.TID 0000.0001)                 1.211221950925184E+05,      /* J =  6 */
(PID.TID 0000.0001)                 1.145392419175564E+05,      /* J =  7 */
(PID.TID 0000.0001)                 1.078167403197357E+05,      /* J =  8 */
(PID.TID 0000.0001)                 1.009628806317309E+05,      /* J =  9 */
(PID.TID 0000.0001)                 9.398601322581600E+04,      /* J = 10 */
(PID.TID 0000.0001)                 8.689463834022089E+04,      /* J = 11 */
(PID.TID 0000.0001)                 7.969739572290120E+04,      /* J = 12 */
(PID.TID 0000.0001)                 7.240305410533583E+04,      /* J = 13 */
(PID.TID 0000.0001)                 6.502050051917860E+04,      /* J = 14 */
(PID.TID 0000.0001)                 5.755872946877906E+04,      /* J = 15 */
(PID.TID 0000.0001)                 5.002683197276441E+04       /* J = 16 */
(PID.TID 0000.0001)     ;
(PID.TID 0000.0001) dyC =  /* dyC(:,1,:,1) ( units: m ) */
(PID.TID 0000.0001)    20 @  2.223898532891175E+05              /* I =  1: 20 */
(PID.TID 0000.0001)     ;
(PID.TID 0000.0001) dyC =  /* dyC(1,:,1,:) ( units: m ) */
(PID.TID 0000.0001)    16 @  2.223898532891175E+05              /* J =  1: 16 */
(PID.TID 0000.0001)     ;
(PID.TID 0000.0001) dxV =  /* dxV(:,1,:,1) ( units: m ) */
(PID.TID 0000.0001)    20 @  1.544849730924338E+05              /* I =  1: 20 */
(PID.TID 0000.0001)     ;
(PID.TID 0000.0001) dxV =  /* dxV(1,:,1,:) ( units: m ) */
(PID.TID 0000.0001)                 1.544849730924338E+05,      /* J =  1 */
(PID.TID 0000.0001)                 1.488078573794047E+05,      /* J =  2 */
(PID.TID 0000.0001)                 1.429494422142520E+05,      /* J =  3 */
(PID.TID 0000.0001)                 1.369168651734348E+05,      /* J =  4 */
(PID.TID 0000.0001)                 1.307174760228300E+05,      /* J =  5 */
(PID.TID 0000.0001)                 1.243588277631750E+05,      /* J =  6 */
(PID.TID 0000.0001)                 1.178486674278995E+05,      /* J =  7 */
(PID.TID 0000.0001)                 1.111949266445588E+05,      /* J =  8 */
(PID.TID 0000.0001)                 1.044057119713670E+05,      /* J =  9 */
(PID.TID 0000.0001)                 9.748929502060512E+04,      /* J = 10 */
(PID.TID 0000.0001)                 9.045410238093534E+04,      /* J = 11 */
(PID.TID 0000.0001)                 8.330870535090075E+04,      /* J = 12 */
(PID.TID 0000.0001)                 7.606180949611843E+04,      /* J = 13 */
(PID.TID 0000.0001)                 6.872224404288860E+04,      /* J = 14 */
(PID.TID 0000.0001)                 6.129895112114271E+04,      /* J = 15 */
(PID.TID 0000.0001)                 5.380097486983529E+04       /* J = 16 */
(PID.TID 0000.0001)     ;
(PID.TID 0000.0001) dyU =  /* dyU(:,1,:,1) ( units: m ) */
(PID.TID 0000.0001)    20 @  2.223898532891175E+05              /* I =  1: 20 */
(PID.TID 0000.0001)     ;
(PID.TID 0000.0001) dyU =  /* dyU(1,:,1,:) ( units: m ) */
(PID.TID 0000.0001)    16 @  2.223898532891175E+05              /* J =  1: 16 */
(PID.TID 0000.0001)     ;
(PID.TID 0000.0001) rA  =  /* rA (:,1,:,1) ( units: m^2 ) */
(PID.TID 0000.0001)    20 @  3.372804882275630E+10              /* I =  1: 20 */
(PID.TID 0000.0001)     ;
(PID.TID 0000.0001) rA  =  /* rA (1,:,1,:) ( units: m^2 ) */
(PID.TID 0000.0001)                 3.372804882275630E+10,      /* J =  1 */
(PID.TID 0000.0001)                 3.244522605358471E+10,      /* J =  2 */
(PID.TID 0000.0001)                 3.112287377427108E+10,      /* J =  3 */
(PID.TID 0000.0001)                 2.976260306737437E+10,      /* J =  4 */
(PID.TID 0000.0001)                 2.836607121321784E+10,      /* J =  5 */
(PID.TID 0000.0001)                 2.693497967074614E+10,      /* J =  6 */
(PID.TID 0000.0001)                 2.547107200456132E+10,      /* J =  7 */
(PID.TID 0000.0001)                 2.397613176065682E+10,      /* J =  8 */
(PID.TID 0000.0001)                 2.245198029344207E+10,      /* J =  9 */
(PID.TID 0000.0001)                 2.090047454670177E+10,      /* J = 10 */
(PID.TID 0000.0001)                 1.932350479119805E+10,      /* J = 11 */
(PID.TID 0000.0001)                 1.772299232166360E+10,      /* J = 12 */
(PID.TID 0000.0001)                 1.610088711600326E+10,      /* J = 13 */
(PID.TID 0000.0001)                 1.445916545954351E+10,      /* J = 14 */
(PID.TID 0000.0001)                 1.279982753723478E+10,      /* J = 15 */
(PID.TID 0000.0001)                 1.112489499673432E+10       /* J = 16 */
(PID.TID 0000.0001)     ;
(PID.TID 0000.0001) rAw =  /* rAw(:,1,:,1) ( units: m^2 ) */
(PID.TID 0000.0001)    20 @  3.372804882275630E+10              /* I =  1: 20 */
(PID.TID 0000.0001)     ;
(PID.TID 0000.0001) rAw =  /* rAw(1,:,1,:) ( units: m^2 ) */
(PID.TID 0000.0001)                 3.372804882275630E+10,      /* J =  1 */
(PID.TID 0000.0001)                 3.244522605358471E+10,      /* J =  2 */
(PID.TID 0000.0001)                 3.112287377427108E+10,      /* J =  3 */
(PID.TID 0000.0001)                 2.976260306737437E+10,      /* J =  4 */
(PID.TID 0000.0001)                 2.836607121321784E+10,      /* J =  5 */
(PID.TID 0000.0001)                 2.693497967074614E+10,      /* J =  6 */
(PID.TID 0000.0001)                 2.547107200456132E+10,      /* J =  7 */
(PID.TID 0000.0001)                 2.397613176065682E+10,      /* J =  8 */
(PID.TID 0000.0001)                 2.245198029344207E+10,      /* J =  9 */
(PID.TID 0000.0001)                 2.090047454670177E+10,      /* J = 10 */
(PID.TID 0000.0001)                 1.932350479119805E+10,      /* J = 11 */
(PID.TID 0000.0001)                 1.772299232166360E+10,      /* J = 12 */
(PID.TID 0000.0001)                 1.610088711600326E+10,      /* J = 13 */
(PID.TID 0000.0001)                 1.445916545954351E+10,      /* J = 14 */
(PID.TID 0000.0001)                 1.279982753723478E+10,      /* J = 15 */
(PID.TID 0000.0001)                 1.112489499673432E+10       /* J = 16 */
(PID.TID 0000.0001)     ;
(PID.TID 0000.0001) rAs =  /* rAs(:,1,:,1) ( units: m^2 ) */
(PID.TID 0000.0001)    20 @  3.435414629417918E+10              /* I =  1: 20 */
(PID.TID 0000.0001)     ;
(PID.TID 0000.0001) rAs =  /* rAs(1,:,1,:) ( units: m^2 ) */
(PID.TID 0000.0001)                 3.435414629417918E+10,      /* J =  1 */
(PID.TID 0000.0001)                 3.309167746093097E+10,      /* J =  2 */
(PID.TID 0000.0001)                 3.178889151607872E+10,      /* J =  3 */
(PID.TID 0000.0001)                 3.044737570361747E+10,      /* J =  4 */
(PID.TID 0000.0001)                 2.906876445392020E+10,      /* J =  5 */
(PID.TID 0000.0001)                 2.765473739243563E+10,      /* J =  6 */
(PID.TID 0000.0001)                 2.620701729332415E+10,      /* J =  7 */
(PID.TID 0000.0001)                 2.472736798052209E+10,      /* J =  8 */
(PID.TID 0000.0001)                 2.321759217879512E+10,      /* J =  9 */
(PID.TID 0000.0001)                 2.167952931739416E+10,      /* J = 10 */
(PID.TID 0000.0001)                 2.011505328899539E+10,      /* J = 11 */
(PID.TID 0000.0001)                 1.852607016665020E+10,      /* J = 12 */
(PID.TID 0000.0001)                 1.691451588152944E+10,      /* J = 13 */
(PID.TID 0000.0001)                 1.528235386428863E+10,      /* J = 14 */
(PID.TID 0000.0001)                 1.363157265293026E+10,      /* J = 15 */
(PID.TID 0000.0001)                 1.196418347007692E+10       /* J = 16 */
(PID.TID 0000.0001)     ;
(PID.TID 0000.0001) globalArea = /* Integrated horizontal Area (m^2) */
(PID.TID 0000.0001)                 3.562528105304875E+12
(PID.TID 0000.0001)     ;
(PID.TID 0000.0001) // =======================================================
(PID.TID 0000.0001) // End of Model config. summary
(PID.TID 0000.0001) // =======================================================
(PID.TID 0000.0001) 
(PID.TID 0000.0001) // =======================================================
(PID.TID 0000.0001) // Field Model R_low (ini_masks_etc) at iteration          1
(PID.TID 0000.0001) // CMIN =         -4.200000000000000E+03
(PID.TID 0000.0001) // CMAX =         -5.500000000000000E+01
(PID.TID 0000.0001) // CINT =          1.535185185185185E+02
(PID.TID 0000.0001) // SYMBOLS (CMIN->CMAX): -abcdefghijklmnopqrstuvwxyz+
(PID.TID 0000.0001) //                  0.0: .
(PID.TID 0000.0001) // RANGE I (Lo:Hi:Step):(  -2:  23:   1)
(PID.TID 0000.0001) // RANGE J (Lo:Hi:Step):(  19:  -2:  -1)
(PID.TID 0000.0001) // RANGE K (Lo:Hi:Step):(   1:   1:   1)
(PID.TID 0000.0001) // =======================================================
(PID.TID 0000.0001) K =   1
(PID.TID 0000.0001) //                I=7       I=17
(PID.TID 0000.0001) // |--J--|210123456|890123456|890123
(PID.TID 0000.0001) //     19 cc-..........+.zzxmgcc-...
(PID.TID 0000.0001) //     18 jc-.......+zzz..zzsmjc-...
(PID.TID 0000.0001) //     17 wc-........++z+++z+wwc-...
(PID.TID 0000.0001) //     16 ....zyyz................zy
(PID.TID 0000.0001) //     15 ...yxwwuspxyxz.........yxw
(PID.TID 0000.0001) //     14 ....+wwspppsxzz.........+w
(PID.TID 0000.0001) //     13 .......zwsppsyz...........
(PID.TID 0000.0001) //     12 .........+ypswzz+.........
(PID.TID 0000.0001) //     11 ...........+wwy+..........
(PID.TID 0000.0001) //     10 ..........zzzywy+.........
(PID.TID 0000.0001) //      9 ..z.......+zxsmmm+....z...
(PID.TID 0000.0001) //      8 ..s.....zzzxumjjjjuz..s...
(PID.TID 0000.0001) //      7 pmj......z.+zmjggggjpmj...
(PID.TID 0000.0001) //      6 ggg.........zxmjggggggg...
(PID.TID 0000.0001) //      5 ggg..........zzsjgggggg...
(PID.TID 0000.0001) //      4 ccg............zzmgcccg...
(PID.TID 0000.0001) //      3 cc-..........+.zzxmgcc-...
(PID.TID 0000.0001) //      2 jc-.......+zzz..zzsmjc-...
(PID.TID 0000.0001) //      1 wc-........++z+++z+wwc-...
(PID.TID 0000.0001) //      0 ....zyyz................zy
(PID.TID 0000.0001) //     -1 ...yxwwuspxyxz.........yxw
(PID.TID 0000.0001) //     -2 ....+wwspppsxzz.........+w
(PID.TID 0000.0001) // =======================================================
(PID.TID 0000.0001) // END OF FIELD                                          =
(PID.TID 0000.0001) // =======================================================
(PID.TID 0000.0001) 
(PID.TID 0000.0001) // =======================================================
(PID.TID 0000.0001) // Field Model Ro_surf (ini_masks_etc) at iteration          1
(PID.TID 0000.0001) // CMIN =          1.000000000000000E+32
(PID.TID 0000.0001) // CMAX =         -1.000000000000000E+32
(PID.TID 0000.0001) // CINT =          0.000000000000000E+00
(PID.TID 0000.0001) // SYMBOLS (CMIN->CMAX): -abcdefghijklmnopqrstuvwxyz+
(PID.TID 0000.0001) //                  0.0: .
(PID.TID 0000.0001) // RANGE I (Lo:Hi:Step):(  -2:  23:   1)
(PID.TID 0000.0001) // RANGE J (Lo:Hi:Step):(  19:  -2:  -1)
(PID.TID 0000.0001) // RANGE K (Lo:Hi:Step):(   1:   1:   1)
(PID.TID 0000.0001) // =======================================================
(PID.TID 0000.0001) // =======================================================
(PID.TID 0000.0001) // END OF FIELD                                          =
(PID.TID 0000.0001) // =======================================================
(PID.TID 0000.0001) 
(PID.TID 0000.0001) // =======================================================
(PID.TID 0000.0001) // Field hFacC at iteration          1
(PID.TID 0000.0001) // CMIN =          1.000000000000000E+00
(PID.TID 0000.0001) // CMAX =          1.000000000000000E+00
(PID.TID 0000.0001) // CINT =          0.000000000000000E+00
(PID.TID 0000.0001) // SYMBOLS (CMIN->CMAX): -abcdefghijklmnopqrstuvwxyz+
(PID.TID 0000.0001) //                  0.0: .
(PID.TID 0000.0001) // RANGE I (Lo:Hi:Step):(  -2:  23:   1)
(PID.TID 0000.0001) // RANGE J (Lo:Hi:Step):(  19:  -2:  -1)
(PID.TID 0000.0001) // RANGE K (Lo:Hi:Step):(   1:   1:   1)
(PID.TID 0000.0001) // =======================================================
(PID.TID 0000.0001) // =======================================================
(PID.TID 0000.0001) // END OF FIELD                                          =
(PID.TID 0000.0001) // =======================================================
(PID.TID 0000.0001) 
(PID.TID 0000.0001) // =======================================================
(PID.TID 0000.0001) // Field hFacW at iteration          1
(PID.TID 0000.0001) // CMIN =          1.000000000000000E+00
(PID.TID 0000.0001) // CMAX =          1.000000000000000E+00
(PID.TID 0000.0001) // CINT =          0.000000000000000E+00
(PID.TID 0000.0001) // SYMBOLS (CMIN->CMAX): -abcdefghijklmnopqrstuvwxyz+
(PID.TID 0000.0001) //                  0.0: .
(PID.TID 0000.0001) // RANGE I (Lo:Hi:Step):(  -2:  23:   1)
(PID.TID 0000.0001) // RANGE J (Lo:Hi:Step):(  19:  -2:  -1)
(PID.TID 0000.0001) // RANGE K (Lo:Hi:Step):(   1:   1:   1)
(PID.TID 0000.0001) // =======================================================
(PID.TID 0000.0001) // =======================================================
(PID.TID 0000.0001) // END OF FIELD                                          =
(PID.TID 0000.0001) // =======================================================
(PID.TID 0000.0001) 
(PID.TID 0000.0001) // =======================================================
(PID.TID 0000.0001) // Field hFacS at iteration          1
(PID.TID 0000.0001) // CMIN =          1.000000000000000E+00
(PID.TID 0000.0001) // CMAX =          1.000000000000000E+00
(PID.TID 0000.0001) // CINT =          0.000000000000000E+00
(PID.TID 0000.0001) // SYMBOLS (CMIN->CMAX): -abcdefghijklmnopqrstuvwxyz+
(PID.TID 0000.0001) //                  0.0: .
(PID.TID 0000.0001) // RANGE I (Lo:Hi:Step):(  -2:  23:   1)
(PID.TID 0000.0001) // RANGE J (Lo:Hi:Step):(  19:  -2:  -1)
(PID.TID 0000.0001) // RANGE K (Lo:Hi:Step):(   1:   1:   1)
(PID.TID 0000.0001) // =======================================================
(PID.TID 0000.0001) // =======================================================
(PID.TID 0000.0001) // END OF FIELD                                          =
(PID.TID 0000.0001) // =======================================================
(PID.TID 0000.0001) 
(PID.TID 0000.0001) %MON fCori_max                    =   1.4210453727344E-04
(PID.TID 0000.0001) %MON fCori_min                    =   1.0666243053630E-04
(PID.TID 0000.0001) %MON fCori_mean                   =   1.2711058365303E-04
(PID.TID 0000.0001) %MON fCori_sd                     =   1.1031533875266E-05
(PID.TID 0000.0001) %MON fCoriG_max                   =   1.4151032568025E-04
(PID.TID 0000.0001) %MON fCoriG_min                   =   1.0491029349513E-04
(PID.TID 0000.0001) %MON fCoriG_mean                  =   1.2591168756569E-04
(PID.TID 0000.0001) %MON fCoriG_sd                    =   1.1383815633153E-05
(PID.TID 0000.0001) %MON fCoriCos_max                 =   9.9464325599212E-05
(PID.TID 0000.0001) %MON fCoriCos_min                 =   3.2807417471054E-05
(PID.TID 0000.0001) %MON fCoriCos_mean                =   6.7585896192312E-05
(PID.TID 0000.0001) %MON fCoriCos_sd                  =   2.0576140902612E-05
(PID.TID 0000.0001) INI_CG2D: CG2D normalisation factor =  1.6094939840939192E-04
(PID.TID 0000.0001) 
(PID.TID 0000.0001) // =======================================================
(PID.TID 0000.0001) // Field Initial Temperature at iteration          1
(PID.TID 0000.0001) // CMIN =          9.205863475799561E-01
(PID.TID 0000.0001) // CMAX =          1.333307647705078E+01
(PID.TID 0000.0001) // CINT =          4.597218566470676E-01
(PID.TID 0000.0001) // SYMBOLS (CMIN->CMAX): -abcdefghijklmnopqrstuvwxyz+
(PID.TID 0000.0001) //                  0.0: .
(PID.TID 0000.0001) // RANGE I (Lo:Hi:Step):(   1:  20:   1)
(PID.TID 0000.0001) // RANGE J (Lo:Hi:Step):(  16:   1:  -1)
(PID.TID 0000.0001) // RANGE K (Lo:Hi:Step):(   1:   1:   1)
(PID.TID 0000.0001) // =======================================================
(PID.TID 0000.0001) K =   1
(PID.TID 0000.0001)                I=10      I=20
(PID.TID 0000.0001) |--J--|123456789|123456789|
(PID.TID 0000.0001)     16 .----...............
(PID.TID 0000.0001)     15 aabaaaaaaaa.........
(PID.TID 0000.0001)     14 .ccccccbbbbc........
(PID.TID 0000.0001)     13 ....dddddddd........
(PID.TID 0000.0001)     12 ......dcdddddd......
(PID.TID 0000.0001)     11 ........cccdd.......
(PID.TID 0000.0001)     10 .......bbcdddd......
(PID.TID 0000.0001)      9 .......cdeeffff....j
(PID.TID 0000.0001)      8 .....ccdefgghhggh..k
(PID.TID 0000.0001)      7 ......d.fghiiiiiijkl
(PID.TID 0000.0001)      6 .........ghhijjjkklm
(PID.TID 0000.0001)      5 ..........hhhijklmnn
(PID.TID 0000.0001)      4 ............ghikmopq
(PID.TID 0000.0001)      3 ..........k.hhiknqsu
(PID.TID 0000.0001)      2 .......oonm..ijknqux
(PID.TID 0000.0001)      1 ........qponlkklosw+
(PID.TID 0000.0001) // =======================================================
(PID.TID 0000.0001) // END OF FIELD                                          =
(PID.TID 0000.0001) // =======================================================
(PID.TID 0000.0001) 
(PID.TID 0000.0001) // =======================================================
(PID.TID 0000.0001) // Field Initial Salinity at iteration          1
(PID.TID 0000.0001) // CMIN =          3.012869834899902E+01
(PID.TID 0000.0001) // CMAX =          3.487366104125977E+01
(PID.TID 0000.0001) // CINT =          1.757393589726201E-01
(PID.TID 0000.0001) // SYMBOLS (CMIN->CMAX): -abcdefghijklmnopqrstuvwxyz+
(PID.TID 0000.0001) //                  0.0: .
(PID.TID 0000.0001) // RANGE I (Lo:Hi:Step):(   1:  20:   1)
(PID.TID 0000.0001) // RANGE J (Lo:Hi:Step):(  16:   1:  -1)
(PID.TID 0000.0001) // RANGE K (Lo:Hi:Step):(   1:   1:   1)
(PID.TID 0000.0001) // =======================================================
(PID.TID 0000.0001) K =   1
(PID.TID 0000.0001)                I=10      I=20
(PID.TID 0000.0001) |--J--|123456789|123456789|
(PID.TID 0000.0001)     16 .nnos...............
(PID.TID 0000.0001)     15 lnoppppppol.........
(PID.TID 0000.0001)     14 .nponmllllmn........
(PID.TID 0000.0001)     13 ....ljhijkmo........
(PID.TID 0000.0001)     12 ......ghjlmors......
(PID.TID 0000.0001)     11 ........jmnpr.......
(PID.TID 0000.0001)     10 .......jlnpqrq......
(PID.TID 0000.0001)      9 .......noqsttts....w
(PID.TID 0000.0001)      8 .....jlnpsuvwwutu..x
(PID.TID 0000.0001)      7 ......j.rruwxyxxwxxy
(PID.TID 0000.0001)      6 .........ppruxyyzzzz
(PID.TID 0000.0001)      5 ..........ijoswyzzzz
(PID.TID 0000.0001)      4 ............iotwyzzz
(PID.TID 0000.0001)      3 ..........g.imquwyzz
(PID.TID 0000.0001)      2 .......-bef..knqtvxz
(PID.TID 0000.0001)      1 ........-cegijlosvy+
(PID.TID 0000.0001) // =======================================================
(PID.TID 0000.0001) // END OF FIELD                                          =
(PID.TID 0000.0001) // =======================================================
(PID.TID 0000.0001) 
(PID.TID 0000.0001) Start initial hydrostatic pressure computation
(PID.TID 0000.0001) Pressure is predetermined for buoyancyRelation OCEANIC
(PID.TID 0000.0001) 
(PID.TID 0000.0001)  MDS_READ_FIELD: opening file: xx_theta.0000000000.001.001.data
(PID.TID 0000.0001)  MDS_READ_FIELD: opening file: xx_salt.0000000000.001.001.data
(PID.TID 0000.0001) // =======================================================
(PID.TID 0000.0001) // Begin MONITOR dynamic field statistics
(PID.TID 0000.0001) // =======================================================
(PID.TID 0000.0001) %MON time_tsnumber                =                     0
(PID.TID 0000.0001) %MON time_secondsf                =   0.0000000000000E+00
(PID.TID 0000.0001) %MON dynstat_eta_max              =   0.0000000000000E+00
(PID.TID 0000.0001) %MON dynstat_eta_min              =   0.0000000000000E+00
(PID.TID 0000.0001) %MON dynstat_eta_mean             =   0.0000000000000E+00
(PID.TID 0000.0001) %MON dynstat_eta_sd               =   0.0000000000000E+00
(PID.TID 0000.0001) %MON dynstat_eta_del2             =   0.0000000000000E+00
(PID.TID 0000.0001) %MON dynstat_uvel_max             =   0.0000000000000E+00
(PID.TID 0000.0001) %MON dynstat_uvel_min             =   0.0000000000000E+00
(PID.TID 0000.0001) %MON dynstat_uvel_mean            =   0.0000000000000E+00
(PID.TID 0000.0001) %MON dynstat_uvel_sd              =   0.0000000000000E+00
(PID.TID 0000.0001) %MON dynstat_uvel_del2            =   0.0000000000000E+00
(PID.TID 0000.0001) %MON dynstat_vvel_max             =   0.0000000000000E+00
(PID.TID 0000.0001) %MON dynstat_vvel_min             =   0.0000000000000E+00
(PID.TID 0000.0001) %MON dynstat_vvel_mean            =   0.0000000000000E+00
(PID.TID 0000.0001) %MON dynstat_vvel_sd              =   0.0000000000000E+00
(PID.TID 0000.0001) %MON dynstat_vvel_del2            =   0.0000000000000E+00
(PID.TID 0000.0001) %MON dynstat_wvel_max             =   0.0000000000000E+00
(PID.TID 0000.0001) %MON dynstat_wvel_min             =   0.0000000000000E+00
(PID.TID 0000.0001) %MON dynstat_wvel_mean            =   0.0000000000000E+00
(PID.TID 0000.0001) %MON dynstat_wvel_sd              =   0.0000000000000E+00
(PID.TID 0000.0001) %MON dynstat_wvel_del2            =   0.0000000000000E+00
(PID.TID 0000.0001) %MON dynstat_theta_max            =   1.3333076477051E+01
(PID.TID 0000.0001) %MON dynstat_theta_min            =  -1.4103618860245E+00
(PID.TID 0000.0001) %MON dynstat_theta_mean           =   3.1168426975828E+00
(PID.TID 0000.0001) %MON dynstat_theta_sd             =   1.4047681849177E+00
(PID.TID 0000.0001) %MON dynstat_theta_del2           =   9.7237468258508E-02
(PID.TID 0000.0001) %MON dynstat_salt_max             =   3.5450622558594E+01
(PID.TID 0000.0001) %MON dynstat_salt_min             =   3.0128698348999E+01
(PID.TID 0000.0001) %MON dynstat_salt_mean            =   3.4759355674691E+01
(PID.TID 0000.0001) %MON dynstat_salt_sd              =   4.4306214753982E-01
(PID.TID 0000.0001) %MON dynstat_salt_del2            =   3.8354629598638E-02
(PID.TID 0000.0001) %MON dynstat_sst_max              =   1.3333076477051E+01
(PID.TID 0000.0001) %MON dynstat_sst_min              =   9.2058634757996E-01
(PID.TID 0000.0001) %MON dynstat_sst_mean             =   5.1412232105052E+00
(PID.TID 0000.0001) %MON dynstat_sst_sd               =   2.5470575662253E+00
(PID.TID 0000.0001) %MON dynstat_sst_del2             =   1.1308799763521E-01
(PID.TID 0000.0001) %MON dynstat_sss_max              =   3.4873661041260E+01
(PID.TID 0000.0001) %MON dynstat_sss_min              =   3.0128698348999E+01
(PID.TID 0000.0001) %MON dynstat_sss_mean             =   3.3155723399320E+01
(PID.TID 0000.0001) %MON dynstat_sss_sd               =   1.1868027611543E+00
(PID.TID 0000.0001) %MON dynstat_sss_del2             =   8.9005807240804E-02
(PID.TID 0000.0001) %MON extforcing_qnet_max          =   0.0000000000000E+00
(PID.TID 0000.0001) %MON extforcing_qnet_min          =   0.0000000000000E+00
(PID.TID 0000.0001) %MON extforcing_qnet_mean         =   0.0000000000000E+00
(PID.TID 0000.0001) %MON extforcing_qnet_sd           =   0.0000000000000E+00
(PID.TID 0000.0001) %MON extforcing_qnet_del2         =   0.0000000000000E+00
(PID.TID 0000.0001) %MON extforcing_qsw_max           =   0.0000000000000E+00
(PID.TID 0000.0001) %MON extforcing_qsw_min           =   0.0000000000000E+00
(PID.TID 0000.0001) %MON extforcing_qsw_mean          =   0.0000000000000E+00
(PID.TID 0000.0001) %MON extforcing_qsw_sd            =   0.0000000000000E+00
(PID.TID 0000.0001) %MON extforcing_qsw_del2          =   0.0000000000000E+00
(PID.TID 0000.0001) %MON extforcing_empmr_max         =   0.0000000000000E+00
(PID.TID 0000.0001) %MON extforcing_empmr_min         =   0.0000000000000E+00
(PID.TID 0000.0001) %MON extforcing_empmr_mean        =   0.0000000000000E+00
(PID.TID 0000.0001) %MON extforcing_empmr_sd          =   0.0000000000000E+00
(PID.TID 0000.0001) %MON extforcing_empmr_del2        =   0.0000000000000E+00
(PID.TID 0000.0001) %MON extforcing_fu_max            =   0.0000000000000E+00
(PID.TID 0000.0001) %MON extforcing_fu_min            =   0.0000000000000E+00
(PID.TID 0000.0001) %MON extforcing_fu_mean           =   0.0000000000000E+00
(PID.TID 0000.0001) %MON extforcing_fu_sd             =   0.0000000000000E+00
(PID.TID 0000.0001) %MON extforcing_fu_del2           =   0.0000000000000E+00
(PID.TID 0000.0001) %MON extforcing_fv_max            =   0.0000000000000E+00
(PID.TID 0000.0001) %MON extforcing_fv_min            =   0.0000000000000E+00
(PID.TID 0000.0001) %MON extforcing_fv_mean           =   0.0000000000000E+00
(PID.TID 0000.0001) %MON extforcing_fv_sd             =   0.0000000000000E+00
(PID.TID 0000.0001) %MON extforcing_fv_del2           =   0.0000000000000E+00
(PID.TID 0000.0001) %MON advcfl_uvel_max              =   0.0000000000000E+00
(PID.TID 0000.0001) %MON advcfl_vvel_max              =   0.0000000000000E+00
(PID.TID 0000.0001) %MON advcfl_wvel_max              =   0.0000000000000E+00
(PID.TID 0000.0001) %MON advcfl_W_hf_max              =   0.0000000000000E+00
(PID.TID 0000.0001) %MON pe_b_mean                    =   0.0000000000000E+00
(PID.TID 0000.0001) %MON ke_max                       =   0.0000000000000E+00
(PID.TID 0000.0001) %MON ke_mean                      =   0.0000000000000E+00
(PID.TID 0000.0001) %MON ke_vol                       =   5.3036189546438E+15
(PID.TID 0000.0001) %MON vort_r_min                   =   0.0000000000000E+00
(PID.TID 0000.0001) %MON vort_r_max                   =   0.0000000000000E+00
(PID.TID 0000.0001) %MON vort_a_mean                  =   1.2067278094140E-04
(PID.TID 0000.0001) %MON vort_a_sd                    =   8.8115075987107E-06
(PID.TID 0000.0001) %MON vort_p_mean                  =   1.7734843892147E-04
(PID.TID 0000.0001) %MON vort_p_sd                    =   1.1689234854242E-04
(PID.TID 0000.0001) %MON surfExpan_theta_mean         =   0.0000000000000E+00
(PID.TID 0000.0001) %MON surfExpan_salt_mean          =   0.0000000000000E+00
(PID.TID 0000.0001) // =======================================================
(PID.TID 0000.0001) // End MONITOR dynamic field statistics
(PID.TID 0000.0001) // =======================================================
(PID.TID 0000.0001) // =======================================================
(PID.TID 0000.0001) // Begin MONITOR SEAICE statistics
(PID.TID 0000.0001) // =======================================================
(PID.TID 0000.0001) %MON seaice_tsnumber              =                     0
(PID.TID 0000.0001) %MON seaice_time_sec              =   0.0000000000000E+00
(PID.TID 0000.0001) %MON seaice_uice_max              =   0.0000000000000E+00
(PID.TID 0000.0001) %MON seaice_uice_min              =   0.0000000000000E+00
(PID.TID 0000.0001) %MON seaice_uice_mean             =   0.0000000000000E+00
(PID.TID 0000.0001) %MON seaice_uice_sd               =   0.0000000000000E+00
(PID.TID 0000.0001) %MON seaice_uice_del2             =   0.0000000000000E+00
(PID.TID 0000.0001) %MON seaice_vice_max              =   0.0000000000000E+00
(PID.TID 0000.0001) %MON seaice_vice_min              =   0.0000000000000E+00
(PID.TID 0000.0001) %MON seaice_vice_mean             =   0.0000000000000E+00
(PID.TID 0000.0001) %MON seaice_vice_sd               =   0.0000000000000E+00
(PID.TID 0000.0001) %MON seaice_vice_del2             =   0.0000000000000E+00
(PID.TID 0000.0001) %MON seaice_area_max              =   1.0000000000000E+00
(PID.TID 0000.0001) %MON seaice_area_min              =   1.0000000000000E+00
(PID.TID 0000.0001) %MON seaice_area_mean             =   1.0000000000000E+00
(PID.TID 0000.0001) %MON seaice_area_sd               =   0.0000000000000E+00
(PID.TID 0000.0001) %MON seaice_area_del2             =   0.0000000000000E+00
(PID.TID 0000.0001) %MON seaice_heff_max              =   1.0000000000000E+00
(PID.TID 0000.0001) %MON seaice_heff_min              =   1.0000000000000E+00
(PID.TID 0000.0001) %MON seaice_heff_mean             =   1.0000000000000E+00
(PID.TID 0000.0001) %MON seaice_heff_sd               =   0.0000000000000E+00
(PID.TID 0000.0001) %MON seaice_heff_del2             =   0.0000000000000E+00
(PID.TID 0000.0001) %MON seaice_hsnow_max             =   2.0000000298023E-01
(PID.TID 0000.0001) %MON seaice_hsnow_min             =   2.0000000298023E-01
(PID.TID 0000.0001) %MON seaice_hsnow_mean            =   2.0000000298023E-01
(PID.TID 0000.0001) %MON seaice_hsnow_sd              =   5.8286708792821E-16
(PID.TID 0000.0001) %MON seaice_hsnow_del2            =   0.0000000000000E+00
(PID.TID 0000.0001) // =======================================================
(PID.TID 0000.0001) // End MONITOR SEAICE statistics
(PID.TID 0000.0001) // =======================================================
(PID.TID 0000.0001)  MDS_READ_FIELD: opening file: xx_atemp.0000000000.001.001.data
(PID.TID 0000.0001)  MDS_READ_FIELD: opening file: xx_atemp.0000000000.001.001.data
(PID.TID 0000.0001)  MDS_READ_FIELD: opening file: xx_aqh.0000000000.001.001.data
(PID.TID 0000.0001)  MDS_READ_FIELD: opening file: xx_aqh.0000000000.001.001.data
(PID.TID 0000.0001)  MDS_READ_FIELD: opening file: xx_precip.0000000000.001.001.data
(PID.TID 0000.0001)  MDS_READ_FIELD: opening file: xx_precip.0000000000.001.001.data
(PID.TID 0000.0001)  MDS_READ_FIELD: opening file: xx_swdown.0000000000.001.001.data
(PID.TID 0000.0001)  MDS_READ_FIELD: opening file: xx_swdown.0000000000.001.001.data
(PID.TID 0000.0001)  MDS_READ_FIELD: opening file: xx_lwdown.0000000000.001.001.data
(PID.TID 0000.0001)  MDS_READ_FIELD: opening file: xx_lwdown.0000000000.001.001.data
(PID.TID 0000.0001)  MDS_READ_FIELD: opening file: xx_snowprecip.0000000000.001.001.data
(PID.TID 0000.0001)  MDS_READ_FIELD: opening file: xx_snowprecip.0000000000.001.001.data
(PID.TID 0000.0001)  MDS_READ_FIELD: opening file: xx_apressure.0000000000.001.001.data
(PID.TID 0000.0001)  MDS_READ_FIELD: opening file: xx_apressure.0000000000.001.001.data
(PID.TID 0000.0001)  MDS_READ_FIELD: opening file: xx_uwind.0000000000.001.001.data
(PID.TID 0000.0001)  MDS_READ_FIELD: opening file: xx_uwind.0000000000.001.001.data
(PID.TID 0000.0001)  MDS_READ_FIELD: opening file: xx_vwind.0000000000.001.001.data
(PID.TID 0000.0001)  MDS_READ_FIELD: opening file: xx_vwind.0000000000.001.001.data
(PID.TID 0000.0001) // =======================================================
(PID.TID 0000.0001) // Begin MONITOR EXF statistics
(PID.TID 0000.0001) // =======================================================
(PID.TID 0000.0001) %MON exf_tsnumber                 =                     0
(PID.TID 0000.0001) %MON exf_time_sec                 =   0.0000000000000E+00
(PID.TID 0000.0001) %MON exf_ustress_max              =   6.3903775845771E-02
(PID.TID 0000.0001) %MON exf_ustress_min              =  -9.5324050318348E-02
(PID.TID 0000.0001) %MON exf_ustress_mean             =   2.2585162028781E-02
(PID.TID 0000.0001) %MON exf_ustress_sd               =   2.7275779997355E-02
(PID.TID 0000.0001) %MON exf_ustress_del2             =   2.9464928316532E-03
(PID.TID 0000.0001) %MON exf_vstress_max              =   5.4708944127586E-02
(PID.TID 0000.0001) %MON exf_vstress_min              =  -6.2488440618747E-02
(PID.TID 0000.0001) %MON exf_vstress_mean             =  -5.6174743223315E-03
(PID.TID 0000.0001) %MON exf_vstress_sd               =   1.5596129749990E-02
(PID.TID 0000.0001) %MON exf_vstress_del2             =   1.7930354012150E-03
(PID.TID 0000.0001) %MON exf_hflux_max                =   7.3111020636161E+02
(PID.TID 0000.0001) %MON exf_hflux_min                =   1.0991726570245E+02
(PID.TID 0000.0001) %MON exf_hflux_mean               =   2.7655955077737E+02
(PID.TID 0000.0001) %MON exf_hflux_sd                 =   1.5872019352493E+02
(PID.TID 0000.0001) %MON exf_hflux_del2               =   1.9324680413847E+01
(PID.TID 0000.0001) %MON exf_sflux_max                =   5.3473262221640E-08
(PID.TID 0000.0001) %MON exf_sflux_min                =  -6.1385296755754E-08
(PID.TID 0000.0001) %MON exf_sflux_mean               =  -7.3062646151542E-09
(PID.TID 0000.0001) %MON exf_sflux_sd                 =   2.6562207566842E-08
(PID.TID 0000.0001) %MON exf_sflux_del2               =   3.6392856083892E-09
(PID.TID 0000.0001) %MON exf_uwind_max                =   6.4643745422363E+00
(PID.TID 0000.0001) %MON exf_uwind_min                =  -6.8372380733490E+00
(PID.TID 0000.0001) %MON exf_uwind_mean               =   2.7697727336031E+00
(PID.TID 0000.0001) %MON exf_uwind_sd                 =   2.9900402496951E+00
(PID.TID 0000.0001) %MON exf_uwind_del2               =   3.1570994739265E-01
(PID.TID 0000.0001) %MON exf_vwind_max                =   3.9240682125092E+00
(PID.TID 0000.0001) %MON exf_vwind_min                =  -6.0197033882141E+00
(PID.TID 0000.0001) %MON exf_vwind_mean               =  -7.6089868124963E-01
(PID.TID 0000.0001) %MON exf_vwind_sd                 =   1.7293437592941E+00
(PID.TID 0000.0001) %MON exf_vwind_del2               =   1.9333263882436E-01
(PID.TID 0000.0001) %MON exf_wspeed_max               =   7.8832820454477E+00
(PID.TID 0000.0001) %MON exf_wspeed_min               =   4.6035219539401E-01
(PID.TID 0000.0001) %MON exf_wspeed_mean              =   4.1981217095273E+00
(PID.TID 0000.0001) %MON exf_wspeed_sd                =   1.5991724245810E+00
(PID.TID 0000.0001) %MON exf_wspeed_del2              =   3.7693667977018E-01
(PID.TID 0000.0001) %MON exf_atemp_max                =   2.8188281250000E+02
(PID.TID 0000.0001) %MON exf_atemp_min                =   2.3646176910400E+02
(PID.TID 0000.0001) %MON exf_atemp_mean               =   2.6394605784141E+02
(PID.TID 0000.0001) %MON exf_atemp_sd                 =   1.1983417694612E+01
(PID.TID 0000.0001) %MON exf_atemp_del2               =   6.4942276000977E-01
(PID.TID 0000.0001) %MON exf_aqh_max                  =   6.3231729436666E-03
(PID.TID 0000.0001) %MON exf_aqh_min                  =   1.6369274817407E-04
(PID.TID 0000.0001) %MON exf_aqh_mean                 =   2.4803629101886E-03
(PID.TID 0000.0001) %MON exf_aqh_sd                   =   1.4265074770275E-03
(PID.TID 0000.0001) %MON exf_aqh_del2                 =   6.8141780599641E-05
(PID.TID 0000.0001) %MON exf_lwflux_max               =   1.9978966060501E+02
(PID.TID 0000.0001) %MON exf_lwflux_min               =   6.3304595803996E+01
(PID.TID 0000.0001) %MON exf_lwflux_mean              =   1.0410079899302E+02
(PID.TID 0000.0001) %MON exf_lwflux_sd                =   3.6519264181786E+01
(PID.TID 0000.0001) %MON exf_lwflux_del2              =   3.1286635970398E+00
(PID.TID 0000.0001) %MON exf_precip_max               =   1.0498766300771E-07
(PID.TID 0000.0001) %MON exf_precip_min               =   2.7359498694368E-10
(PID.TID 0000.0001) %MON exf_precip_mean              =   3.6390080543085E-08
(PID.TID 0000.0001) %MON exf_precip_sd                =   2.0578148171209E-08
(PID.TID 0000.0001) %MON exf_precip_del2              =   2.5551549857431E-09
(PID.TID 0000.0001) %MON exf_snowprecip_max           =   0.0000000000000E+00
(PID.TID 0000.0001) %MON exf_snowprecip_min           =   0.0000000000000E+00
(PID.TID 0000.0001) %MON exf_snowprecip_mean          =   0.0000000000000E+00
(PID.TID 0000.0001) %MON exf_snowprecip_sd            =   0.0000000000000E+00
(PID.TID 0000.0001) %MON exf_snowprecip_del2          =   0.0000000000000E+00
(PID.TID 0000.0001) %MON exf_swflux_max               =  -8.1205755472183E-02
(PID.TID 0000.0001) %MON exf_swflux_min               =  -6.3973114013672E+01
(PID.TID 0000.0001) %MON exf_swflux_mean              =  -2.6453223022948E+01
(PID.TID 0000.0001) %MON exf_swflux_sd                =   1.9625901079469E+01
(PID.TID 0000.0001) %MON exf_swflux_del2              =   4.7901276555285E-01
(PID.TID 0000.0001) %MON exf_evap_max                 =   5.9797470045733E-08
(PID.TID 0000.0001) %MON exf_evap_min                 =   1.0729148721654E-08
(PID.TID 0000.0001) %MON exf_evap_mean                =   2.9083815927930E-08
(PID.TID 0000.0001) %MON exf_evap_sd                  =   9.2938020844541E-09
(PID.TID 0000.0001) %MON exf_evap_del2                =   2.0154590676424E-09
(PID.TID 0000.0001) %MON exf_swdown_max               =   7.1081237792969E+01
(PID.TID 0000.0001) %MON exf_swdown_min               =   9.0228617191315E-02
(PID.TID 0000.0001) %MON exf_swdown_mean              =   2.9392470025498E+01
(PID.TID 0000.0001) %MON exf_swdown_sd                =   2.1806556754965E+01
(PID.TID 0000.0001) %MON exf_swdown_del2              =   5.3223640616983E-01
(PID.TID 0000.0001) %MON exf_lwdown_max               =   3.0567971801758E+02
(PID.TID 0000.0001) %MON exf_lwdown_min               =   1.1599769210815E+02
(PID.TID 0000.0001) %MON exf_lwdown_mean              =   2.2594931695913E+02
(PID.TID 0000.0001) %MON exf_lwdown_sd                =   4.6277429231296E+01
(PID.TID 0000.0001) %MON exf_lwdown_del2              =   3.2438212966919E+00
(PID.TID 0000.0001) %MON exf_apressure_max            =   0.0000000000000E+00
(PID.TID 0000.0001) %MON exf_apressure_min            =   0.0000000000000E+00
(PID.TID 0000.0001) %MON exf_apressure_mean           =   0.0000000000000E+00
(PID.TID 0000.0001) %MON exf_apressure_sd             =   0.0000000000000E+00
(PID.TID 0000.0001) %MON exf_apressure_del2           =   0.0000000000000E+00
(PID.TID 0000.0001) %MON exf_runoff_max               =   0.0000000000000E+00
(PID.TID 0000.0001) %MON exf_runoff_min               =   0.0000000000000E+00
(PID.TID 0000.0001) %MON exf_runoff_mean              =   0.0000000000000E+00
(PID.TID 0000.0001) %MON exf_runoff_sd                =   0.0000000000000E+00
(PID.TID 0000.0001) %MON exf_runoff_del2              =   0.0000000000000E+00
(PID.TID 0000.0001) %MON exf_climsst_max              =   0.0000000000000E+00
(PID.TID 0000.0001) %MON exf_climsst_min              =   0.0000000000000E+00
(PID.TID 0000.0001) %MON exf_climsst_mean             =   0.0000000000000E+00
(PID.TID 0000.0001) %MON exf_climsst_sd               =   0.0000000000000E+00
(PID.TID 0000.0001) %MON exf_climsst_del2             =   0.0000000000000E+00
(PID.TID 0000.0001) %MON exf_climsss_max              =   3.5040330886841E+01
(PID.TID 0000.0001) %MON exf_climsss_min              =   3.0666313171387E+01
(PID.TID 0000.0001) %MON exf_climsss_mean             =   3.3459319600989E+01
(PID.TID 0000.0001) %MON exf_climsss_sd               =   1.0319548925494E+00
(PID.TID 0000.0001) %MON exf_climsss_del2             =   1.0019396146139E-01
(PID.TID 0000.0001) // =======================================================
(PID.TID 0000.0001) // End MONITOR EXF statistics
(PID.TID 0000.0001) // =======================================================
 ph-ice B  0  0.  0.  0.
 ph-ice C  0  5.30354909E+10
 cg2d: Sum(rhs),rhsMax =   1.05818132034585E-15  9.93037467350620E-01
(PID.TID 0000.0001)                    cg2d_init_res =    1.59657848164884E+00
(PID.TID 0000.0001)                       cg2d_iters =    35
(PID.TID 0000.0001)                         cg2d_res =    7.05024417130139E-09
(PID.TID 0000.0001) // =======================================================
(PID.TID 0000.0001) // Begin MONITOR dynamic field statistics
(PID.TID 0000.0001) // =======================================================
(PID.TID 0000.0001) %MON time_tsnumber                =                     1
(PID.TID 0000.0001) %MON time_secondsf                =   3.6000000000000E+03
(PID.TID 0000.0001) %MON dynstat_eta_max              =   2.0762245084360E-01
(PID.TID 0000.0001) %MON dynstat_eta_min              =  -7.8940151136438E-02
(PID.TID 0000.0001) %MON dynstat_eta_mean             =  -2.6184907067666E-11
(PID.TID 0000.0001) %MON dynstat_eta_sd               =   4.6975083870378E-02
(PID.TID 0000.0001) %MON dynstat_eta_del2             =   6.2899577674244E-03
(PID.TID 0000.0001) %MON dynstat_uvel_max             =   2.8071934413798E-02
(PID.TID 0000.0001) %MON dynstat_uvel_min             =  -1.9796323517763E-02
(PID.TID 0000.0001) %MON dynstat_uvel_mean            =  -9.1870514365213E-04
(PID.TID 0000.0001) %MON dynstat_uvel_sd              =   3.0099180531046E-03
(PID.TID 0000.0001) %MON dynstat_uvel_del2            =   1.2332971562950E-03
(PID.TID 0000.0001) %MON dynstat_vvel_max             =   2.0390318948713E-02
(PID.TID 0000.0001) %MON dynstat_vvel_min             =  -1.4456395331995E-02
(PID.TID 0000.0001) %MON dynstat_vvel_mean            =  -1.7284653403192E-03
(PID.TID 0000.0001) %MON dynstat_vvel_sd              =   4.3631000363278E-03
(PID.TID 0000.0001) %MON dynstat_vvel_del2            =   9.6503287135895E-04
(PID.TID 0000.0001) %MON dynstat_wvel_max             =   1.1583933233372E-04
(PID.TID 0000.0001) %MON dynstat_wvel_min             =  -4.2712741997007E-05
(PID.TID 0000.0001) %MON dynstat_wvel_mean            =   8.5266770821142E-22
(PID.TID 0000.0001) %MON dynstat_wvel_sd              =   2.4828932765321E-05
(PID.TID 0000.0001) %MON dynstat_wvel_del2            =   4.7887232219149E-06
(PID.TID 0000.0001) %MON dynstat_theta_max            =   1.3249834884801E+01
(PID.TID 0000.0001) %MON dynstat_theta_min            =  -1.9586736228091E+00
(PID.TID 0000.0001) %MON dynstat_theta_mean           =   3.0742158374635E+00
(PID.TID 0000.0001) %MON dynstat_theta_sd             =   1.4263802980233E+00
(PID.TID 0000.0001) %MON dynstat_theta_del2           =   9.8904314281839E-02
(PID.TID 0000.0001) %MON dynstat_salt_max             =   3.5450603500286E+01
(PID.TID 0000.0001) %MON dynstat_salt_min             =   2.6679783575186E+01
(PID.TID 0000.0001) %MON dynstat_salt_mean            =   3.4740311254597E+01
(PID.TID 0000.0001) %MON dynstat_salt_sd              =   5.5608191287204E-01
(PID.TID 0000.0001) %MON dynstat_salt_del2            =   4.0497173651373E-02
(PID.TID 0000.0001) %MON dynstat_sst_max              =   5.6166262368092E+00
(PID.TID 0000.0001) %MON dynstat_sst_min              =  -1.9586736228091E+00
(PID.TID 0000.0001) %MON dynstat_sst_mean             =  -1.1094354863927E+00
(PID.TID 0000.0001) %MON dynstat_sst_sd               =   1.4914436556826E+00
(PID.TID 0000.0001) %MON dynstat_sst_del2             =   9.3500222636861E-02
(PID.TID 0000.0001) %MON dynstat_sss_max              =   3.2509991570997E+01
(PID.TID 0000.0001) %MON dynstat_sss_min              =   2.6679783575186E+01
(PID.TID 0000.0001) %MON dynstat_sss_mean             =   3.0364969775278E+01
(PID.TID 0000.0001) %MON dynstat_sss_sd               =   1.1910175362168E+00
(PID.TID 0000.0001) %MON dynstat_sss_del2             =   9.8249536362207E-02
(PID.TID 0000.0001) %MON extforcing_qnet_max          =   8.8008160782227E+04
(PID.TID 0000.0001) %MON extforcing_qnet_min          =   3.2755643459314E+04
(PID.TID 0000.0001) %MON extforcing_qnet_mean         =   7.2161008784695E+04
(PID.TID 0000.0001) %MON extforcing_qnet_sd           =   1.7063461288894E+04
(PID.TID 0000.0001) %MON extforcing_qnet_del2         =   9.0093847723374E+02
(PID.TID 0000.0001) %MON extforcing_qsw_max           =   0.0000000000000E+00
(PID.TID 0000.0001) %MON extforcing_qsw_min           =   0.0000000000000E+00
(PID.TID 0000.0001) %MON extforcing_qsw_mean          =   0.0000000000000E+00
(PID.TID 0000.0001) %MON extforcing_qsw_sd            =   0.0000000000000E+00
(PID.TID 0000.0001) %MON extforcing_qsw_del2          =   0.0000000000000E+00
(PID.TID 0000.0001) %MON extforcing_empmr_max         =  -1.0205719721601E-04
(PID.TID 0000.0001) %MON extforcing_empmr_min         =  -2.7463764263101E-04
(PID.TID 0000.0001) %MON extforcing_empmr_mean        =  -2.2501826442020E-04
(PID.TID 0000.0001) %MON extforcing_empmr_sd          =   5.3271805692290E-05
(PID.TID 0000.0001) %MON extforcing_empmr_del2        =   2.8081994503508E-06
(PID.TID 0000.0001) %MON extforcing_fu_max            =   7.6719821354389E-02
(PID.TID 0000.0001) %MON extforcing_fu_min            =  -9.2369169004525E-03
(PID.TID 0000.0001) %MON extforcing_fu_mean           =   2.2584220551731E-02
(PID.TID 0000.0001) %MON extforcing_fu_sd             =   2.5048768686287E-02
(PID.TID 0000.0001) %MON extforcing_fu_del2           =   1.6169133611452E-03
(PID.TID 0000.0001) %MON extforcing_fv_max            =   1.3392851142711E-02
(PID.TID 0000.0001) %MON extforcing_fv_min            =  -3.1831686388353E-02
(PID.TID 0000.0001) %MON extforcing_fv_mean           =  -6.1954972766911E-03
(PID.TID 0000.0001) %MON extforcing_fv_sd             =   9.9425459025427E-03
(PID.TID 0000.0001) %MON extforcing_fv_del2           =   9.4211766841462E-04
(PID.TID 0000.0001) %MON advcfl_uvel_max              =   7.0297700336824E-04
(PID.TID 0000.0001) %MON advcfl_vvel_max              =   3.3007417887873E-04
(PID.TID 0000.0001) %MON advcfl_wvel_max              =   4.1524490206910E-02
(PID.TID 0000.0001) %MON advcfl_W_hf_max              =   4.1668284491947E-02
(PID.TID 0000.0001) %MON pe_b_mean                    =   7.2745807627757E-06
(PID.TID 0000.0001) %MON ke_max                       =   3.5573082277008E-04
(PID.TID 0000.0001) %MON ke_mean                      =   1.2485670504444E-05
(PID.TID 0000.0001) %MON ke_vol                       =   5.3036189546438E+15
(PID.TID 0000.0001) %MON vort_r_min                   =  -1.5582455373713E-07
(PID.TID 0000.0001) %MON vort_r_max                   =   1.1142519998858E-07
(PID.TID 0000.0001) %MON vort_a_mean                  =   1.2067277211834E-04
(PID.TID 0000.0001) %MON vort_a_sd                    =   8.8106845474265E-06
(PID.TID 0000.0001) %MON vort_p_mean                  =   1.7734842595455E-04
(PID.TID 0000.0001) %MON vort_p_sd                    =   1.1691047020281E-04
(PID.TID 0000.0001) %MON surfExpan_theta_mean         =   7.1590822961107E-06
(PID.TID 0000.0001) %MON surfExpan_salt_mean          =  -4.1283491118810E-06
(PID.TID 0000.0001) // =======================================================
(PID.TID 0000.0001) // End MONITOR dynamic field statistics
(PID.TID 0000.0001) // =======================================================
(PID.TID 0000.0001) // =======================================================
(PID.TID 0000.0001) // Begin MONITOR SEAICE statistics
(PID.TID 0000.0001) // =======================================================
(PID.TID 0000.0001) %MON seaice_tsnumber              =                     1
(PID.TID 0000.0001) %MON seaice_time_sec              =   3.6000000000000E+03
(PID.TID 0000.0001) %MON seaice_uice_max              =   1.1830188588838E-01
(PID.TID 0000.0001) %MON seaice_uice_min              =  -3.6947667601810E-02
(PID.TID 0000.0001) %MON seaice_uice_mean             =   4.6351011395841E-02
(PID.TID 0000.0001) %MON seaice_uice_sd               =   4.4551623876367E-02
(PID.TID 0000.0001) %MON seaice_uice_del2             =   2.6893939150909E-03
(PID.TID 0000.0001) %MON seaice_vice_max              =   3.8048078875392E-02
(PID.TID 0000.0001) %MON seaice_vice_min              =  -7.2208311040469E-02
(PID.TID 0000.0001) %MON seaice_vice_mean             =  -1.7212953413442E-02
(PID.TID 0000.0001) %MON seaice_vice_sd               =   2.7498420195410E-02
(PID.TID 0000.0001) %MON seaice_vice_del2             =   2.2712992187913E-03
(PID.TID 0000.0001) %MON seaice_area_max              =   1.0000000000000E+00
(PID.TID 0000.0001) %MON seaice_area_min              =   0.0000000000000E+00
(PID.TID 0000.0001) %MON seaice_area_mean             =   6.3240418008182E-01
(PID.TID 0000.0001) %MON seaice_area_sd               =   4.5166862134438E-01
(PID.TID 0000.0001) %MON seaice_area_del2             =   4.7454801422287E-02
(PID.TID 0000.0001) %MON seaice_heff_max              =   6.0076635272005E-01
(PID.TID 0000.0001) %MON seaice_heff_min              =   0.0000000000000E+00
(PID.TID 0000.0001) %MON seaice_heff_mean             =   1.4887451421175E-01
(PID.TID 0000.0001) %MON seaice_heff_sd               =   1.8287366826742E-01
(PID.TID 0000.0001) %MON seaice_heff_del2             =   1.0146605918607E-02
(PID.TID 0000.0001) %MON seaice_hsnow_max             =   2.0078474686707E-01
(PID.TID 0000.0001) %MON seaice_hsnow_min             =   0.0000000000000E+00
(PID.TID 0000.0001) %MON seaice_hsnow_mean            =   1.1848697056338E-01
(PID.TID 0000.0001) %MON seaice_hsnow_sd              =   9.6623972770983E-02
(PID.TID 0000.0001) %MON seaice_hsnow_del2            =   6.2688952170602E-03
(PID.TID 0000.0001) // =======================================================
(PID.TID 0000.0001) // End MONITOR SEAICE statistics
(PID.TID 0000.0001) // =======================================================
(PID.TID 0000.0001) // =======================================================
(PID.TID 0000.0001) // Begin MONITOR EXF statistics
(PID.TID 0000.0001) // =======================================================
(PID.TID 0000.0001) %MON exf_tsnumber                 =                     1
(PID.TID 0000.0001) %MON exf_time_sec                 =   3.6000000000000E+03
(PID.TID 0000.0001) %MON exf_ustress_max              =   5.2215336216899E-02
(PID.TID 0000.0001) %MON exf_ustress_min              =  -9.3781516255246E-02
(PID.TID 0000.0001) %MON exf_ustress_mean             =   1.7908664813945E-02
(PID.TID 0000.0001) %MON exf_ustress_sd               =   2.3677824520119E-02
(PID.TID 0000.0001) %MON exf_ustress_del2             =   2.8185945121624E-03
(PID.TID 0000.0001) %MON exf_vstress_max              =   5.3823846971061E-02
(PID.TID 0000.0001) %MON exf_vstress_min              =  -5.8521115502029E-02
(PID.TID 0000.0001) %MON exf_vstress_mean             =  -5.4709257304531E-03
(PID.TID 0000.0001) %MON exf_vstress_sd               =   1.4440702294892E-02
(PID.TID 0000.0001) %MON exf_vstress_del2             =   1.6942466375470E-03
(PID.TID 0000.0001) %MON exf_hflux_max                =   6.2467472133264E+02
(PID.TID 0000.0001) %MON exf_hflux_min                =  -5.4116825759641E+01
(PID.TID 0000.0001) %MON exf_hflux_mean               =   1.4693364847073E+02
(PID.TID 0000.0001) %MON exf_hflux_sd                 =   1.8156698860139E+02
(PID.TID 0000.0001) %MON exf_hflux_del2               =   1.6567547708346E+01
(PID.TID 0000.0001) %MON exf_sflux_max                =   3.9008935708334E-08
(PID.TID 0000.0001) %MON exf_sflux_min                =  -8.8902774357601E-08
(PID.TID 0000.0001) %MON exf_sflux_mean               =  -2.5876940685263E-08
(PID.TID 0000.0001) %MON exf_sflux_sd                 =   3.0537598406995E-08
(PID.TID 0000.0001) %MON exf_sflux_del2               =   3.1605976719929E-09
(PID.TID 0000.0001) %MON exf_uwind_max                =   6.4648819946852E+00
(PID.TID 0000.0001) %MON exf_uwind_min                =  -6.8372648550513E+00
(PID.TID 0000.0001) %MON exf_uwind_mean               =   2.7698802859476E+00
(PID.TID 0000.0001) %MON exf_uwind_sd                 =   2.9903162155877E+00
(PID.TID 0000.0001) %MON exf_uwind_del2               =   3.1571785161521E-01
(PID.TID 0000.0001) %MON exf_vwind_max                =   3.9240983933048E+00
(PID.TID 0000.0001) %MON exf_vwind_min                =  -6.0187974783892E+00
(PID.TID 0000.0001) %MON exf_vwind_mean               =  -7.6028090815952E-01
(PID.TID 0000.0001) %MON exf_vwind_sd                 =   1.7294518007626E+00
(PID.TID 0000.0001) %MON exf_vwind_del2               =   1.9332576748242E-01
(PID.TID 0000.0001) %MON exf_wspeed_max               =   7.8833202965791E+00
(PID.TID 0000.0001) %MON exf_wspeed_min               =   4.6010935417159E-01
(PID.TID 0000.0001) %MON exf_wspeed_mean              =   4.1982241536133E+00
(PID.TID 0000.0001) %MON exf_wspeed_sd                =   1.5994287774633E+00
(PID.TID 0000.0001) %MON exf_wspeed_del2              =   3.7699000842292E-01
(PID.TID 0000.0001) %MON exf_atemp_max                =   2.8188110034713E+02
(PID.TID 0000.0001) %MON exf_atemp_min                =   2.3645730413635E+02
(PID.TID 0000.0001) %MON exf_atemp_mean               =   2.6394141375606E+02
(PID.TID 0000.0001) %MON exf_atemp_sd                 =   1.1984878226631E+01
(PID.TID 0000.0001) %MON exf_atemp_del2               =   6.4944209295109E-01
(PID.TID 0000.0001) %MON exf_aqh_max                  =   6.3224764028055E-03
(PID.TID 0000.0001) %MON exf_aqh_min                  =   1.6359864467567E-04
(PID.TID 0000.0001) %MON exf_aqh_mean                 =   2.4798025537840E-03
(PID.TID 0000.0001) %MON exf_aqh_sd                   =   1.4264043737180E-03
(PID.TID 0000.0001) %MON exf_aqh_del2                 =   6.8128113038494E-05
(PID.TID 0000.0001) %MON exf_lwflux_max               =   1.8380784776361E+02
(PID.TID 0000.0001) %MON exf_lwflux_min               =   2.6472644798215E+01
(PID.TID 0000.0001) %MON exf_lwflux_mean              =   7.5350572632925E+01
(PID.TID 0000.0001) %MON exf_lwflux_sd                =   4.3134595524386E+01
(PID.TID 0000.0001) %MON exf_lwflux_del2              =   3.2390977067912E+00
(PID.TID 0000.0001) %MON exf_precip_max               =   1.0498904445033E-07
(PID.TID 0000.0001) %MON exf_precip_min               =   2.7346106047101E-10
(PID.TID 0000.0001) %MON exf_precip_mean              =   3.6390069699050E-08
(PID.TID 0000.0001) %MON exf_precip_sd                =   2.0578598603627E-08
(PID.TID 0000.0001) %MON exf_precip_del2              =   2.5556826789328E-09
(PID.TID 0000.0001) %MON exf_snowprecip_max           =   0.0000000000000E+00
(PID.TID 0000.0001) %MON exf_snowprecip_min           =   0.0000000000000E+00
(PID.TID 0000.0001) %MON exf_snowprecip_mean          =   0.0000000000000E+00
(PID.TID 0000.0001) %MON exf_snowprecip_sd            =   0.0000000000000E+00
(PID.TID 0000.0001) %MON exf_snowprecip_del2          =   0.0000000000000E+00
(PID.TID 0000.0001) %MON exf_swflux_max               =  -8.1206038349965E-02
(PID.TID 0000.0001) %MON exf_swflux_min               =  -6.3991984364244E+01
(PID.TID 0000.0001) %MON exf_swflux_mean              =  -2.6463755238823E+01
(PID.TID 0000.0001) %MON exf_swflux_sd                =   1.9629736696482E+01
(PID.TID 0000.0001) %MON exf_swflux_del2              =   4.7911963949881E-01
(PID.TID 0000.0001) %MON exf_evap_max                 =   4.5332480821497E-08
(PID.TID 0000.0001) %MON exf_evap_min                 =  -4.7524365011618E-09
(PID.TID 0000.0001) %MON exf_evap_mean                =   1.0513129013787E-08
(PID.TID 0000.0001) %MON exf_evap_sd                  =   1.1274583021708E-08
(PID.TID 0000.0001) %MON exf_evap_del2                =   1.3716110068495E-09
(PID.TID 0000.0001) %MON exf_swdown_max               =   7.1102204849160E+01
(PID.TID 0000.0001) %MON exf_swdown_min               =   9.0228931499961E-02
(PID.TID 0000.0001) %MON exf_swdown_mean              =   2.9404172487581E+01
(PID.TID 0000.0001) %MON exf_swdown_sd                =   2.1810818551646E+01
(PID.TID 0000.0001) %MON exf_swdown_del2              =   5.3235515499868E-01
(PID.TID 0000.0001) %MON exf_lwdown_max               =   3.0567089193375E+02
(PID.TID 0000.0001) %MON exf_lwdown_min               =   1.1598258522951E+02
(PID.TID 0000.0001) %MON exf_lwdown_mean              =   2.2593360963007E+02
(PID.TID 0000.0001) %MON exf_lwdown_sd                =   4.6281398610271E+01
(PID.TID 0000.0001) %MON exf_lwdown_del2              =   3.2438329367646E+00
(PID.TID 0000.0001) %MON exf_apressure_max            =   0.0000000000000E+00
(PID.TID 0000.0001) %MON exf_apressure_min            =   0.0000000000000E+00
(PID.TID 0000.0001) %MON exf_apressure_mean           =   0.0000000000000E+00
(PID.TID 0000.0001) %MON exf_apressure_sd             =   0.0000000000000E+00
(PID.TID 0000.0001) %MON exf_apressure_del2           =   0.0000000000000E+00
(PID.TID 0000.0001) %MON exf_runoff_max               =   0.0000000000000E+00
(PID.TID 0000.0001) %MON exf_runoff_min               =   0.0000000000000E+00
(PID.TID 0000.0001) %MON exf_runoff_mean              =   0.0000000000000E+00
(PID.TID 0000.0001) %MON exf_runoff_sd                =   0.0000000000000E+00
(PID.TID 0000.0001) %MON exf_runoff_del2              =   0.0000000000000E+00
(PID.TID 0000.0001) %MON exf_climsst_max              =   0.0000000000000E+00
(PID.TID 0000.0001) %MON exf_climsst_min              =   0.0000000000000E+00
(PID.TID 0000.0001) %MON exf_climsst_mean             =   0.0000000000000E+00
(PID.TID 0000.0001) %MON exf_climsst_sd               =   0.0000000000000E+00
(PID.TID 0000.0001) %MON exf_climsst_del2             =   0.0000000000000E+00
(PID.TID 0000.0001) %MON exf_climsss_max              =   3.5040515633880E+01
(PID.TID 0000.0001) %MON exf_climsss_min              =   3.0667072499385E+01
(PID.TID 0000.0001) %MON exf_climsss_mean             =   3.3459840934468E+01
(PID.TID 0000.0001) %MON exf_climsss_sd               =   1.0318832207269E+00
(PID.TID 0000.0001) %MON exf_climsss_del2             =   1.0017673217099E-01
(PID.TID 0000.0001) // =======================================================
(PID.TID 0000.0001) // End MONITOR EXF statistics
(PID.TID 0000.0001) // =======================================================
 ph-ice B  1  0.  0.  0.
 ph-ice C  1  1.03662085E+11
 cg2d: Sum(rhs),rhsMax =   9.71447922104574E-10  1.19254195625089E+00
(PID.TID 0000.0001)                    cg2d_init_res =    3.42702661591674E-01
(PID.TID 0000.0001)                       cg2d_iters =    32
(PID.TID 0000.0001)                         cg2d_res =    9.03938881282391E-09
(PID.TID 0000.0001) // =======================================================
(PID.TID 0000.0001) // Begin MONITOR dynamic field statistics
(PID.TID 0000.0001) // =======================================================
(PID.TID 0000.0001) %MON time_tsnumber                =                     2
(PID.TID 0000.0001) %MON time_secondsf                =   7.2000000000000E+03
(PID.TID 0000.0001) %MON dynstat_eta_max              =   2.8992812956102E-01
(PID.TID 0000.0001) %MON dynstat_eta_min              =  -1.2878936148241E-01
(PID.TID 0000.0001) %MON dynstat_eta_mean             =   1.2866175119973E-11
(PID.TID 0000.0001) %MON dynstat_eta_sd               =   7.5355085992522E-02
(PID.TID 0000.0001) %MON dynstat_eta_del2             =   7.7085970168558E-03
(PID.TID 0000.0001) %MON dynstat_uvel_max             =   5.9720149269164E-02
(PID.TID 0000.0001) %MON dynstat_uvel_min             =  -4.2340999214729E-02
(PID.TID 0000.0001) %MON dynstat_uvel_mean            =  -8.1006338379937E-04
(PID.TID 0000.0001) %MON dynstat_uvel_sd              =   5.0141029436357E-03
(PID.TID 0000.0001) %MON dynstat_uvel_del2            =   2.1138308356570E-03
(PID.TID 0000.0001) %MON dynstat_vvel_max             =   4.3235967284088E-02
(PID.TID 0000.0001) %MON dynstat_vvel_min             =  -4.4076075144155E-02
(PID.TID 0000.0001) %MON dynstat_vvel_mean            =  -1.5751153660488E-03
(PID.TID 0000.0001) %MON dynstat_vvel_sd              =   7.2685316929860E-03
(PID.TID 0000.0001) %MON dynstat_vvel_del2            =   1.5688286519248E-03
(PID.TID 0000.0001) %MON dynstat_wvel_max             =   1.7541801853471E-04
(PID.TID 0000.0001) %MON dynstat_wvel_min             =  -6.9168487853473E-05
(PID.TID 0000.0001) %MON dynstat_wvel_mean            =   8.0323769614119E-22
(PID.TID 0000.0001) %MON dynstat_wvel_sd              =   3.2644143590826E-05
(PID.TID 0000.0001) %MON dynstat_wvel_del2            =   5.5478547981162E-06
(PID.TID 0000.0001) %MON dynstat_theta_max            =   1.3366624605108E+01
(PID.TID 0000.0001) %MON dynstat_theta_min            =  -2.0025839172992E+00
(PID.TID 0000.0001) %MON dynstat_theta_mean           =   3.0738410526601E+00
(PID.TID 0000.0001) %MON dynstat_theta_sd             =   1.4273875105040E+00
(PID.TID 0000.0001) %MON dynstat_theta_del2           =   9.6510523825180E-02
(PID.TID 0000.0001) %MON dynstat_salt_max             =   3.5450855869206E+01
(PID.TID 0000.0001) %MON dynstat_salt_min             =   2.6685821406638E+01
(PID.TID 0000.0001) %MON dynstat_salt_mean            =   3.4740181683503E+01
(PID.TID 0000.0001) %MON dynstat_salt_sd              =   5.5670641495951E-01
(PID.TID 0000.0001) %MON dynstat_salt_del2            =   3.9522466250519E-02
(PID.TID 0000.0001) %MON dynstat_sst_max              =   5.7511779425883E+00
(PID.TID 0000.0001) %MON dynstat_sst_min              =  -2.0025839172992E+00
(PID.TID 0000.0001) %MON dynstat_sst_mean             =  -1.1590547268764E+00
(PID.TID 0000.0001) %MON dynstat_sst_sd               =   1.5107954043383E+00
(PID.TID 0000.0001) %MON dynstat_sst_del2             =   6.5223708043124E-02
(PID.TID 0000.0001) %MON dynstat_sss_max              =   3.2012950851310E+01
(PID.TID 0000.0001) %MON dynstat_sss_min              =   2.6685821406638E+01
(PID.TID 0000.0001) %MON dynstat_sss_mean             =   3.0344987844033E+01
(PID.TID 0000.0001) %MON dynstat_sss_sd               =   1.1642252759370E+00
(PID.TID 0000.0001) %MON dynstat_sss_del2             =   8.7094009801727E-02
(PID.TID 0000.0001) %MON extforcing_qnet_max          =   2.0963726200806E+04
(PID.TID 0000.0001) %MON extforcing_qnet_min          =  -5.4116825759641E+01
(PID.TID 0000.0001) %MON extforcing_qnet_mean         =   5.8756506258932E+02
(PID.TID 0000.0001) %MON extforcing_qnet_sd           =   2.7594435793119E+03
(PID.TID 0000.0001) %MON extforcing_qnet_del2         =   3.6206993370998E+02
(PID.TID 0000.0001) %MON extforcing_qsw_max           =   0.0000000000000E+00
(PID.TID 0000.0001) %MON extforcing_qsw_min           =  -5.6885480722834E+01
(PID.TID 0000.0001) %MON extforcing_qsw_mean          =  -1.5641207381890E+01
(PID.TID 0000.0001) %MON extforcing_qsw_sd            =   2.0419362726982E+01
(PID.TID 0000.0001) %MON extforcing_qsw_del2          =   1.6739330114549E+00
(PID.TID 0000.0001) %MON extforcing_empmr_max         =   2.6356237386866E-07
(PID.TID 0000.0001) %MON extforcing_empmr_min         =  -6.5304505503169E-05
(PID.TID 0000.0001) %MON extforcing_empmr_mean        =  -1.8104583874062E-06
(PID.TID 0000.0001) %MON extforcing_empmr_sd          =   8.5898093770909E-06
(PID.TID 0000.0001) %MON extforcing_empmr_del2        =   1.1292280749763E-06
(PID.TID 0000.0001) %MON extforcing_fu_max            =   7.6923721497297E-02
(PID.TID 0000.0001) %MON extforcing_fu_min            =  -3.4143561832494E-02
(PID.TID 0000.0001) %MON extforcing_fu_mean           =   2.2896871664817E-02
(PID.TID 0000.0001) %MON extforcing_fu_sd             =   2.3924621560260E-02
(PID.TID 0000.0001) %MON extforcing_fu_del2           =   2.9687139780619E-03
(PID.TID 0000.0001) %MON extforcing_fv_max            =   1.9872482268021E-02
(PID.TID 0000.0001) %MON extforcing_fv_min            =  -5.8375037909081E-02
(PID.TID 0000.0001) %MON extforcing_fv_mean           =  -9.4152939416654E-03
(PID.TID 0000.0001) %MON extforcing_fv_sd             =   1.7476895120316E-02
(PID.TID 0000.0001) %MON extforcing_fv_del2           =   2.0942831504806E-03
(PID.TID 0000.0001) %MON advcfl_uvel_max              =   1.7670314027189E-03
(PID.TID 0000.0001) %MON advcfl_vvel_max              =   7.1349420026225E-04
(PID.TID 0000.0001) %MON advcfl_wvel_max              =   1.6461136271584E-02
(PID.TID 0000.0001) %MON advcfl_W_hf_max              =   1.6934912918217E-02
(PID.TID 0000.0001) %MON pe_b_mean                    =   1.8719661056185E-05
(PID.TID 0000.0001) %MON ke_max                       =   2.0784840921682E-03
(PID.TID 0000.0001) %MON ke_mean                      =   3.1722254993015E-05
(PID.TID 0000.0001) %MON ke_vol                       =   5.3036189546438E+15
(PID.TID 0000.0001) %MON vort_r_min                   =  -4.6153419188157E-07
(PID.TID 0000.0001) %MON vort_r_max                   =   3.3399312034334E-07
(PID.TID 0000.0001) %MON vort_a_mean                  =   1.2067277956826E-04
(PID.TID 0000.0001) %MON vort_a_sd                    =   8.8107294550988E-06
(PID.TID 0000.0001) %MON vort_p_mean                  =   1.7734843690343E-04
(PID.TID 0000.0001) %MON vort_p_sd                    =   1.1691584034503E-04
(PID.TID 0000.0001) %MON surfExpan_theta_mean         =   5.0841002210371E-06
(PID.TID 0000.0001) %MON surfExpan_salt_mean          =  -3.4180592214172E-06
(PID.TID 0000.0001) // =======================================================
(PID.TID 0000.0001) // End MONITOR dynamic field statistics
(PID.TID 0000.0001) // =======================================================
(PID.TID 0000.0001) // =======================================================
(PID.TID 0000.0001) // Begin MONITOR SEAICE statistics
(PID.TID 0000.0001) // =======================================================
(PID.TID 0000.0001) %MON seaice_tsnumber              =                     2
(PID.TID 0000.0001) %MON seaice_time_sec              =   7.2000000000000E+03
(PID.TID 0000.0001) %MON seaice_uice_max              =   1.5575757117815E-01
(PID.TID 0000.0001) %MON seaice_uice_min              =  -8.0942741430966E-02
(PID.TID 0000.0001) %MON seaice_uice_mean             =   6.5168649829382E-02
(PID.TID 0000.0001) %MON seaice_uice_sd               =   6.1631643089350E-02
(PID.TID 0000.0001) %MON seaice_uice_del2             =   6.8706904523403E-03
(PID.TID 0000.0001) %MON seaice_vice_max              =   7.0616929390505E-02
(PID.TID 0000.0001) %MON seaice_vice_min              =  -1.3662299947234E-01
(PID.TID 0000.0001) %MON seaice_vice_mean             =  -2.1829812692631E-02
(PID.TID 0000.0001) %MON seaice_vice_sd               =   4.1312329526262E-02
(PID.TID 0000.0001) %MON seaice_vice_del2             =   5.3521934566396E-03
(PID.TID 0000.0001) %MON seaice_area_max              =   1.0000000000000E+00
(PID.TID 0000.0001) %MON seaice_area_min              =   0.0000000000000E+00
(PID.TID 0000.0001) %MON seaice_area_mean             =   6.2511455210173E-01
(PID.TID 0000.0001) %MON seaice_area_sd               =   4.5918073702415E-01
(PID.TID 0000.0001) %MON seaice_area_del2             =   5.3309150568192E-02
(PID.TID 0000.0001) %MON seaice_heff_max              =   5.5572638142240E-01
(PID.TID 0000.0001) %MON seaice_heff_min              =   0.0000000000000E+00
(PID.TID 0000.0001) %MON seaice_heff_mean             =   1.4211256278540E-01
(PID.TID 0000.0001) %MON seaice_heff_sd               =   1.7471336181798E-01
(PID.TID 0000.0001) %MON seaice_heff_del2             =   1.3300800072063E-02
(PID.TID 0000.0001) %MON seaice_hsnow_max             =   2.0156957952176E-01
(PID.TID 0000.0001) %MON seaice_hsnow_min             =   0.0000000000000E+00
(PID.TID 0000.0001) %MON seaice_hsnow_mean            =   1.1798259565184E-01
(PID.TID 0000.0001) %MON seaice_hsnow_sd              =   9.6675387962263E-02
(PID.TID 0000.0001) %MON seaice_hsnow_del2            =   6.3372971187471E-03
(PID.TID 0000.0001) // =======================================================
(PID.TID 0000.0001) // End MONITOR SEAICE statistics
(PID.TID 0000.0001) // =======================================================
(PID.TID 0000.0001) // =======================================================
(PID.TID 0000.0001) // Begin MONITOR EXF statistics
(PID.TID 0000.0001) // =======================================================
(PID.TID 0000.0001) %MON exf_tsnumber                 =                     2
(PID.TID 0000.0001) %MON exf_time_sec                 =   7.2000000000000E+03
(PID.TID 0000.0001) %MON exf_ustress_max              =   5.2234389551241E-02
(PID.TID 0000.0001) %MON exf_ustress_min              =  -9.3783873525021E-02
(PID.TID 0000.0001) %MON exf_ustress_mean             =   1.7912602833757E-02
(PID.TID 0000.0001) %MON exf_ustress_sd               =   2.3689566701864E-02
(PID.TID 0000.0001) %MON exf_ustress_del2             =   2.8175390184118E-03
(PID.TID 0000.0001) %MON exf_vstress_max              =   5.3825403016462E-02
(PID.TID 0000.0001) %MON exf_vstress_min              =  -5.8501907463670E-02
(PID.TID 0000.0001) %MON exf_vstress_mean             =  -5.4571894771090E-03
(PID.TID 0000.0001) %MON exf_vstress_sd               =   1.4439148783740E-02
(PID.TID 0000.0001) %MON exf_vstress_del2             =   1.6937326092935E-03
(PID.TID 0000.0001) %MON exf_hflux_max                =   6.2473671698450E+02
(PID.TID 0000.0001) %MON exf_hflux_min                =  -5.1856944043789E+01
(PID.TID 0000.0001) %MON exf_hflux_mean               =   1.4603892063602E+02
(PID.TID 0000.0001) %MON exf_hflux_sd                 =   1.8006278490683E+02
(PID.TID 0000.0001) %MON exf_hflux_del2               =   1.6304064602313E+01
(PID.TID 0000.0001) %MON exf_sflux_max                =   3.9010172880204E-08
(PID.TID 0000.0001) %MON exf_sflux_min                =  -8.8920778732677E-08
(PID.TID 0000.0001) %MON exf_sflux_mean               =  -2.5980919502074E-08
(PID.TID 0000.0001) %MON exf_sflux_sd                 =   3.0374070281473E-08
(PID.TID 0000.0001) %MON exf_sflux_del2               =   3.1602146903807E-09
(PID.TID 0000.0001) %MON exf_uwind_max                =   6.4653894471340E+00
(PID.TID 0000.0001) %MON exf_uwind_min                =  -6.8372916367536E+00
(PID.TID 0000.0001) %MON exf_uwind_mean               =   2.7699878382920E+00
(PID.TID 0000.0001) %MON exf_uwind_sd                 =   2.9905922217476E+00
(PID.TID 0000.0001) %MON exf_uwind_del2               =   3.1572575583776E-01
(PID.TID 0000.0001) %MON exf_vwind_max                =   3.9241285741003E+00
(PID.TID 0000.0001) %MON exf_vwind_min                =  -6.0178915685643E+00
(PID.TID 0000.0001) %MON exf_vwind_mean               =  -7.5966313506940E-01
(PID.TID 0000.0001) %MON exf_vwind_sd                 =   1.7295599554900E+00
(PID.TID 0000.0001) %MON exf_vwind_del2               =   1.9331889614049E-01
(PID.TID 0000.0001) %MON exf_wspeed_max               =   7.8833585477315E+00
(PID.TID 0000.0001) %MON exf_wspeed_min               =   4.5986651533145E-01
(PID.TID 0000.0001) %MON exf_wspeed_mean              =   4.1983267266652E+00
(PID.TID 0000.0001) %MON exf_wspeed_sd                =   1.5996852426804E+00
(PID.TID 0000.0001) %MON exf_wspeed_del2              =   3.7704333058266E-01
(PID.TID 0000.0001) %MON exf_atemp_max                =   2.8187938819427E+02
(PID.TID 0000.0001) %MON exf_atemp_min                =   2.3645283916869E+02
(PID.TID 0000.0001) %MON exf_atemp_mean               =   2.6393676967070E+02
(PID.TID 0000.0001) %MON exf_atemp_sd                 =   1.1986339246462E+01
(PID.TID 0000.0001) %MON exf_atemp_del2               =   6.4946142589242E-01
(PID.TID 0000.0001) %MON exf_aqh_max                  =   6.3217798619445E-03
(PID.TID 0000.0001) %MON exf_aqh_min                  =   1.6350454117726E-04
(PID.TID 0000.0001) %MON exf_aqh_mean                 =   2.4792421973794E-03
(PID.TID 0000.0001) %MON exf_aqh_sd                   =   1.4263013062694E-03
(PID.TID 0000.0001) %MON exf_aqh_del2                 =   6.8114445477348E-05
(PID.TID 0000.0001) %MON exf_lwflux_max               =   1.8153743597504E+02
(PID.TID 0000.0001) %MON exf_lwflux_min               =   2.6999313161451E+01
(PID.TID 0000.0001) %MON exf_lwflux_mean              =   7.5148003035461E+01
(PID.TID 0000.0001) %MON exf_lwflux_sd                =   4.2803183326180E+01
(PID.TID 0000.0001) %MON exf_lwflux_del2              =   3.2353096159738E+00
(PID.TID 0000.0001) %MON exf_precip_max               =   1.0499042589295E-07
(PID.TID 0000.0001) %MON exf_precip_min               =   2.7332713399833E-10
(PID.TID 0000.0001) %MON exf_precip_mean              =   3.6390058855016E-08
(PID.TID 0000.0001) %MON exf_precip_sd                =   2.0579049691733E-08
(PID.TID 0000.0001) %MON exf_precip_del2              =   2.5562103721225E-09
(PID.TID 0000.0001) %MON exf_snowprecip_max           =   0.0000000000000E+00
(PID.TID 0000.0001) %MON exf_snowprecip_min           =   0.0000000000000E+00
(PID.TID 0000.0001) %MON exf_snowprecip_mean          =   0.0000000000000E+00
(PID.TID 0000.0001) %MON exf_snowprecip_sd            =   0.0000000000000E+00
(PID.TID 0000.0001) %MON exf_snowprecip_del2          =   0.0000000000000E+00
(PID.TID 0000.0001) %MON exf_swflux_max               =  -8.1206321227746E-02
(PID.TID 0000.0001) %MON exf_swflux_min               =  -6.4010854714816E+01
(PID.TID 0000.0001) %MON exf_swflux_mean              =  -2.6474287454698E+01
(PID.TID 0000.0001) %MON exf_swflux_sd                =   1.9633572905820E+01
(PID.TID 0000.0001) %MON exf_swflux_del2              =   4.7922651344477E-01
(PID.TID 0000.0001) %MON exf_evap_max                 =   4.5333055282436E-08
(PID.TID 0000.0001) %MON exf_evap_min                 =  -4.3262573270113E-09
(PID.TID 0000.0001) %MON exf_evap_mean                =   1.0409139352942E-08
(PID.TID 0000.0001) %MON exf_evap_sd                  =   1.1101640257605E-08
(PID.TID 0000.0001) %MON exf_evap_del2                =   1.3339356630849E-09
(PID.TID 0000.0001) %MON exf_swdown_max               =   7.1123171905351E+01
(PID.TID 0000.0001) %MON exf_swdown_min               =   9.0229245808607E-02
(PID.TID 0000.0001) %MON exf_swdown_mean              =   2.9415874949665E+01
(PID.TID 0000.0001) %MON exf_swdown_sd                =   2.1815081006466E+01
(PID.TID 0000.0001) %MON exf_swdown_del2              =   5.3247390382752E-01
(PID.TID 0000.0001) %MON exf_lwdown_max               =   3.0566206584993E+02
(PID.TID 0000.0001) %MON exf_lwdown_min               =   1.1596747835086E+02
(PID.TID 0000.0001) %MON exf_lwdown_mean              =   2.2591790230100E+02
(PID.TID 0000.0001) %MON exf_lwdown_sd                =   4.6285369157136E+01
(PID.TID 0000.0001) %MON exf_lwdown_del2              =   3.2438445768374E+00
(PID.TID 0000.0001) %MON exf_apressure_max            =   0.0000000000000E+00
(PID.TID 0000.0001) %MON exf_apressure_min            =   0.0000000000000E+00
(PID.TID 0000.0001) %MON exf_apressure_mean           =   0.0000000000000E+00
(PID.TID 0000.0001) %MON exf_apressure_sd             =   0.0000000000000E+00
(PID.TID 0000.0001) %MON exf_apressure_del2           =   0.0000000000000E+00
(PID.TID 0000.0001) %MON exf_runoff_max               =   0.0000000000000E+00
(PID.TID 0000.0001) %MON exf_runoff_min               =   0.0000000000000E+00
(PID.TID 0000.0001) %MON exf_runoff_mean              =   0.0000000000000E+00
(PID.TID 0000.0001) %MON exf_runoff_sd                =   0.0000000000000E+00
(PID.TID 0000.0001) %MON exf_runoff_del2              =   0.0000000000000E+00
(PID.TID 0000.0001) %MON exf_climsst_max              =   0.0000000000000E+00
(PID.TID 0000.0001) %MON exf_climsst_min              =   0.0000000000000E+00
(PID.TID 0000.0001) %MON exf_climsst_mean             =   0.0000000000000E+00
(PID.TID 0000.0001) %MON exf_climsst_sd               =   0.0000000000000E+00
(PID.TID 0000.0001) %MON exf_climsst_del2             =   0.0000000000000E+00
(PID.TID 0000.0001) %MON exf_climsss_max              =   3.5040700380919E+01
(PID.TID 0000.0001) %MON exf_climsss_min              =   3.0667831827383E+01
(PID.TID 0000.0001) %MON exf_climsss_mean             =   3.3460362267948E+01
(PID.TID 0000.0001) %MON exf_climsss_sd               =   1.0318117788237E+00
(PID.TID 0000.0001) %MON exf_climsss_del2             =   1.0015950288060E-01
(PID.TID 0000.0001) // =======================================================
(PID.TID 0000.0001) // End MONITOR EXF statistics
(PID.TID 0000.0001) // =======================================================
 ph-ice B  2  0.  0.  0.
 ph-ice C  2  1.54286126E+11
 cg2d: Sum(rhs),rhsMax =  -4.69102350714179E-10  1.21345933320236E+00
(PID.TID 0000.0001)                    cg2d_init_res =    1.85765270732627E-01
(PID.TID 0000.0001)                       cg2d_iters =    28
(PID.TID 0000.0001)                         cg2d_res =    9.90509169011424E-09
(PID.TID 0000.0001) // =======================================================
(PID.TID 0000.0001) // Begin MONITOR dynamic field statistics
(PID.TID 0000.0001) // =======================================================
(PID.TID 0000.0001) %MON time_tsnumber                =                     3
(PID.TID 0000.0001) %MON time_secondsf                =   1.0800000000000E+04
(PID.TID 0000.0001) %MON dynstat_eta_max              =   3.1530041046234E-01
(PID.TID 0000.0001) %MON dynstat_eta_min              =  -1.4420174785253E-01
(PID.TID 0000.0001) %MON dynstat_eta_mean             =  -8.8944458834475E-10
(PID.TID 0000.0001) %MON dynstat_eta_sd               =   8.6436630057753E-02
(PID.TID 0000.0001) %MON dynstat_eta_del2             =   7.3777653354022E-03
(PID.TID 0000.0001) %MON dynstat_uvel_max             =   8.6618224030528E-02
(PID.TID 0000.0001) %MON dynstat_uvel_min             =  -5.3117841139369E-02
(PID.TID 0000.0001) %MON dynstat_uvel_mean            =  -2.3113780506603E-04
(PID.TID 0000.0001) %MON dynstat_uvel_sd              =   6.4880574020386E-03
(PID.TID 0000.0001) %MON dynstat_uvel_del2            =   2.6269411146407E-03
(PID.TID 0000.0001) %MON dynstat_vvel_max             =   6.0678090158943E-02
(PID.TID 0000.0001) %MON dynstat_vvel_min             =  -7.9021824648167E-02
(PID.TID 0000.0001) %MON dynstat_vvel_mean            =  -1.0585455347930E-03
(PID.TID 0000.0001) %MON dynstat_vvel_sd              =   9.5952495765022E-03
(PID.TID 0000.0001) %MON dynstat_vvel_del2            =   1.9437570401241E-03
(PID.TID 0000.0001) %MON dynstat_wvel_max             =   2.3600093840186E-04
(PID.TID 0000.0001) %MON dynstat_wvel_min             =  -1.0966086270632E-04
(PID.TID 0000.0001) %MON dynstat_wvel_mean            =   1.5076153681419E-21
(PID.TID 0000.0001) %MON dynstat_wvel_sd              =   4.0744518959684E-05
(PID.TID 0000.0001) %MON dynstat_wvel_del2            =   6.3640885797471E-06
(PID.TID 0000.0001) %MON dynstat_theta_max            =   1.3365870735736E+01
(PID.TID 0000.0001) %MON dynstat_theta_min            =  -1.9766557930764E+00
(PID.TID 0000.0001) %MON dynstat_theta_mean           =   3.0738209655005E+00
(PID.TID 0000.0001) %MON dynstat_theta_sd             =   1.4273357974006E+00
(PID.TID 0000.0001) %MON dynstat_theta_del2           =   9.6362209589114E-02
(PID.TID 0000.0001) %MON dynstat_salt_max             =   3.5451036133871E+01
(PID.TID 0000.0001) %MON dynstat_salt_min             =   2.6688191541084E+01
(PID.TID 0000.0001) %MON dynstat_salt_mean            =   3.4740193663755E+01
(PID.TID 0000.0001) %MON dynstat_salt_sd              =   5.5656835468791E-01
(PID.TID 0000.0001) %MON dynstat_salt_del2            =   3.9426678941310E-02
(PID.TID 0000.0001) %MON dynstat_sst_max              =   5.7624194639025E+00
(PID.TID 0000.0001) %MON dynstat_sst_min              =  -1.9766557930764E+00
(PID.TID 0000.0001) %MON dynstat_sst_mean             =  -1.1583082772898E+00
(PID.TID 0000.0001) %MON dynstat_sst_sd               =   1.5150877013060E+00
(PID.TID 0000.0001) %MON dynstat_sst_del2             =   6.4065609174013E-02
(PID.TID 0000.0001) %MON dynstat_sss_max              =   3.2008621848096E+01
(PID.TID 0000.0001) %MON dynstat_sss_min              =   2.6688191541084E+01
(PID.TID 0000.0001) %MON dynstat_sss_mean             =   3.0347133255636E+01
(PID.TID 0000.0001) %MON dynstat_sss_sd               =   1.1640336785667E+00
(PID.TID 0000.0001) %MON dynstat_sss_del2             =   8.6781780698456E-02
(PID.TID 0000.0001) %MON extforcing_qnet_max          =   3.5519782148937E+02
(PID.TID 0000.0001) %MON extforcing_qnet_min          =  -4.7155517622396E+02
(PID.TID 0000.0001) %MON extforcing_qnet_mean         =   1.8288739439561E+01
(PID.TID 0000.0001) %MON extforcing_qnet_sd           =   1.3829762853814E+02
(PID.TID 0000.0001) %MON extforcing_qnet_del2         =   3.4553880659451E+01
(PID.TID 0000.0001) %MON extforcing_qsw_max           =   0.0000000000000E+00
(PID.TID 0000.0001) %MON extforcing_qsw_min           =  -5.6896544903614E+01
(PID.TID 0000.0001) %MON extforcing_qsw_mean          =  -1.5859418543714E+01
(PID.TID 0000.0001) %MON extforcing_qsw_sd            =   2.0559295469623E+01
(PID.TID 0000.0001) %MON extforcing_qsw_del2          =   1.8466592644851E+00
(PID.TID 0000.0001) %MON extforcing_empmr_max         =   1.4703736837690E-06
(PID.TID 0000.0001) %MON extforcing_empmr_min         =  -1.0741931666950E-06
(PID.TID 0000.0001) %MON extforcing_empmr_mean        =  -3.4799315809027E-08
(PID.TID 0000.0001) %MON extforcing_empmr_sd          =   4.2115285728047E-07
(PID.TID 0000.0001) %MON extforcing_empmr_del2        =   1.0569408262148E-07
(PID.TID 0000.0001) %MON extforcing_fu_max            =   7.9415185271226E-02
(PID.TID 0000.0001) %MON extforcing_fu_min            =  -4.0189246213043E-02
(PID.TID 0000.0001) %MON extforcing_fu_mean           =   2.3288971488786E-02
(PID.TID 0000.0001) %MON extforcing_fu_sd             =   2.5193372707514E-02
(PID.TID 0000.0001) %MON extforcing_fu_del2           =   3.2942742787107E-03
(PID.TID 0000.0001) %MON extforcing_fv_max            =   2.3749769638127E-02
(PID.TID 0000.0001) %MON extforcing_fv_min            =  -5.9938634416108E-02
(PID.TID 0000.0001) %MON extforcing_fv_mean           =  -9.7658720379760E-03
(PID.TID 0000.0001) %MON extforcing_fv_sd             =   1.8156926873990E-02
(PID.TID 0000.0001) %MON extforcing_fv_del2           =   2.0535120156117E-03
(PID.TID 0000.0001) %MON advcfl_uvel_max              =   2.3453861824202E-03
(PID.TID 0000.0001) %MON advcfl_vvel_max              =   1.2791886164139E-03
(PID.TID 0000.0001) %MON advcfl_wvel_max              =   9.4480894941959E-03
(PID.TID 0000.0001) %MON advcfl_W_hf_max              =   9.2038647680880E-03
(PID.TID 0000.0001) %MON pe_b_mean                    =   2.4630231538860E-05
(PID.TID 0000.0001) %MON ke_max                       =   4.8376081350733E-03
(PID.TID 0000.0001) %MON ke_mean                      =   5.2925896314021E-05
(PID.TID 0000.0001) %MON ke_vol                       =   5.3036189546438E+15
(PID.TID 0000.0001) %MON vort_r_min                   =  -7.1923457491660E-07
(PID.TID 0000.0001) %MON vort_r_max                   =   4.9963823511391E-07
(PID.TID 0000.0001) %MON vort_a_mean                  =   1.2067277916258E-04
(PID.TID 0000.0001) %MON vort_a_sd                    =   8.8112999089836E-06
(PID.TID 0000.0001) %MON vort_p_mean                  =   1.7734843630721E-04
(PID.TID 0000.0001) %MON vort_p_sd                    =   1.1691440869848E-04
(PID.TID 0000.0001) %MON surfExpan_theta_mean         =   3.2300448887720E-06
(PID.TID 0000.0001) %MON surfExpan_salt_mean          =  -1.6842016836886E-06
(PID.TID 0000.0001) // =======================================================
(PID.TID 0000.0001) // End MONITOR dynamic field statistics
(PID.TID 0000.0001) // =======================================================
(PID.TID 0000.0001) // =======================================================
(PID.TID 0000.0001) // Begin MONITOR SEAICE statistics
(PID.TID 0000.0001) // =======================================================
(PID.TID 0000.0001) %MON seaice_tsnumber              =                     3
(PID.TID 0000.0001) %MON seaice_time_sec              =   1.0800000000000E+04
(PID.TID 0000.0001) %MON seaice_uice_max              =   1.7677554873066E-01
(PID.TID 0000.0001) %MON seaice_uice_min              =  -9.9473388719800E-02
(PID.TID 0000.0001) %MON seaice_uice_mean             =   7.5385002134152E-02
(PID.TID 0000.0001) %MON seaice_uice_sd               =   7.1157132925500E-02
(PID.TID 0000.0001) %MON seaice_uice_del2             =   8.3170550197998E-03
(PID.TID 0000.0001) %MON seaice_vice_max              =   8.9019951763650E-02
(PID.TID 0000.0001) %MON seaice_vice_min              =  -1.7696029803923E-01
(PID.TID 0000.0001) %MON seaice_vice_mean             =  -2.9256776467238E-02
(PID.TID 0000.0001) %MON seaice_vice_sd               =   5.2264404142873E-02
(PID.TID 0000.0001) %MON seaice_vice_del2             =   6.1178194889854E-03
(PID.TID 0000.0001) %MON seaice_area_max              =   1.0000000000000E+00
(PID.TID 0000.0001) %MON seaice_area_min              =   0.0000000000000E+00
(PID.TID 0000.0001) %MON seaice_area_mean             =   6.2473165128378E-01
(PID.TID 0000.0001) %MON seaice_area_sd               =   4.5913418284737E-01
(PID.TID 0000.0001) %MON seaice_area_del2             =   5.3480662075854E-02
(PID.TID 0000.0001) %MON seaice_heff_max              =   5.5368221576291E-01
(PID.TID 0000.0001) %MON seaice_heff_min              =   0.0000000000000E+00
(PID.TID 0000.0001) %MON seaice_heff_mean             =   1.4210539863367E-01
(PID.TID 0000.0001) %MON seaice_heff_sd               =   1.7434508667247E-01
(PID.TID 0000.0001) %MON seaice_heff_del2             =   1.3231250044035E-02
(PID.TID 0000.0001) %MON seaice_hsnow_max             =   2.0235454638389E-01
(PID.TID 0000.0001) %MON seaice_hsnow_min             =   0.0000000000000E+00
(PID.TID 0000.0001) %MON seaice_hsnow_mean            =   1.1801725658723E-01
(PID.TID 0000.0001) %MON seaice_hsnow_sd              =   9.6786605530350E-02
(PID.TID 0000.0001) %MON seaice_hsnow_del2            =   6.3531464967009E-03
(PID.TID 0000.0001) // =======================================================
(PID.TID 0000.0001) // End MONITOR SEAICE statistics
(PID.TID 0000.0001) // =======================================================
(PID.TID 0000.0001) // =======================================================
(PID.TID 0000.0001) // Begin MONITOR EXF statistics
(PID.TID 0000.0001) // =======================================================
(PID.TID 0000.0001) %MON exf_tsnumber                 =                     3
(PID.TID 0000.0001) %MON exf_time_sec                 =   1.0800000000000E+04
(PID.TID 0000.0001) %MON exf_ustress_max              =   5.2220278364572E-02
(PID.TID 0000.0001) %MON exf_ustress_min              =  -9.3786644941843E-02
(PID.TID 0000.0001) %MON exf_ustress_mean             =   1.7925095706550E-02
(PID.TID 0000.0001) %MON exf_ustress_sd               =   2.3700143525746E-02
(PID.TID 0000.0001) %MON exf_ustress_del2             =   2.8158746957697E-03
(PID.TID 0000.0001) %MON exf_vstress_max              =   5.3827196762903E-02
(PID.TID 0000.0001) %MON exf_vstress_min              =  -5.8480358160305E-02
(PID.TID 0000.0001) %MON exf_vstress_mean             =  -5.4532182115270E-03
(PID.TID 0000.0001) %MON exf_vstress_sd               =   1.4440792530157E-02
(PID.TID 0000.0001) %MON exf_vstress_del2             =   1.6929393308108E-03
(PID.TID 0000.0001) %MON exf_hflux_max                =   6.2482499785037E+02
(PID.TID 0000.0001) %MON exf_hflux_min                =  -5.1652096229497E+01
(PID.TID 0000.0001) %MON exf_hflux_mean               =   1.4608871041864E+02
(PID.TID 0000.0001) %MON exf_hflux_sd                 =   1.8003233595359E+02
(PID.TID 0000.0001) %MON exf_hflux_del2               =   1.6307605461400E+01
(PID.TID 0000.0001) %MON exf_sflux_max                =   3.9014761130189E-08
(PID.TID 0000.0001) %MON exf_sflux_min                =  -8.8949891199064E-08
(PID.TID 0000.0001) %MON exf_sflux_mean               =  -2.5974537170783E-08
(PID.TID 0000.0001) %MON exf_sflux_sd                 =   3.0366720984824E-08
(PID.TID 0000.0001) %MON exf_sflux_del2               =   3.1622834204673E-09
(PID.TID 0000.0001) %MON exf_uwind_max                =   6.4658968995829E+00
(PID.TID 0000.0001) %MON exf_uwind_min                =  -6.8373184184559E+00
(PID.TID 0000.0001) %MON exf_uwind_mean               =   2.7700953906364E+00
(PID.TID 0000.0001) %MON exf_uwind_sd                 =   2.9908682681638E+00
(PID.TID 0000.0001) %MON exf_uwind_del2               =   3.1573366006031E-01
(PID.TID 0000.0001) %MON exf_vwind_max                =   3.9241587548959E+00
(PID.TID 0000.0001) %MON exf_vwind_min                =  -6.0169856587394E+00
(PID.TID 0000.0001) %MON exf_vwind_mean               =  -7.5904536197929E-01
(PID.TID 0000.0001) %MON exf_vwind_sd                 =   1.7296682234552E+00
(PID.TID 0000.0001) %MON exf_vwind_del2               =   1.9331202479855E-01
(PID.TID 0000.0001) %MON exf_wspeed_max               =   7.8833967989048E+00
(PID.TID 0000.0001) %MON exf_wspeed_min               =   4.5962367887737E-01
(PID.TID 0000.0001) %MON exf_wspeed_mean              =   4.1984294286706E+00
(PID.TID 0000.0001) %MON exf_wspeed_sd                =   1.5999418201857E+00
(PID.TID 0000.0001) %MON exf_wspeed_del2              =   3.7709664625274E-01
(PID.TID 0000.0001) %MON exf_atemp_max                =   2.8187767604140E+02
(PID.TID 0000.0001) %MON exf_atemp_min                =   2.3644837420104E+02
(PID.TID 0000.0001) %MON exf_atemp_mean               =   2.6393212558534E+02
(PID.TID 0000.0001) %MON exf_atemp_sd                 =   1.1987800753926E+01
(PID.TID 0000.0001) %MON exf_atemp_del2               =   6.4948075883375E-01
(PID.TID 0000.0001) %MON exf_aqh_max                  =   6.3210833210834E-03
(PID.TID 0000.0001) %MON exf_aqh_min                  =   1.6341043767886E-04
(PID.TID 0000.0001) %MON exf_aqh_mean                 =   2.4786818409748E-03
(PID.TID 0000.0001) %MON exf_aqh_sd                   =   1.4261982746893E-03
(PID.TID 0000.0001) %MON exf_aqh_del2                 =   6.8100777916201E-05
(PID.TID 0000.0001) %MON exf_lwflux_max               =   1.8153866759519E+02
(PID.TID 0000.0001) %MON exf_lwflux_min               =   2.7117659269148E+01
(PID.TID 0000.0001) %MON exf_lwflux_mean              =   7.5167336267018E+01
(PID.TID 0000.0001) %MON exf_lwflux_sd                =   4.2791334919690E+01
(PID.TID 0000.0001) %MON exf_lwflux_del2              =   3.2353470329106E+00
(PID.TID 0000.0001) %MON exf_precip_max               =   1.0499180733557E-07
(PID.TID 0000.0001) %MON exf_precip_min               =   2.7319320752566E-10
(PID.TID 0000.0001) %MON exf_precip_mean              =   3.6390048010982E-08
(PID.TID 0000.0001) %MON exf_precip_sd                =   2.0579501435483E-08
(PID.TID 0000.0001) %MON exf_precip_del2              =   2.5567380653122E-09
(PID.TID 0000.0001) %MON exf_snowprecip_max           =   0.0000000000000E+00
(PID.TID 0000.0001) %MON exf_snowprecip_min           =   0.0000000000000E+00
(PID.TID 0000.0001) %MON exf_snowprecip_mean          =   0.0000000000000E+00
(PID.TID 0000.0001) %MON exf_snowprecip_sd            =   0.0000000000000E+00
(PID.TID 0000.0001) %MON exf_snowprecip_del2          =   0.0000000000000E+00
(PID.TID 0000.0001) %MON exf_swflux_max               =  -8.1206604105527E-02
(PID.TID 0000.0001) %MON exf_swflux_min               =  -6.4029725065388E+01
(PID.TID 0000.0001) %MON exf_swflux_mean              =  -2.6484819670573E+01
(PID.TID 0000.0001) %MON exf_swflux_sd                =   1.9637409707136E+01
(PID.TID 0000.0001) %MON exf_swflux_del2              =   4.7933338739073E-01
(PID.TID 0000.0001) %MON exf_evap_max                 =   4.5336980821491E-08
(PID.TID 0000.0001) %MON exf_evap_min                 =  -4.2852111092977E-09
(PID.TID 0000.0001) %MON exf_evap_mean                =   1.0415510840199E-08
(PID.TID 0000.0001) %MON exf_evap_sd                  =   1.1091288891026E-08
(PID.TID 0000.0001) %MON exf_evap_del2                =   1.3330271329587E-09
(PID.TID 0000.0001) %MON exf_swdown_max               =   7.1144138961542E+01
(PID.TID 0000.0001) %MON exf_swdown_min               =   9.0229560117253E-02
(PID.TID 0000.0001) %MON exf_swdown_mean              =   2.9427577411748E+01
(PID.TID 0000.0001) %MON exf_swdown_sd                =   2.1819344119040E+01
(PID.TID 0000.0001) %MON exf_swdown_del2              =   5.3259265265636E-01
(PID.TID 0000.0001) %MON exf_lwdown_max               =   3.0565323976611E+02
(PID.TID 0000.0001) %MON exf_lwdown_min               =   1.1595237147222E+02
(PID.TID 0000.0001) %MON exf_lwdown_mean              =   2.2590219497194E+02
(PID.TID 0000.0001) %MON exf_lwdown_sd                =   4.6289340871590E+01
(PID.TID 0000.0001) %MON exf_lwdown_del2              =   3.2438562169101E+00
(PID.TID 0000.0001) %MON exf_apressure_max            =   0.0000000000000E+00
(PID.TID 0000.0001) %MON exf_apressure_min            =   0.0000000000000E+00
(PID.TID 0000.0001) %MON exf_apressure_mean           =   0.0000000000000E+00
(PID.TID 0000.0001) %MON exf_apressure_sd             =   0.0000000000000E+00
(PID.TID 0000.0001) %MON exf_apressure_del2           =   0.0000000000000E+00
(PID.TID 0000.0001) %MON exf_runoff_max               =   0.0000000000000E+00
(PID.TID 0000.0001) %MON exf_runoff_min               =   0.0000000000000E+00
(PID.TID 0000.0001) %MON exf_runoff_mean              =   0.0000000000000E+00
(PID.TID 0000.0001) %MON exf_runoff_sd                =   0.0000000000000E+00
(PID.TID 0000.0001) %MON exf_runoff_del2              =   0.0000000000000E+00
(PID.TID 0000.0001) %MON exf_climsst_max              =   0.0000000000000E+00
(PID.TID 0000.0001) %MON exf_climsst_min              =   0.0000000000000E+00
(PID.TID 0000.0001) %MON exf_climsst_mean             =   0.0000000000000E+00
(PID.TID 0000.0001) %MON exf_climsst_sd               =   0.0000000000000E+00
(PID.TID 0000.0001) %MON exf_climsst_del2             =   0.0000000000000E+00
(PID.TID 0000.0001) %MON exf_climsss_max              =   3.5040885127959E+01
(PID.TID 0000.0001) %MON exf_climsss_min              =   3.0668591155380E+01
(PID.TID 0000.0001) %MON exf_climsss_mean             =   3.3460883601427E+01
(PID.TID 0000.0001) %MON exf_climsss_sd               =   1.0317405668875E+00
(PID.TID 0000.0001) %MON exf_climsss_del2             =   1.0014227359021E-01
(PID.TID 0000.0001) // =======================================================
(PID.TID 0000.0001) // End MONITOR EXF statistics
(PID.TID 0000.0001) // =======================================================
 ph-ice B  3  0.  0.  0.
 ph-ice C  3  2.0493353E+11
 cg2d: Sum(rhs),rhsMax =   3.25075259870189E-08  1.21053584963592E+00
(PID.TID 0000.0001)                    cg2d_init_res =    1.38230317257418E-01
(PID.TID 0000.0001)                       cg2d_iters =    31
(PID.TID 0000.0001)                         cg2d_res =    7.04315609827494E-09
(PID.TID 0000.0001) // =======================================================
(PID.TID 0000.0001) // Begin MONITOR dynamic field statistics
(PID.TID 0000.0001) // =======================================================
(PID.TID 0000.0001) %MON time_tsnumber                =                     4
(PID.TID 0000.0001) %MON time_secondsf                =   1.4400000000000E+04
(PID.TID 0000.0001) %MON dynstat_eta_max              =   3.2436391193306E-01
(PID.TID 0000.0001) %MON dynstat_eta_min              =  -1.3494636268281E-01
(PID.TID 0000.0001) %MON dynstat_eta_mean             =  -8.7906608125538E-10
(PID.TID 0000.0001) %MON dynstat_eta_sd               =   8.7652254606058E-02
(PID.TID 0000.0001) %MON dynstat_eta_del2             =   6.6917251305764E-03
(PID.TID 0000.0001) %MON dynstat_uvel_max             =   1.0004009519353E-01
(PID.TID 0000.0001) %MON dynstat_uvel_min             =  -5.1395737101095E-02
(PID.TID 0000.0001) %MON dynstat_uvel_mean            =   2.8082155497023E-04
(PID.TID 0000.0001) %MON dynstat_uvel_sd              =   7.6381851522740E-03
(PID.TID 0000.0001) %MON dynstat_uvel_del2            =   2.9331101693667E-03
(PID.TID 0000.0001) %MON dynstat_vvel_max             =   7.5461126363640E-02
(PID.TID 0000.0001) %MON dynstat_vvel_min             =  -1.1151699571415E-01
(PID.TID 0000.0001) %MON dynstat_vvel_mean            =  -6.6911853527331E-04
(PID.TID 0000.0001) %MON dynstat_vvel_sd              =   1.1151369989647E-02
(PID.TID 0000.0001) %MON dynstat_vvel_del2            =   2.1291793406543E-03
(PID.TID 0000.0001) %MON dynstat_wvel_max             =   2.9930745817780E-04
(PID.TID 0000.0001) %MON dynstat_wvel_min             =  -1.6281481797081E-04
(PID.TID 0000.0001) %MON dynstat_wvel_mean            =   7.5380768407097E-22
(PID.TID 0000.0001) %MON dynstat_wvel_sd              =   4.9715654343248E-05
(PID.TID 0000.0001) %MON dynstat_wvel_del2            =   6.7107692680153E-06
(PID.TID 0000.0001) %MON dynstat_theta_max            =   1.3359610619368E+01
(PID.TID 0000.0001) %MON dynstat_theta_min            =  -1.9723739491758E+00
(PID.TID 0000.0001) %MON dynstat_theta_mean           =   3.0738094681829E+00
(PID.TID 0000.0001) %MON dynstat_theta_sd             =   1.4272693893420E+00
(PID.TID 0000.0001) %MON dynstat_theta_del2           =   9.6278899646411E-02
(PID.TID 0000.0001) %MON dynstat_salt_max             =   3.5451220110877E+01
(PID.TID 0000.0001) %MON dynstat_salt_min             =   2.6690740493068E+01
(PID.TID 0000.0001) %MON dynstat_salt_mean            =   3.4740201967427E+01
(PID.TID 0000.0001) %MON dynstat_salt_sd              =   5.5645099659660E-01
(PID.TID 0000.0001) %MON dynstat_salt_del2            =   3.9392289362519E-02
(PID.TID 0000.0001) %MON dynstat_sst_max              =   5.7666242228884E+00
(PID.TID 0000.0001) %MON dynstat_sst_min              =  -1.9723739491758E+00
(PID.TID 0000.0001) %MON dynstat_sst_mean             =  -1.1567294494641E+00
(PID.TID 0000.0001) %MON dynstat_sst_sd               =   1.5170967880939E+00
(PID.TID 0000.0001) %MON dynstat_sst_del2             =   6.3647805094208E-02
(PID.TID 0000.0001) %MON dynstat_sss_max              =   3.2008705953972E+01
(PID.TID 0000.0001) %MON dynstat_sss_min              =   2.6690740493068E+01
(PID.TID 0000.0001) %MON dynstat_sss_mean             =   3.0349576254838E+01
(PID.TID 0000.0001) %MON dynstat_sss_sd               =   1.1642713085222E+00
(PID.TID 0000.0001) %MON dynstat_sss_del2             =   8.6812114647653E-02
(PID.TID 0000.0001) %MON extforcing_qnet_max          =   2.4730075530475E+02
(PID.TID 0000.0001) %MON extforcing_qnet_min          =  -1.7365424936247E+02
(PID.TID 0000.0001) %MON extforcing_qnet_mean         =   1.0794567056825E+01
(PID.TID 0000.0001) %MON extforcing_qnet_sd           =   7.1090514659424E+01
(PID.TID 0000.0001) %MON extforcing_qnet_del2         =   1.7641752112659E+01
(PID.TID 0000.0001) %MON extforcing_qsw_max           =   0.0000000000000E+00
(PID.TID 0000.0001) %MON extforcing_qsw_min           =  -5.7112360705472E+01
(PID.TID 0000.0001) %MON extforcing_qsw_mean          =  -1.5936205925797E+01
(PID.TID 0000.0001) %MON extforcing_qsw_sd            =   2.0559874984760E+01
(PID.TID 0000.0001) %MON extforcing_qsw_del2          =   1.8559721362516E+00
(PID.TID 0000.0001) %MON extforcing_empmr_max         =   7.6123511559722E-07
(PID.TID 0000.0001) %MON extforcing_empmr_min         =  -7.6126498597564E-07
(PID.TID 0000.0001) %MON extforcing_empmr_mean        =  -1.1064522552979E-08
(PID.TID 0000.0001) %MON extforcing_empmr_sd          =   2.1197641442156E-07
(PID.TID 0000.0001) %MON extforcing_empmr_del2        =   5.2060940700921E-08
(PID.TID 0000.0001) %MON extforcing_fu_max            =   7.9586631483742E-02
(PID.TID 0000.0001) %MON extforcing_fu_min            =  -4.2932091999209E-02
(PID.TID 0000.0001) %MON extforcing_fu_mean           =   2.3479043813414E-02
(PID.TID 0000.0001) %MON extforcing_fu_sd             =   2.5488752849256E-02
(PID.TID 0000.0001) %MON extforcing_fu_del2           =   3.3033435943199E-03
(PID.TID 0000.0001) %MON extforcing_fv_max            =   2.5054477020083E-02
(PID.TID 0000.0001) %MON extforcing_fv_min            =  -5.9253670803241E-02
(PID.TID 0000.0001) %MON extforcing_fv_mean           =  -9.8119908224932E-03
(PID.TID 0000.0001) %MON extforcing_fv_sd             =   1.8208937011037E-02
(PID.TID 0000.0001) %MON extforcing_fv_del2           =   2.0208353251446E-03
(PID.TID 0000.0001) %MON advcfl_uvel_max              =   2.6909064760480E-03
(PID.TID 0000.0001) %MON advcfl_vvel_max              =   1.8052135861119E-03
(PID.TID 0000.0001) %MON advcfl_wvel_max              =   6.2541941760110E-03
(PID.TID 0000.0001) %MON advcfl_W_hf_max              =   7.9866179975193E-03
(PID.TID 0000.0001) %MON pe_b_mean                    =   2.5327890771565E-05
(PID.TID 0000.0001) %MON ke_max                       =   7.8317632669854E-03
(PID.TID 0000.0001) %MON ke_mean                      =   7.1659056843823E-05
(PID.TID 0000.0001) %MON ke_vol                       =   5.3036189546438E+15
(PID.TID 0000.0001) %MON vort_r_min                   =  -9.4328478860592E-07
(PID.TID 0000.0001) %MON vort_r_max                   =   5.6738419186333E-07
(PID.TID 0000.0001) %MON vort_a_mean                  =   1.2067277703884E-04
(PID.TID 0000.0001) %MON vort_a_sd                    =   8.8118348922753E-06
(PID.TID 0000.0001) %MON vort_p_mean                  =   1.7734843318603E-04
(PID.TID 0000.0001) %MON vort_p_sd                    =   1.1690950661649E-04
(PID.TID 0000.0001) %MON surfExpan_theta_mean         =   2.1504026363339E-06
(PID.TID 0000.0001) %MON surfExpan_salt_mean          =  -3.0030289585186E-07
(PID.TID 0000.0001) // =======================================================
(PID.TID 0000.0001) // End MONITOR dynamic field statistics
(PID.TID 0000.0001) // =======================================================
(PID.TID 0000.0001) // =======================================================
(PID.TID 0000.0001) // Begin MONITOR SEAICE statistics
(PID.TID 0000.0001) // =======================================================
(PID.TID 0000.0001) %MON seaice_tsnumber              =                     4
(PID.TID 0000.0001) %MON seaice_time_sec              =   1.4400000000000E+04
(PID.TID 0000.0001) %MON seaice_uice_max              =   2.0410589049012E-01
(PID.TID 0000.0001) %MON seaice_uice_min              =  -1.0820664027344E-01
(PID.TID 0000.0001) %MON seaice_uice_mean             =   8.1218833503216E-02
(PID.TID 0000.0001) %MON seaice_uice_sd               =   7.8521023636248E-02
(PID.TID 0000.0001) %MON seaice_uice_del2             =   9.4129548163230E-03
(PID.TID 0000.0001) %MON seaice_vice_max              =   9.9288343326873E-02
(PID.TID 0000.0001) %MON seaice_vice_min              =  -1.9612309364105E-01
(PID.TID 0000.0001) %MON seaice_vice_mean             =  -3.7794416141245E-02
(PID.TID 0000.0001) %MON seaice_vice_sd               =   6.1057438101180E-02
(PID.TID 0000.0001) %MON seaice_vice_del2             =   6.9481562975607E-03
(PID.TID 0000.0001) %MON seaice_area_max              =   1.0000000000000E+00
(PID.TID 0000.0001) %MON seaice_area_min              =   0.0000000000000E+00
(PID.TID 0000.0001) %MON seaice_area_mean             =   6.2448964133970E-01
(PID.TID 0000.0001) %MON seaice_area_sd               =   4.5884276157094E-01
(PID.TID 0000.0001) %MON seaice_area_del2             =   5.3567607319525E-02
(PID.TID 0000.0001) %MON seaice_heff_max              =   5.5146835059086E-01
(PID.TID 0000.0001) %MON seaice_heff_min              =   0.0000000000000E+00
(PID.TID 0000.0001) %MON seaice_heff_mean             =   1.4217098028130E-01
(PID.TID 0000.0001) %MON seaice_heff_sd               =   1.7417998529713E-01
(PID.TID 0000.0001) %MON seaice_heff_del2             =   1.3240081984540E-02
(PID.TID 0000.0001) %MON seaice_hsnow_max             =   2.0313961711978E-01
(PID.TID 0000.0001) %MON seaice_hsnow_min             =   0.0000000000000E+00
(PID.TID 0000.0001) %MON seaice_hsnow_mean            =   1.1810788894706E-01
(PID.TID 0000.0001) %MON seaice_hsnow_sd              =   9.6917239052165E-02
(PID.TID 0000.0001) %MON seaice_hsnow_del2            =   6.4249667980587E-03
(PID.TID 0000.0001) // =======================================================
(PID.TID 0000.0001) // End MONITOR SEAICE statistics
(PID.TID 0000.0001) // =======================================================
(PID.TID 0000.0001) // =======================================================
(PID.TID 0000.0001) // Begin MONITOR EXF statistics
(PID.TID 0000.0001) // =======================================================
(PID.TID 0000.0001) %MON exf_tsnumber                 =                     4
(PID.TID 0000.0001) %MON exf_time_sec                 =   1.4400000000000E+04
(PID.TID 0000.0001) %MON exf_ustress_max              =   5.2222749041047E-02
(PID.TID 0000.0001) %MON exf_ustress_min              =  -9.3790194486454E-02
(PID.TID 0000.0001) %MON exf_ustress_mean             =   1.7935663542792E-02
(PID.TID 0000.0001) %MON exf_ustress_sd               =   2.3707712217300E-02
(PID.TID 0000.0001) %MON exf_ustress_del2             =   2.8164273315623E-03
(PID.TID 0000.0001) %MON exf_vstress_max              =   5.3829437114216E-02
(PID.TID 0000.0001) %MON exf_vstress_min              =  -5.8464476572386E-02
(PID.TID 0000.0001) %MON exf_vstress_mean             =  -5.4495374972859E-03
(PID.TID 0000.0001) %MON exf_vstress_sd               =   1.4442680552587E-02
(PID.TID 0000.0001) %MON exf_vstress_del2             =   1.6931341919101E-03
(PID.TID 0000.0001) %MON exf_hflux_max                =   6.2496267398705E+02
(PID.TID 0000.0001) %MON exf_hflux_min                =  -5.1565362852432E+01
(PID.TID 0000.0001) %MON exf_hflux_mean               =   1.4615660949802E+02
(PID.TID 0000.0001) %MON exf_hflux_sd                 =   1.8002235455283E+02
(PID.TID 0000.0001) %MON exf_hflux_del2               =   1.6301998341543E+01
(PID.TID 0000.0001) %MON exf_sflux_max                =   3.9025647077273E-08
(PID.TID 0000.0001) %MON exf_sflux_min                =  -8.8952139751954E-08
(PID.TID 0000.0001) %MON exf_sflux_mean               =  -2.5966971349078E-08
(PID.TID 0000.0001) %MON exf_sflux_sd                 =   3.0361915148423E-08
(PID.TID 0000.0001) %MON exf_sflux_del2               =   3.1623401285964E-09
(PID.TID 0000.0001) %MON exf_uwind_max                =   6.4664043520318E+00
(PID.TID 0000.0001) %MON exf_uwind_min                =  -6.8373452001582E+00
(PID.TID 0000.0001) %MON exf_uwind_mean               =   2.7702029429808E+00
(PID.TID 0000.0001) %MON exf_uwind_sd                 =   2.9911443548250E+00
(PID.TID 0000.0001) %MON exf_uwind_del2               =   3.1574156428286E-01
(PID.TID 0000.0001) %MON exf_vwind_max                =   3.9241889356915E+00
(PID.TID 0000.0001) %MON exf_vwind_min                =  -6.0160797489145E+00
(PID.TID 0000.0001) %MON exf_vwind_mean               =  -7.5842758888917E-01
(PID.TID 0000.0001) %MON exf_vwind_sd                 =   1.7297766046368E+00
(PID.TID 0000.0001) %MON exf_vwind_del2               =   1.9330515345662E-01
(PID.TID 0000.0001) %MON exf_wspeed_max               =   7.8834350500991E+00
(PID.TID 0000.0001) %MON exf_wspeed_min               =   4.5938084481311E-01
(PID.TID 0000.0001) %MON exf_wspeed_mean              =   4.1985322596174E+00
(PID.TID 0000.0001) %MON exf_wspeed_sd                =   1.6001985099325E+00
(PID.TID 0000.0001) %MON exf_wspeed_del2              =   3.7714995543655E-01
(PID.TID 0000.0001) %MON exf_atemp_max                =   2.8187596388853E+02
(PID.TID 0000.0001) %MON exf_atemp_min                =   2.3644390923339E+02
(PID.TID 0000.0001) %MON exf_atemp_mean               =   2.6392748149999E+02
(PID.TID 0000.0001) %MON exf_atemp_sd                 =   1.1989262748844E+01
(PID.TID 0000.0001) %MON exf_atemp_del2               =   6.4950009177509E-01
(PID.TID 0000.0001) %MON exf_aqh_max                  =   6.3203867802223E-03
(PID.TID 0000.0001) %MON exf_aqh_min                  =   1.6331633418045E-04
(PID.TID 0000.0001) %MON exf_aqh_mean                 =   2.4781214845702E-03
(PID.TID 0000.0001) %MON exf_aqh_sd                   =   1.4260952789855E-03
(PID.TID 0000.0001) %MON exf_aqh_del2                 =   6.8087110355054E-05
(PID.TID 0000.0001) %MON exf_lwflux_max               =   1.8154800702574E+02
(PID.TID 0000.0001) %MON exf_lwflux_min               =   2.7104463755682E+01
(PID.TID 0000.0001) %MON exf_lwflux_mean              =   7.5190183474556E+01
(PID.TID 0000.0001) %MON exf_lwflux_sd                =   4.2783226616351E+01
(PID.TID 0000.0001) %MON exf_lwflux_del2              =   3.2333536706417E+00
(PID.TID 0000.0001) %MON exf_precip_max               =   1.0499318877820E-07
(PID.TID 0000.0001) %MON exf_precip_min               =   2.7305928105298E-10
(PID.TID 0000.0001) %MON exf_precip_mean              =   3.6390037166947E-08
(PID.TID 0000.0001) %MON exf_precip_sd                =   2.0579953834835E-08
(PID.TID 0000.0001) %MON exf_precip_del2              =   2.5572657585019E-09
(PID.TID 0000.0001) %MON exf_snowprecip_max           =   0.0000000000000E+00
(PID.TID 0000.0001) %MON exf_snowprecip_min           =   0.0000000000000E+00
(PID.TID 0000.0001) %MON exf_snowprecip_mean          =   0.0000000000000E+00
(PID.TID 0000.0001) %MON exf_snowprecip_sd            =   0.0000000000000E+00
(PID.TID 0000.0001) %MON exf_snowprecip_del2          =   0.0000000000000E+00
(PID.TID 0000.0001) %MON exf_swflux_max               =  -8.1206886983309E-02
(PID.TID 0000.0001) %MON exf_swflux_min               =  -6.4048595415960E+01
(PID.TID 0000.0001) %MON exf_swflux_mean              =  -2.6495351886448E+01
(PID.TID 0000.0001) %MON exf_swflux_sd                =   1.9641247100083E+01
(PID.TID 0000.0001) %MON exf_swflux_del2              =   4.7944026133668E-01
(PID.TID 0000.0001) %MON exf_evap_max                 =   4.5347204057645E-08
(PID.TID 0000.0001) %MON exf_evap_min                 =  -4.2663929306065E-09
(PID.TID 0000.0001) %MON exf_evap_mean                =   1.0423065817870E-08
(PID.TID 0000.0001) %MON exf_evap_sd                  =   1.1085437770397E-08
(PID.TID 0000.0001) %MON exf_evap_del2                =   1.3323750873132E-09
(PID.TID 0000.0001) %MON exf_swdown_max               =   7.1165106017733E+01
(PID.TID 0000.0001) %MON exf_swdown_min               =   9.0229874425898E-02
(PID.TID 0000.0001) %MON exf_swdown_mean              =   2.9439279873831E+01
(PID.TID 0000.0001) %MON exf_swdown_sd                =   2.1823607888981E+01
(PID.TID 0000.0001) %MON exf_swdown_del2              =   5.3271140148521E-01
(PID.TID 0000.0001) %MON exf_lwdown_max               =   3.0564441368228E+02
(PID.TID 0000.0001) %MON exf_lwdown_min               =   1.1593726459357E+02
(PID.TID 0000.0001) %MON exf_lwdown_mean              =   2.2588648764287E+02
(PID.TID 0000.0001) %MON exf_lwdown_sd                =   4.6293313753333E+01
(PID.TID 0000.0001) %MON exf_lwdown_del2              =   3.2438678569828E+00
(PID.TID 0000.0001) %MON exf_apressure_max            =   0.0000000000000E+00
(PID.TID 0000.0001) %MON exf_apressure_min            =   0.0000000000000E+00
(PID.TID 0000.0001) %MON exf_apressure_mean           =   0.0000000000000E+00
(PID.TID 0000.0001) %MON exf_apressure_sd             =   0.0000000000000E+00
(PID.TID 0000.0001) %MON exf_apressure_del2           =   0.0000000000000E+00
(PID.TID 0000.0001) %MON exf_runoff_max               =   0.0000000000000E+00
(PID.TID 0000.0001) %MON exf_runoff_min               =   0.0000000000000E+00
(PID.TID 0000.0001) %MON exf_runoff_mean              =   0.0000000000000E+00
(PID.TID 0000.0001) %MON exf_runoff_sd                =   0.0000000000000E+00
(PID.TID 0000.0001) %MON exf_runoff_del2              =   0.0000000000000E+00
(PID.TID 0000.0001) %MON exf_climsst_max              =   0.0000000000000E+00
(PID.TID 0000.0001) %MON exf_climsst_min              =   0.0000000000000E+00
(PID.TID 0000.0001) %MON exf_climsst_mean             =   0.0000000000000E+00
(PID.TID 0000.0001) %MON exf_climsst_sd               =   0.0000000000000E+00
(PID.TID 0000.0001) %MON exf_climsst_del2             =   0.0000000000000E+00
(PID.TID 0000.0001) %MON exf_climsss_max              =   3.5041069874998E+01
(PID.TID 0000.0001) %MON exf_climsss_min              =   3.0669350483378E+01
(PID.TID 0000.0001) %MON exf_climsss_mean             =   3.3461404934907E+01
(PID.TID 0000.0001) %MON exf_climsss_sd               =   1.0316695849659E+00
(PID.TID 0000.0001) %MON exf_climsss_del2             =   1.0012504429982E-01
(PID.TID 0000.0001) // =======================================================
(PID.TID 0000.0001) // End MONITOR EXF statistics
(PID.TID 0000.0001) // =======================================================
 ph-ice B  4  0.  0.  0.
 ph-ice C  4  2.55604433E+11
 cg2d: Sum(rhs),rhsMax =   3.22655405379790E-08  1.20538351326606E+00
(PID.TID 0000.0001)                    cg2d_init_res =    1.07792034243391E-01
(PID.TID 0000.0001)                       cg2d_iters =    31
(PID.TID 0000.0001)                         cg2d_res =    8.69080141777496E-09
(PID.TID 0000.0001) // =======================================================
(PID.TID 0000.0001) // Begin MONITOR dynamic field statistics
(PID.TID 0000.0001) // =======================================================
(PID.TID 0000.0001) %MON time_tsnumber                =                     5
(PID.TID 0000.0001) %MON time_secondsf                =   1.8000000000000E+04
(PID.TID 0000.0001) %MON dynstat_eta_max              =   3.2901549248844E-01
(PID.TID 0000.0001) %MON dynstat_eta_min              =  -1.3149662543707E-01
(PID.TID 0000.0001) %MON dynstat_eta_mean             =  -8.6811217948732E-10
(PID.TID 0000.0001) %MON dynstat_eta_sd               =   8.4535515685022E-02
(PID.TID 0000.0001) %MON dynstat_eta_del2             =   6.5978771614438E-03
(PID.TID 0000.0001) %MON dynstat_uvel_max             =   9.9297455425548E-02
(PID.TID 0000.0001) %MON dynstat_uvel_min             =  -4.2945100883560E-02
(PID.TID 0000.0001) %MON dynstat_uvel_mean            =   5.4351610960361E-04
(PID.TID 0000.0001) %MON dynstat_uvel_sd              =   8.6214007434496E-03
(PID.TID 0000.0001) %MON dynstat_uvel_del2            =   3.0425974356948E-03
(PID.TID 0000.0001) %MON dynstat_vvel_max             =   8.3977925075083E-02
(PID.TID 0000.0001) %MON dynstat_vvel_min             =  -1.4042844627140E-01
(PID.TID 0000.0001) %MON dynstat_vvel_mean            =  -4.4525910169460E-04
(PID.TID 0000.0001) %MON dynstat_vvel_sd              =   1.1825585924646E-02
(PID.TID 0000.0001) %MON dynstat_vvel_del2            =   2.2789247358409E-03
(PID.TID 0000.0001) %MON dynstat_wvel_max             =   3.5307673238885E-04
(PID.TID 0000.0001) %MON dynstat_wvel_min             =  -2.2673632113093E-04
(PID.TID 0000.0001) %MON dynstat_wvel_mean            =   1.5570453802122E-21
(PID.TID 0000.0001) %MON dynstat_wvel_sd              =   5.7671511219833E-05
(PID.TID 0000.0001) %MON dynstat_wvel_del2            =   6.3112601464997E-06
(PID.TID 0000.0001) %MON dynstat_theta_max            =   1.3354992059566E+01
(PID.TID 0000.0001) %MON dynstat_theta_min            =  -1.9675611869592E+00
(PID.TID 0000.0001) %MON dynstat_theta_mean           =   3.0738003534268E+00
(PID.TID 0000.0001) %MON dynstat_theta_sd             =   1.4271971248569E+00
(PID.TID 0000.0001) %MON dynstat_theta_del2           =   9.6236473157803E-02
(PID.TID 0000.0001) %MON dynstat_salt_max             =   3.5451374462683E+01
(PID.TID 0000.0001) %MON dynstat_salt_min             =   2.6693066867821E+01
(PID.TID 0000.0001) %MON dynstat_salt_mean            =   3.4740207841128E+01
(PID.TID 0000.0001) %MON dynstat_salt_sd              =   5.5634752564707E-01
(PID.TID 0000.0001) %MON dynstat_salt_del2            =   3.9369688862172E-02
(PID.TID 0000.0001) %MON dynstat_sst_max              =   5.7724317935916E+00
(PID.TID 0000.0001) %MON dynstat_sst_min              =  -1.9675611869592E+00
(PID.TID 0000.0001) %MON dynstat_sst_mean             =  -1.1547715603287E+00
(PID.TID 0000.0001) %MON dynstat_sst_sd               =   1.5181073948208E+00
(PID.TID 0000.0001) %MON dynstat_sst_del2             =   6.3599101917356E-02
(PID.TID 0000.0001) %MON dynstat_sss_max              =   3.2008646913003E+01
(PID.TID 0000.0001) %MON dynstat_sss_min              =   2.6693066867821E+01
(PID.TID 0000.0001) %MON dynstat_sss_mean             =   3.0352210126265E+01
(PID.TID 0000.0001) %MON dynstat_sss_sd               =   1.1646901012434E+00
(PID.TID 0000.0001) %MON dynstat_sss_del2             =   8.6778727284140E-02
(PID.TID 0000.0001) %MON extforcing_qnet_max          =   1.7081569496463E+02
(PID.TID 0000.0001) %MON extforcing_qnet_min          =  -1.3936621181749E+02
(PID.TID 0000.0001) %MON extforcing_qnet_mean         =   9.2787952370768E+00
(PID.TID 0000.0001) %MON extforcing_qnet_sd           =   4.4842511308864E+01
(PID.TID 0000.0001) %MON extforcing_qnet_del2         =   9.2918309296001E+00
(PID.TID 0000.0001) %MON extforcing_qsw_max           =   0.0000000000000E+00
(PID.TID 0000.0001) %MON extforcing_qsw_min           =  -5.7171648240049E+01
(PID.TID 0000.0001) %MON extforcing_qsw_mean          =  -1.5932349857974E+01
(PID.TID 0000.0001) %MON extforcing_qsw_sd            =   2.0550651683120E+01
(PID.TID 0000.0001) %MON extforcing_qsw_del2          =   1.8572575557106E+00
(PID.TID 0000.0001) %MON extforcing_empmr_max         =   7.7250873720269E-07
(PID.TID 0000.0001) %MON extforcing_empmr_min         =  -5.2284065574058E-07
(PID.TID 0000.0001) %MON extforcing_empmr_mean        =  -6.1464347932446E-09
(PID.TID 0000.0001) %MON extforcing_empmr_sd          =   1.2944727497035E-07
(PID.TID 0000.0001) %MON extforcing_empmr_del2        =   2.5999523630658E-08
(PID.TID 0000.0001) %MON extforcing_fu_max            =   8.0838712907054E-02
(PID.TID 0000.0001) %MON extforcing_fu_min            =  -4.3132595390351E-02
(PID.TID 0000.0001) %MON extforcing_fu_mean           =   2.3601988303037E-02
(PID.TID 0000.0001) %MON extforcing_fu_sd             =   2.5629147962537E-02
(PID.TID 0000.0001) %MON extforcing_fu_del2           =   3.3554481083363E-03
(PID.TID 0000.0001) %MON extforcing_fv_max            =   2.5049153287501E-02
(PID.TID 0000.0001) %MON extforcing_fv_min            =  -5.8327107431531E-02
(PID.TID 0000.0001) %MON extforcing_fv_mean           =  -9.7800356924550E-03
(PID.TID 0000.0001) %MON extforcing_fv_sd             =   1.8026759133328E-02
(PID.TID 0000.0001) %MON extforcing_fv_del2           =   2.0490490039395E-03
(PID.TID 0000.0001) %MON advcfl_uvel_max              =   2.5933669923030E-03
(PID.TID 0000.0001) %MON advcfl_vvel_max              =   2.2732260447145E-03
(PID.TID 0000.0001) %MON advcfl_wvel_max              =   6.8106075794580E-03
(PID.TID 0000.0001) %MON advcfl_W_hf_max              =   9.2419440365499E-03
(PID.TID 0000.0001) %MON pe_b_mean                    =   2.3558696322410E-05
(PID.TID 0000.0001) %MON ke_max                       =   1.0237439826431E-02
(PID.TID 0000.0001) %MON ke_mean                      =   8.3991218091101E-05
(PID.TID 0000.0001) %MON ke_vol                       =   5.3036189546438E+15
(PID.TID 0000.0001) %MON vort_r_min                   =  -1.0955226408611E-06
(PID.TID 0000.0001) %MON vort_r_max                   =   6.6769401199672E-07
(PID.TID 0000.0001) %MON vort_a_mean                  =   1.2067277418130E-04
(PID.TID 0000.0001) %MON vort_a_sd                    =   8.8121445746054E-06
(PID.TID 0000.0001) %MON vort_p_mean                  =   1.7734842898640E-04
(PID.TID 0000.0001) %MON vort_p_sd                    =   1.1690315960951E-04
(PID.TID 0000.0001) %MON surfExpan_theta_mean         =   1.5257838416835E-06
(PID.TID 0000.0001) %MON surfExpan_salt_mean          =   5.0771231187735E-07
(PID.TID 0000.0001) // =======================================================
(PID.TID 0000.0001) // End MONITOR dynamic field statistics
(PID.TID 0000.0001) // =======================================================
(PID.TID 0000.0001) // =======================================================
(PID.TID 0000.0001) // Begin MONITOR SEAICE statistics
(PID.TID 0000.0001) // =======================================================
(PID.TID 0000.0001) %MON seaice_tsnumber              =                     5
(PID.TID 0000.0001) %MON seaice_time_sec              =   1.8000000000000E+04
(PID.TID 0000.0001) %MON seaice_uice_max              =   2.1945387278073E-01
(PID.TID 0000.0001) %MON seaice_uice_min              =  -1.0939009902186E-01
(PID.TID 0000.0001) %MON seaice_uice_mean             =   8.3081274324015E-02
(PID.TID 0000.0001) %MON seaice_uice_sd               =   8.3462882724915E-02
(PID.TID 0000.0001) %MON seaice_uice_del2             =   1.0024723364688E-02
(PID.TID 0000.0001) %MON seaice_vice_max              =   1.0086664481374E-01
(PID.TID 0000.0001) %MON seaice_vice_min              =  -1.9808188880879E-01
(PID.TID 0000.0001) %MON seaice_vice_mean             =  -4.6968653010694E-02
(PID.TID 0000.0001) %MON seaice_vice_sd               =   6.7920791214941E-02
(PID.TID 0000.0001) %MON seaice_vice_del2             =   7.5957084986046E-03
(PID.TID 0000.0001) %MON seaice_area_max              =   1.0000000000000E+00
(PID.TID 0000.0001) %MON seaice_area_min              =   0.0000000000000E+00
(PID.TID 0000.0001) %MON seaice_area_mean             =   6.2430150051055E-01
(PID.TID 0000.0001) %MON seaice_area_sd               =   4.5848056987791E-01
(PID.TID 0000.0001) %MON seaice_area_del2             =   5.3615010685217E-02
(PID.TID 0000.0001) %MON seaice_heff_max              =   5.4903937822394E-01
(PID.TID 0000.0001) %MON seaice_heff_min              =   0.0000000000000E+00
(PID.TID 0000.0001) %MON seaice_heff_mean             =   1.4223694277275E-01
(PID.TID 0000.0001) %MON seaice_heff_sd               =   1.7414926032458E-01
(PID.TID 0000.0001) %MON seaice_heff_del2             =   1.3251391165383E-02
(PID.TID 0000.0001) %MON seaice_hsnow_max             =   2.0392476353420E-01
(PID.TID 0000.0001) %MON seaice_hsnow_min             =   0.0000000000000E+00
(PID.TID 0000.0001) %MON seaice_hsnow_mean            =   1.1825099134585E-01
(PID.TID 0000.0001) %MON seaice_hsnow_sd              =   9.7044356048364E-02
(PID.TID 0000.0001) %MON seaice_hsnow_del2            =   6.4762509698941E-03
(PID.TID 0000.0001) // =======================================================
(PID.TID 0000.0001) // End MONITOR SEAICE statistics
(PID.TID 0000.0001) // =======================================================
(PID.TID 0000.0001) // =======================================================
(PID.TID 0000.0001) // Begin MONITOR EXF statistics
(PID.TID 0000.0001) // =======================================================
(PID.TID 0000.0001) %MON exf_tsnumber                 =                     5
(PID.TID 0000.0001) %MON exf_time_sec                 =   1.8000000000000E+04
(PID.TID 0000.0001) %MON exf_ustress_max              =   5.2230884117586E-02
(PID.TID 0000.0001) %MON exf_ustress_min              =  -9.3792692313509E-02
(PID.TID 0000.0001) %MON exf_ustress_mean             =   1.7944940093883E-02
(PID.TID 0000.0001) %MON exf_ustress_sd               =   2.3713963571757E-02
(PID.TID 0000.0001) %MON exf_ustress_del2             =   2.8173052338397E-03
(PID.TID 0000.0001) %MON exf_vstress_max              =   5.3831073859948E-02
(PID.TID 0000.0001) %MON exf_vstress_min              =  -5.8456785540535E-02
(PID.TID 0000.0001) %MON exf_vstress_mean             =  -5.4464512858083E-03
(PID.TID 0000.0001) %MON exf_vstress_sd               =   1.4444944996378E-02
(PID.TID 0000.0001) %MON exf_vstress_del2             =   1.6932729733754E-03
(PID.TID 0000.0001) %MON exf_hflux_max                =   6.2503361232607E+02
(PID.TID 0000.0001) %MON exf_hflux_min                =  -5.1451597527523E+01
(PID.TID 0000.0001) %MON exf_hflux_mean               =   1.4623261715618E+02
(PID.TID 0000.0001) %MON exf_hflux_sd                 =   1.8002328682026E+02
(PID.TID 0000.0001) %MON exf_hflux_del2               =   1.6301004651153E+01
(PID.TID 0000.0001) %MON exf_sflux_max                =   3.9028023656348E-08
(PID.TID 0000.0001) %MON exf_sflux_min                =  -8.8915527500586E-08
(PID.TID 0000.0001) %MON exf_sflux_mean               =  -2.5958891680597E-08
(PID.TID 0000.0001) %MON exf_sflux_sd                 =   3.0357858270478E-08
(PID.TID 0000.0001) %MON exf_sflux_del2               =   3.1625237172645E-09
(PID.TID 0000.0001) %MON exf_uwind_max                =   6.4669118044806E+00
(PID.TID 0000.0001) %MON exf_uwind_min                =  -6.8373719818605E+00
(PID.TID 0000.0001) %MON exf_uwind_mean               =   2.7703104953252E+00
(PID.TID 0000.0001) %MON exf_uwind_sd                 =   2.9914204817202E+00
(PID.TID 0000.0001) %MON exf_uwind_del2               =   3.1574946850541E-01
(PID.TID 0000.0001) %MON exf_vwind_max                =   3.9242191164871E+00
(PID.TID 0000.0001) %MON exf_vwind_min                =  -6.0151738390896E+00
(PID.TID 0000.0001) %MON exf_vwind_mean               =  -7.5780981579906E-01
(PID.TID 0000.0001) %MON exf_vwind_sd                 =   1.7298850990135E+00
(PID.TID 0000.0001) %MON exf_vwind_del2               =   1.9329828211469E-01
(PID.TID 0000.0001) %MON exf_wspeed_max               =   7.8834733013142E+00
(PID.TID 0000.0001) %MON exf_wspeed_min               =   4.5913801314248E-01
(PID.TID 0000.0001) %MON exf_wspeed_mean              =   4.1986352194932E+00
(PID.TID 0000.0001) %MON exf_wspeed_sd                =   1.6004553118739E+00
(PID.TID 0000.0001) %MON exf_wspeed_del2              =   3.7720325813743E-01
(PID.TID 0000.0001) %MON exf_atemp_max                =   2.8187425173567E+02
(PID.TID 0000.0001) %MON exf_atemp_min                =   2.3643944426573E+02
(PID.TID 0000.0001) %MON exf_atemp_mean               =   2.6392283741463E+02
(PID.TID 0000.0001) %MON exf_atemp_sd                 =   1.1990725231039E+01
(PID.TID 0000.0001) %MON exf_atemp_del2               =   6.4951942471641E-01
(PID.TID 0000.0001) %MON exf_aqh_max                  =   6.3196902393613E-03
(PID.TID 0000.0001) %MON exf_aqh_min                  =   1.6322223068205E-04
(PID.TID 0000.0001) %MON exf_aqh_mean                 =   2.4775611281656E-03
(PID.TID 0000.0001) %MON exf_aqh_sd                   =   1.4259923191659E-03
(PID.TID 0000.0001) %MON exf_aqh_del2                 =   6.8073442793907E-05
(PID.TID 0000.0001) %MON exf_lwflux_max               =   1.8156112611884E+02
(PID.TID 0000.0001) %MON exf_lwflux_min               =   2.7075633019266E+01
(PID.TID 0000.0001) %MON exf_lwflux_mean              =   7.5214634577009E+01
(PID.TID 0000.0001) %MON exf_lwflux_sd                =   4.2777639113310E+01
(PID.TID 0000.0001) %MON exf_lwflux_del2              =   3.2323857667016E+00
(PID.TID 0000.0001) %MON exf_precip_max               =   1.0499457022082E-07
(PID.TID 0000.0001) %MON exf_precip_min               =   2.7292535458031E-10
(PID.TID 0000.0001) %MON exf_precip_mean              =   3.6390026322913E-08
(PID.TID 0000.0001) %MON exf_precip_sd                =   2.0580406889746E-08
(PID.TID 0000.0001) %MON exf_precip_del2              =   2.5577934516916E-09
(PID.TID 0000.0001) %MON exf_snowprecip_max           =   0.0000000000000E+00
(PID.TID 0000.0001) %MON exf_snowprecip_min           =   0.0000000000000E+00
(PID.TID 0000.0001) %MON exf_snowprecip_mean          =   0.0000000000000E+00
(PID.TID 0000.0001) %MON exf_snowprecip_sd            =   0.0000000000000E+00
(PID.TID 0000.0001) %MON exf_snowprecip_del2          =   0.0000000000000E+00
(PID.TID 0000.0001) %MON exf_swflux_max               =  -8.1207169861090E-02
(PID.TID 0000.0001) %MON exf_swflux_min               =  -6.4067465766532E+01
(PID.TID 0000.0001) %MON exf_swflux_mean              =  -2.6505884102323E+01
(PID.TID 0000.0001) %MON exf_swflux_sd                =   1.9645085084315E+01
(PID.TID 0000.0001) %MON exf_swflux_del2              =   4.7954713528264E-01
(PID.TID 0000.0001) %MON exf_evap_max                 =   4.5348917925789E-08
(PID.TID 0000.0001) %MON exf_evap_min                 =  -4.2424751719378E-09
(PID.TID 0000.0001) %MON exf_evap_mean                =   1.0431134642317E-08
(PID.TID 0000.0001) %MON exf_evap_sd                  =   1.1081500529049E-08
(PID.TID 0000.0001) %MON exf_evap_del2                =   1.3323469958802E-09
(PID.TID 0000.0001) %MON exf_swdown_max               =   7.1186073073924E+01
(PID.TID 0000.0001) %MON exf_swdown_min               =   9.0230188734544E-02
(PID.TID 0000.0001) %MON exf_swdown_mean              =   2.9450982335914E+01
(PID.TID 0000.0001) %MON exf_swdown_sd                =   2.1827872315905E+01
(PID.TID 0000.0001) %MON exf_swdown_del2              =   5.3283015031405E-01
(PID.TID 0000.0001) %MON exf_lwdown_max               =   3.0563558759846E+02
(PID.TID 0000.0001) %MON exf_lwdown_min               =   1.1592215771493E+02
(PID.TID 0000.0001) %MON exf_lwdown_mean              =   2.2587078031381E+02
(PID.TID 0000.0001) %MON exf_lwdown_sd                =   4.6297287802066E+01
(PID.TID 0000.0001) %MON exf_lwdown_del2              =   3.2438794970556E+00
(PID.TID 0000.0001) %MON exf_apressure_max            =   0.0000000000000E+00
(PID.TID 0000.0001) %MON exf_apressure_min            =   0.0000000000000E+00
(PID.TID 0000.0001) %MON exf_apressure_mean           =   0.0000000000000E+00
(PID.TID 0000.0001) %MON exf_apressure_sd             =   0.0000000000000E+00
(PID.TID 0000.0001) %MON exf_apressure_del2           =   0.0000000000000E+00
(PID.TID 0000.0001) %MON exf_runoff_max               =   0.0000000000000E+00
(PID.TID 0000.0001) %MON exf_runoff_min               =   0.0000000000000E+00
(PID.TID 0000.0001) %MON exf_runoff_mean              =   0.0000000000000E+00
(PID.TID 0000.0001) %MON exf_runoff_sd                =   0.0000000000000E+00
(PID.TID 0000.0001) %MON exf_runoff_del2              =   0.0000000000000E+00
(PID.TID 0000.0001) %MON exf_climsst_max              =   0.0000000000000E+00
(PID.TID 0000.0001) %MON exf_climsst_min              =   0.0000000000000E+00
(PID.TID 0000.0001) %MON exf_climsst_mean             =   0.0000000000000E+00
(PID.TID 0000.0001) %MON exf_climsst_sd               =   0.0000000000000E+00
(PID.TID 0000.0001) %MON exf_climsst_del2             =   0.0000000000000E+00
(PID.TID 0000.0001) %MON exf_climsss_max              =   3.5041254622037E+01
(PID.TID 0000.0001) %MON exf_climsss_min              =   3.0670109811376E+01
(PID.TID 0000.0001) %MON exf_climsss_mean             =   3.3461926268386E+01
(PID.TID 0000.0001) %MON exf_climsss_sd               =   1.0315988331065E+00
(PID.TID 0000.0001) %MON exf_climsss_del2             =   1.0010781500943E-01
(PID.TID 0000.0001) // =======================================================
(PID.TID 0000.0001) // End MONITOR EXF statistics
(PID.TID 0000.0001) // =======================================================
 ph-ice B  5  0.  0.  0.
 ph-ice C  5  3.06281465E+11
 cg2d: Sum(rhs),rhsMax =   3.20073197390691E-08  1.19996672315758E+00
(PID.TID 0000.0001)                    cg2d_init_res =    8.51460782627700E-02
(PID.TID 0000.0001)                       cg2d_iters =    31
(PID.TID 0000.0001)                         cg2d_res =    8.13555157187241E-09
(PID.TID 0000.0001) // =======================================================
(PID.TID 0000.0001) // Begin MONITOR dynamic field statistics
(PID.TID 0000.0001) // =======================================================
(PID.TID 0000.0001) %MON time_tsnumber                =                     6
(PID.TID 0000.0001) %MON time_secondsf                =   2.1600000000000E+04
(PID.TID 0000.0001) %MON dynstat_eta_max              =   3.3108673230728E-01
(PID.TID 0000.0001) %MON dynstat_eta_min              =  -1.2542758949324E-01
(PID.TID 0000.0001) %MON dynstat_eta_mean             =  -8.8129549402302E-10
(PID.TID 0000.0001) %MON dynstat_eta_sd               =   8.0048795572651E-02
(PID.TID 0000.0001) %MON dynstat_eta_del2             =   6.6708646071945E-03
(PID.TID 0000.0001) %MON dynstat_uvel_max             =   1.1044399791418E-01
(PID.TID 0000.0001) %MON dynstat_uvel_min             =  -5.4256602310667E-02
(PID.TID 0000.0001) %MON dynstat_uvel_mean            =   5.6621078661843E-04
(PID.TID 0000.0001) %MON dynstat_uvel_sd              =   9.4857432957151E-03
(PID.TID 0000.0001) %MON dynstat_uvel_del2            =   2.9748544183707E-03
(PID.TID 0000.0001) %MON dynstat_vvel_max             =   8.5012685049382E-02
(PID.TID 0000.0001) %MON dynstat_vvel_min             =  -1.5596079790409E-01
(PID.TID 0000.0001) %MON dynstat_vvel_mean            =  -2.9626935662944E-04
(PID.TID 0000.0001) %MON dynstat_vvel_sd              =   1.1642360492112E-02
(PID.TID 0000.0001) %MON dynstat_vvel_del2            =   2.4636405773349E-03
(PID.TID 0000.0001) %MON dynstat_wvel_max             =   3.8486593495594E-04
(PID.TID 0000.0001) %MON dynstat_wvel_min             =  -2.7958845479581E-04
(PID.TID 0000.0001) %MON dynstat_wvel_mean            =   7.2909267803585E-22
(PID.TID 0000.0001) %MON dynstat_wvel_sd              =   6.3377455151444E-05
(PID.TID 0000.0001) %MON dynstat_wvel_del2            =   5.4794022541611E-06
(PID.TID 0000.0001) %MON dynstat_theta_max            =   1.3349714377706E+01
(PID.TID 0000.0001) %MON dynstat_theta_min            =  -1.9661758395622E+00
(PID.TID 0000.0001) %MON dynstat_theta_mean           =   3.0737900191543E+00
(PID.TID 0000.0001) %MON dynstat_theta_sd             =   1.4271298330373E+00
(PID.TID 0000.0001) %MON dynstat_theta_del2           =   9.6196040776777E-02
(PID.TID 0000.0001) %MON dynstat_salt_max             =   3.5451462910119E+01
(PID.TID 0000.0001) %MON dynstat_salt_min             =   2.6695320171965E+01
(PID.TID 0000.0001) %MON dynstat_salt_mean            =   3.4740211668969E+01
(PID.TID 0000.0001) %MON dynstat_salt_sd              =   5.5625566936953E-01
(PID.TID 0000.0001) %MON dynstat_salt_del2            =   3.9351619456809E-02
(PID.TID 0000.0001) %MON dynstat_sst_max              =   5.7774403065743E+00
(PID.TID 0000.0001) %MON dynstat_sst_min              =  -1.9661758395622E+00
(PID.TID 0000.0001) %MON dynstat_sst_mean             =  -1.1530256066539E+00
(PID.TID 0000.0001) %MON dynstat_sst_sd               =   1.5187373758961E+00
(PID.TID 0000.0001) %MON dynstat_sst_del2             =   6.3529690504056E-02
(PID.TID 0000.0001) %MON dynstat_sss_max              =   3.2008885047998E+01
(PID.TID 0000.0001) %MON dynstat_sss_min              =   2.6695320171965E+01
(PID.TID 0000.0001) %MON dynstat_sss_mean             =   3.0354817821139E+01
(PID.TID 0000.0001) %MON dynstat_sss_sd               =   1.1650193861896E+00
(PID.TID 0000.0001) %MON dynstat_sss_del2             =   8.6744320812665E-02
(PID.TID 0000.0001) %MON extforcing_qnet_max          =   1.3682430833507E+02
(PID.TID 0000.0001) %MON extforcing_qnet_min          =  -8.3264974375332E+01
(PID.TID 0000.0001) %MON extforcing_qnet_mean         =   1.2782594033458E+01
(PID.TID 0000.0001) %MON extforcing_qnet_sd           =   3.8700989192788E+01
(PID.TID 0000.0001) %MON extforcing_qnet_del2         =   9.0742665061417E+00
(PID.TID 0000.0001) %MON extforcing_qsw_max           =   0.0000000000000E+00
(PID.TID 0000.0001) %MON extforcing_qsw_min           =  -5.7235449798803E+01
(PID.TID 0000.0001) %MON extforcing_qsw_mean          =  -1.5879532756507E+01
(PID.TID 0000.0001) %MON extforcing_qsw_sd            =   2.0576258839255E+01
(PID.TID 0000.0001) %MON extforcing_qsw_del2          =   1.8862936043251E+00
(PID.TID 0000.0001) %MON extforcing_empmr_max         =   3.2291950047332E-07
(PID.TID 0000.0001) %MON extforcing_empmr_min         =  -3.8319945214577E-07
(PID.TID 0000.0001) %MON extforcing_empmr_mean        =  -1.7008098313512E-08
(PID.TID 0000.0001) %MON extforcing_empmr_sd          =   1.0419297079511E-07
(PID.TID 0000.0001) %MON extforcing_empmr_del2        =   2.6741146943342E-08
(PID.TID 0000.0001) %MON extforcing_fu_max            =   8.2113972330981E-02
(PID.TID 0000.0001) %MON extforcing_fu_min            =  -4.4125260613587E-02
(PID.TID 0000.0001) %MON extforcing_fu_mean           =   2.3782118926239E-02
(PID.TID 0000.0001) %MON extforcing_fu_sd             =   2.5792657693817E-02
(PID.TID 0000.0001) %MON extforcing_fu_del2           =   3.4367240600720E-03
(PID.TID 0000.0001) %MON extforcing_fv_max            =   2.4507233279276E-02
(PID.TID 0000.0001) %MON extforcing_fv_min            =  -5.8380285578727E-02
(PID.TID 0000.0001) %MON extforcing_fv_mean           =  -9.6851002705167E-03
(PID.TID 0000.0001) %MON extforcing_fv_sd             =   1.7759156512808E-02
(PID.TID 0000.0001) %MON extforcing_fv_del2           =   2.0894131914011E-03
(PID.TID 0000.0001) %MON advcfl_uvel_max              =   2.7251269249045E-03
(PID.TID 0000.0001) %MON advcfl_vvel_max              =   2.5246604741665E-03
(PID.TID 0000.0001) %MON advcfl_wvel_max              =   7.2937689211244E-03
(PID.TID 0000.0001) %MON advcfl_W_hf_max              =   9.9300685109118E-03
(PID.TID 0000.0001) %MON pe_b_mean                    =   2.1124305767418E-05
(PID.TID 0000.0001) %MON ke_max                       =   1.1808676624671E-02
(PID.TID 0000.0001) %MON ke_mean                      =   8.8463277702787E-05
(PID.TID 0000.0001) %MON ke_vol                       =   5.3036189546438E+15
(PID.TID 0000.0001) %MON vort_r_min                   =  -1.1458717200900E-06
(PID.TID 0000.0001) %MON vort_r_max                   =   6.9403094729903E-07
(PID.TID 0000.0001) %MON vort_a_mean                  =   1.2067277200957E-04
(PID.TID 0000.0001) %MON vort_a_sd                    =   8.8122199379218E-06
(PID.TID 0000.0001) %MON vort_p_mean                  =   1.7734842579468E-04
(PID.TID 0000.0001) %MON vort_p_sd                    =   1.1689697982123E-04
(PID.TID 0000.0001) %MON surfExpan_theta_mean         =   9.4793875681489E-07
(PID.TID 0000.0001) %MON surfExpan_salt_mean          =   8.0654424721805E-07
(PID.TID 0000.0001) // =======================================================
(PID.TID 0000.0001) // End MONITOR dynamic field statistics
(PID.TID 0000.0001) // =======================================================
(PID.TID 0000.0001) // =======================================================
(PID.TID 0000.0001) // Begin MONITOR SEAICE statistics
(PID.TID 0000.0001) // =======================================================
(PID.TID 0000.0001) %MON seaice_tsnumber              =                     6
(PID.TID 0000.0001) %MON seaice_time_sec              =   2.1600000000000E+04
(PID.TID 0000.0001) %MON seaice_uice_max              =   2.3992745109673E-01
(PID.TID 0000.0001) %MON seaice_uice_min              =  -1.0534849502405E-01
(PID.TID 0000.0001) %MON seaice_uice_mean             =   8.0979127444357E-02
(PID.TID 0000.0001) %MON seaice_uice_sd               =   8.5693593471125E-02
(PID.TID 0000.0001) %MON seaice_uice_del2             =   1.0079077521867E-02
(PID.TID 0000.0001) %MON seaice_vice_max              =   9.8351447679097E-02
(PID.TID 0000.0001) %MON seaice_vice_min              =  -2.1228924533081E-01
(PID.TID 0000.0001) %MON seaice_vice_mean             =  -5.4937412936197E-02
(PID.TID 0000.0001) %MON seaice_vice_sd               =   7.2061963501574E-02
(PID.TID 0000.0001) %MON seaice_vice_del2             =   8.0226433245267E-03
(PID.TID 0000.0001) %MON seaice_area_max              =   1.0000000000000E+00
(PID.TID 0000.0001) %MON seaice_area_min              =   0.0000000000000E+00
(PID.TID 0000.0001) %MON seaice_area_mean             =   6.2417688265085E-01
(PID.TID 0000.0001) %MON seaice_area_sd               =   4.5808407403965E-01
(PID.TID 0000.0001) %MON seaice_area_del2             =   5.3631206810950E-02
(PID.TID 0000.0001) %MON seaice_heff_max              =   5.4790358803121E-01
(PID.TID 0000.0001) %MON seaice_heff_min              =   0.0000000000000E+00
(PID.TID 0000.0001) %MON seaice_heff_mean             =   1.4225414452692E-01
(PID.TID 0000.0001) %MON seaice_heff_sd               =   1.7422581482589E-01
(PID.TID 0000.0001) %MON seaice_heff_del2             =   1.3240855338383E-02
(PID.TID 0000.0001) %MON seaice_hsnow_max             =   2.0470995401277E-01
(PID.TID 0000.0001) %MON seaice_hsnow_min             =   0.0000000000000E+00
(PID.TID 0000.0001) %MON seaice_hsnow_mean            =   1.1841143347447E-01
(PID.TID 0000.0001) %MON seaice_hsnow_sd              =   9.7165681939073E-02
(PID.TID 0000.0001) %MON seaice_hsnow_del2            =   6.5148328833595E-03
(PID.TID 0000.0001) // =======================================================
(PID.TID 0000.0001) // End MONITOR SEAICE statistics
(PID.TID 0000.0001) // =======================================================
(PID.TID 0000.0001) // =======================================================
(PID.TID 0000.0001) // Begin MONITOR EXF statistics
(PID.TID 0000.0001) // =======================================================
(PID.TID 0000.0001) %MON exf_tsnumber                 =                     6
(PID.TID 0000.0001) %MON exf_time_sec                 =   2.1600000000000E+04
(PID.TID 0000.0001) %MON exf_ustress_max              =   5.2237984457504E-02
(PID.TID 0000.0001) %MON exf_ustress_min              =  -9.3794680426842E-02
(PID.TID 0000.0001) %MON exf_ustress_mean             =   1.7953013032227E-02
(PID.TID 0000.0001) %MON exf_ustress_sd               =   2.3720087063703E-02
(PID.TID 0000.0001) %MON exf_ustress_del2             =   2.8182307603703E-03
(PID.TID 0000.0001) %MON exf_vstress_max              =   5.3832418070363E-02
(PID.TID 0000.0001) %MON exf_vstress_min              =  -5.8451170700580E-02
(PID.TID 0000.0001) %MON exf_vstress_mean             =  -5.4433701237543E-03
(PID.TID 0000.0001) %MON exf_vstress_sd               =   1.4447187483995E-02
(PID.TID 0000.0001) %MON exf_vstress_del2             =   1.6932777054093E-03
(PID.TID 0000.0001) %MON exf_hflux_max                =   6.2507220073316E+02
(PID.TID 0000.0001) %MON exf_hflux_min                =  -5.1351197178493E+01
(PID.TID 0000.0001) %MON exf_hflux_mean               =   1.4630892808431E+02
(PID.TID 0000.0001) %MON exf_hflux_sd                 =   1.8003246493433E+02
(PID.TID 0000.0001) %MON exf_hflux_del2               =   1.6303871614930E+01
(PID.TID 0000.0001) %MON exf_sflux_max                =   3.9026275524023E-08
(PID.TID 0000.0001) %MON exf_sflux_min                =  -8.8868954898915E-08
(PID.TID 0000.0001) %MON exf_sflux_mean               =  -2.5950943772104E-08
(PID.TID 0000.0001) %MON exf_sflux_sd                 =   3.0354687237536E-08
(PID.TID 0000.0001) %MON exf_sflux_del2               =   3.1631199542450E-09
(PID.TID 0000.0001) %MON exf_uwind_max                =   6.4674192569295E+00
(PID.TID 0000.0001) %MON exf_uwind_min                =  -6.8373987635628E+00
(PID.TID 0000.0001) %MON exf_uwind_mean               =   2.7704180476696E+00
(PID.TID 0000.0001) %MON exf_uwind_sd                 =   2.9916966488382E+00
(PID.TID 0000.0001) %MON exf_uwind_del2               =   3.1575737272796E-01
(PID.TID 0000.0001) %MON exf_vwind_max                =   3.9242492972827E+00
(PID.TID 0000.0001) %MON exf_vwind_min                =  -6.0142679292648E+00
(PID.TID 0000.0001) %MON exf_vwind_mean               =  -7.5719204270894E-01
(PID.TID 0000.0001) %MON exf_vwind_sd                 =   1.7299937065642E+00
(PID.TID 0000.0001) %MON exf_vwind_del2               =   1.9329141077275E-01
(PID.TID 0000.0001) %MON exf_wspeed_max               =   7.8835115525503E+00
(PID.TID 0000.0001) %MON exf_wspeed_min               =   4.5889518386928E-01
(PID.TID 0000.0001) %MON exf_wspeed_mean              =   4.1987383082859E+00
(PID.TID 0000.0001) %MON exf_wspeed_sd                =   1.6007122259633E+00
(PID.TID 0000.0001) %MON exf_wspeed_del2              =   3.7725655435875E-01
(PID.TID 0000.0001) %MON exf_atemp_max                =   2.8187253958280E+02
(PID.TID 0000.0001) %MON exf_atemp_min                =   2.3643497929808E+02
(PID.TID 0000.0001) %MON exf_atemp_mean               =   2.6391819332927E+02
(PID.TID 0000.0001) %MON exf_atemp_sd                 =   1.1992188200331E+01
(PID.TID 0000.0001) %MON exf_atemp_del2               =   6.4953875765774E-01
(PID.TID 0000.0001) %MON exf_aqh_max                  =   6.3189936985002E-03
(PID.TID 0000.0001) %MON exf_aqh_min                  =   1.6312812718364E-04
(PID.TID 0000.0001) %MON exf_aqh_mean                 =   2.4770007717611E-03
(PID.TID 0000.0001) %MON exf_aqh_sd                   =   1.4258893952382E-03
(PID.TID 0000.0001) %MON exf_aqh_del2                 =   6.8059775232760E-05
(PID.TID 0000.0001) %MON exf_lwflux_max               =   1.8157457967829E+02
(PID.TID 0000.0001) %MON exf_lwflux_min               =   2.7062314429986E+01
(PID.TID 0000.0001) %MON exf_lwflux_mean              =   7.5238119154130E+01
(PID.TID 0000.0001) %MON exf_lwflux_sd                =   4.2774667059390E+01
(PID.TID 0000.0001) %MON exf_lwflux_del2              =   3.2322338899284E+00
(PID.TID 0000.0001) %MON exf_precip_max               =   1.0499595166344E-07
(PID.TID 0000.0001) %MON exf_precip_min               =   2.7279142810763E-10
(PID.TID 0000.0001) %MON exf_precip_mean              =   3.6390015478879E-08
(PID.TID 0000.0001) %MON exf_precip_sd                =   2.0580860600171E-08
(PID.TID 0000.0001) %MON exf_precip_del2              =   2.5583211448813E-09
(PID.TID 0000.0001) %MON exf_snowprecip_max           =   0.0000000000000E+00
(PID.TID 0000.0001) %MON exf_snowprecip_min           =   0.0000000000000E+00
(PID.TID 0000.0001) %MON exf_snowprecip_mean          =   0.0000000000000E+00
(PID.TID 0000.0001) %MON exf_snowprecip_sd            =   0.0000000000000E+00
(PID.TID 0000.0001) %MON exf_snowprecip_del2          =   0.0000000000000E+00
(PID.TID 0000.0001) %MON exf_swflux_max               =  -8.1207452738871E-02
(PID.TID 0000.0001) %MON exf_swflux_min               =  -6.4086336117103E+01
(PID.TID 0000.0001) %MON exf_swflux_mean              =  -2.6516416318198E+01
(PID.TID 0000.0001) %MON exf_swflux_sd                =   1.9648923659484E+01
(PID.TID 0000.0001) %MON exf_swflux_del2              =   4.7965400922860E-01
(PID.TID 0000.0001) %MON exf_evap_max                 =   4.5346507082534E-08
(PID.TID 0000.0001) %MON exf_evap_min                 =  -4.2210682151331E-09
(PID.TID 0000.0001) %MON exf_evap_mean                =   1.0439071706775E-08
(PID.TID 0000.0001) %MON exf_evap_sd                  =   1.1078855231968E-08
(PID.TID 0000.0001) %MON exf_evap_del2                =   1.3326508040011E-09
(PID.TID 0000.0001) %MON exf_swdown_max               =   7.1207040130115E+01
(PID.TID 0000.0001) %MON exf_swdown_min               =   9.0230503043190E-02
(PID.TID 0000.0001) %MON exf_swdown_mean              =   2.9462684797997E+01
(PID.TID 0000.0001) %MON exf_swdown_sd                =   2.1832137399427E+01
(PID.TID 0000.0001) %MON exf_swdown_del2              =   5.3294889914289E-01
(PID.TID 0000.0001) %MON exf_lwdown_max               =   3.0562676151463E+02
(PID.TID 0000.0001) %MON exf_lwdown_min               =   1.1590705083628E+02
(PID.TID 0000.0001) %MON exf_lwdown_mean              =   2.2585507298474E+02
(PID.TID 0000.0001) %MON exf_lwdown_sd                =   4.6301263017486E+01
(PID.TID 0000.0001) %MON exf_lwdown_del2              =   3.2438911371283E+00
(PID.TID 0000.0001) %MON exf_apressure_max            =   0.0000000000000E+00
(PID.TID 0000.0001) %MON exf_apressure_min            =   0.0000000000000E+00
(PID.TID 0000.0001) %MON exf_apressure_mean           =   0.0000000000000E+00
(PID.TID 0000.0001) %MON exf_apressure_sd             =   0.0000000000000E+00
(PID.TID 0000.0001) %MON exf_apressure_del2           =   0.0000000000000E+00
(PID.TID 0000.0001) %MON exf_runoff_max               =   0.0000000000000E+00
(PID.TID 0000.0001) %MON exf_runoff_min               =   0.0000000000000E+00
(PID.TID 0000.0001) %MON exf_runoff_mean              =   0.0000000000000E+00
(PID.TID 0000.0001) %MON exf_runoff_sd                =   0.0000000000000E+00
(PID.TID 0000.0001) %MON exf_runoff_del2              =   0.0000000000000E+00
(PID.TID 0000.0001) %MON exf_climsst_max              =   0.0000000000000E+00
(PID.TID 0000.0001) %MON exf_climsst_min              =   0.0000000000000E+00
(PID.TID 0000.0001) %MON exf_climsst_mean             =   0.0000000000000E+00
(PID.TID 0000.0001) %MON exf_climsst_sd               =   0.0000000000000E+00
(PID.TID 0000.0001) %MON exf_climsst_del2             =   0.0000000000000E+00
(PID.TID 0000.0001) %MON exf_climsss_max              =   3.5041439369077E+01
(PID.TID 0000.0001) %MON exf_climsss_min              =   3.0670869139374E+01
(PID.TID 0000.0001) %MON exf_climsss_mean             =   3.3462447601866E+01
(PID.TID 0000.0001) %MON exf_climsss_sd               =   1.0315283113566E+00
(PID.TID 0000.0001) %MON exf_climsss_del2             =   1.0009058571904E-01
(PID.TID 0000.0001) // =======================================================
(PID.TID 0000.0001) // End MONITOR EXF statistics
(PID.TID 0000.0001) // =======================================================
 ph-ice B  6  0.  0.  0.
 ph-ice C  6  3.56942995E+11
 cg2d: Sum(rhs),rhsMax =   3.26975608880287E-08  1.19247381688730E+00
(PID.TID 0000.0001)                    cg2d_init_res =    7.21968178362358E-02
(PID.TID 0000.0001)                       cg2d_iters =    31
(PID.TID 0000.0001)                         cg2d_res =    7.75481687382782E-09
(PID.TID 0000.0001) // =======================================================
(PID.TID 0000.0001) // Begin MONITOR dynamic field statistics
(PID.TID 0000.0001) // =======================================================
(PID.TID 0000.0001) %MON time_tsnumber                =                     7
(PID.TID 0000.0001) %MON time_secondsf                =   2.5200000000000E+04
(PID.TID 0000.0001) %MON dynstat_eta_max              =   3.2936016538548E-01
(PID.TID 0000.0001) %MON dynstat_eta_min              =  -1.1770511326499E-01
(PID.TID 0000.0001) %MON dynstat_eta_mean             =  -8.2408905987486E-10
(PID.TID 0000.0001) %MON dynstat_eta_sd               =   7.5394758590635E-02
(PID.TID 0000.0001) %MON dynstat_eta_del2             =   6.8471252086830E-03
(PID.TID 0000.0001) %MON dynstat_uvel_max             =   1.1269772459742E-01
(PID.TID 0000.0001) %MON dynstat_uvel_min             =  -6.8765832689924E-02
(PID.TID 0000.0001) %MON dynstat_uvel_mean            =   4.3029940025604E-04
(PID.TID 0000.0001) %MON dynstat_uvel_sd              =   1.0163725391482E-02
(PID.TID 0000.0001) %MON dynstat_uvel_del2            =   2.8369887807461E-03
(PID.TID 0000.0001) %MON dynstat_vvel_max             =   7.8861134644962E-02
(PID.TID 0000.0001) %MON dynstat_vvel_min             =  -1.5729654888331E-01
(PID.TID 0000.0001) %MON dynstat_vvel_mean            =  -1.4064598508866E-04
(PID.TID 0000.0001) %MON dynstat_vvel_sd              =   1.0737857013082E-02
(PID.TID 0000.0001) %MON dynstat_vvel_del2            =   2.6180110098441E-03
(PID.TID 0000.0001) %MON dynstat_wvel_max             =   3.8956160476978E-04
(PID.TID 0000.0001) %MON dynstat_wvel_min             =  -3.1395109083772E-04
(PID.TID 0000.0001) %MON dynstat_wvel_mean            =   3.0275882393014E-22
(PID.TID 0000.0001) %MON dynstat_wvel_sd              =   6.6218254247848E-05
(PID.TID 0000.0001) %MON dynstat_wvel_del2            =   5.2335089608641E-06
(PID.TID 0000.0001) %MON dynstat_theta_max            =   1.3342167313328E+01
(PID.TID 0000.0001) %MON dynstat_theta_min            =  -1.9632396650790E+00
(PID.TID 0000.0001) %MON dynstat_theta_mean           =   3.0737780136639E+00
(PID.TID 0000.0001) %MON dynstat_theta_sd             =   1.4270699936983E+00
(PID.TID 0000.0001) %MON dynstat_theta_del2           =   9.6154827752811E-02
(PID.TID 0000.0001) %MON dynstat_salt_max             =   3.5451461006553E+01
(PID.TID 0000.0001) %MON dynstat_salt_min             =   2.6697558760373E+01
(PID.TID 0000.0001) %MON dynstat_salt_mean            =   3.4740214192464E+01
(PID.TID 0000.0001) %MON dynstat_salt_sd              =   5.5617125200364E-01
(PID.TID 0000.0001) %MON dynstat_salt_del2            =   3.9340098106786E-02
(PID.TID 0000.0001) %MON dynstat_sst_max              =   5.7799879869785E+00
(PID.TID 0000.0001) %MON dynstat_sst_min              =  -1.9632396650790E+00
(PID.TID 0000.0001) %MON dynstat_sst_mean             =  -1.1517517599308E+00
(PID.TID 0000.0001) %MON dynstat_sst_sd               =   1.5190499305906E+00
(PID.TID 0000.0001) %MON dynstat_sst_del2             =   6.3409000403088E-02
(PID.TID 0000.0001) %MON dynstat_sss_max              =   3.2009218605212E+01
(PID.TID 0000.0001) %MON dynstat_sss_min              =   2.6697558760373E+01
(PID.TID 0000.0001) %MON dynstat_sss_mean             =   3.0357314404550E+01
(PID.TID 0000.0001) %MON dynstat_sss_sd               =   1.1651849369352E+00
(PID.TID 0000.0001) %MON dynstat_sss_del2             =   8.6725420385309E-02
(PID.TID 0000.0001) %MON extforcing_qnet_max          =   1.7938185915291E+02
(PID.TID 0000.0001) %MON extforcing_qnet_min          =  -6.8158377095308E+01
(PID.TID 0000.0001) %MON extforcing_qnet_mean         =   1.7862315296810E+01
(PID.TID 0000.0001) %MON extforcing_qnet_sd           =   4.4743459367674E+01
(PID.TID 0000.0001) %MON extforcing_qnet_del2         =   8.7521883301231E+00
(PID.TID 0000.0001) %MON extforcing_qsw_max           =   0.0000000000000E+00
(PID.TID 0000.0001) %MON extforcing_qsw_min           =  -5.7252466934762E+01
(PID.TID 0000.0001) %MON extforcing_qsw_mean          =  -1.5946701373435E+01
(PID.TID 0000.0001) %MON extforcing_qsw_sd            =   2.0540142398082E+01
(PID.TID 0000.0001) %MON extforcing_qsw_del2          =   1.8516687880801E+00
(PID.TID 0000.0001) %MON extforcing_empmr_max         =   2.6710498420396E-07
(PID.TID 0000.0001) %MON extforcing_empmr_min         =  -4.4486534474199E-07
(PID.TID 0000.0001) %MON extforcing_empmr_mean        =  -3.2517294989476E-08
(PID.TID 0000.0001) %MON extforcing_empmr_sd          =   1.1877643923306E-07
(PID.TID 0000.0001) %MON extforcing_empmr_del2        =   2.4754329862656E-08
(PID.TID 0000.0001) %MON extforcing_fu_max            =   8.3909906063124E-02
(PID.TID 0000.0001) %MON extforcing_fu_min            =  -4.5205501022873E-02
(PID.TID 0000.0001) %MON extforcing_fu_mean           =   2.4101793573910E-02
(PID.TID 0000.0001) %MON extforcing_fu_sd             =   2.6001359642039E-02
(PID.TID 0000.0001) %MON extforcing_fu_del2           =   3.5424807816552E-03
(PID.TID 0000.0001) %MON extforcing_fv_max            =   2.3809943087917E-02
(PID.TID 0000.0001) %MON extforcing_fv_min            =  -5.8386077156634E-02
(PID.TID 0000.0001) %MON extforcing_fv_mean           =  -9.5526194742790E-03
(PID.TID 0000.0001) %MON extforcing_fv_sd             =   1.7471333014025E-02
(PID.TID 0000.0001) %MON extforcing_fv_del2           =   2.1310049356081E-03
(PID.TID 0000.0001) %MON advcfl_uvel_max              =   2.7807360243747E-03
(PID.TID 0000.0001) %MON advcfl_vvel_max              =   2.5462833290498E-03
(PID.TID 0000.0001) %MON advcfl_wvel_max              =   8.4052661733845E-03
(PID.TID 0000.0001) %MON advcfl_W_hf_max              =   9.8539201932559E-03
(PID.TID 0000.0001) %MON pe_b_mean                    =   1.8739377126457E-05
(PID.TID 0000.0001) %MON ke_max                       =   1.2499305833829E-02
(PID.TID 0000.0001) %MON ke_mean                      =   8.5761340482705E-05
(PID.TID 0000.0001) %MON ke_vol                       =   5.3036189546438E+15
(PID.TID 0000.0001) %MON vort_r_min                   =  -1.0838813843523E-06
(PID.TID 0000.0001) %MON vort_r_max                   =   6.4421049967422E-07
(PID.TID 0000.0001) %MON vort_a_mean                  =   1.2067277101566E-04
(PID.TID 0000.0001) %MON vort_a_sd                    =   8.8121275421385E-06
(PID.TID 0000.0001) %MON vort_p_mean                  =   1.7734842433397E-04
(PID.TID 0000.0001) %MON vort_p_sd                    =   1.1689220339559E-04
(PID.TID 0000.0001) %MON surfExpan_theta_mean         =   2.2377196074753E-07
(PID.TID 0000.0001) %MON surfExpan_salt_mean          =   7.8907733763085E-07
(PID.TID 0000.0001) // =======================================================
(PID.TID 0000.0001) // End MONITOR dynamic field statistics
(PID.TID 0000.0001) // =======================================================
(PID.TID 0000.0001) // =======================================================
(PID.TID 0000.0001) // Begin MONITOR SEAICE statistics
(PID.TID 0000.0001) // =======================================================
(PID.TID 0000.0001) %MON seaice_tsnumber              =                     7
(PID.TID 0000.0001) %MON seaice_time_sec              =   2.5200000000000E+04
(PID.TID 0000.0001) %MON seaice_uice_max              =   2.5685227045056E-01
(PID.TID 0000.0001) %MON seaice_uice_min              =  -9.7750591653197E-02
(PID.TID 0000.0001) %MON seaice_uice_mean             =   7.6052919078779E-02
(PID.TID 0000.0001) %MON seaice_uice_sd               =   8.5420339140394E-02
(PID.TID 0000.0001) %MON seaice_uice_del2             =   9.6585238964612E-03
(PID.TID 0000.0001) %MON seaice_vice_max              =   9.3826162067744E-02
(PID.TID 0000.0001) %MON seaice_vice_min              =  -2.2536421280571E-01
(PID.TID 0000.0001) %MON seaice_vice_mean             =  -6.0012495784685E-02
(PID.TID 0000.0001) %MON seaice_vice_sd               =   7.2852763525401E-02
(PID.TID 0000.0001) %MON seaice_vice_del2             =   8.1655846767214E-03
(PID.TID 0000.0001) %MON seaice_area_max              =   1.0000000000000E+00
(PID.TID 0000.0001) %MON seaice_area_min              =   0.0000000000000E+00
(PID.TID 0000.0001) %MON seaice_area_mean             =   6.2408688458691E-01
(PID.TID 0000.0001) %MON seaice_area_sd               =   4.5772399922323E-01
(PID.TID 0000.0001) %MON seaice_area_del2             =   5.3629428844417E-02
(PID.TID 0000.0001) %MON seaice_heff_max              =   5.4815057630964E-01
(PID.TID 0000.0001) %MON seaice_heff_min              =   0.0000000000000E+00
(PID.TID 0000.0001) %MON seaice_heff_mean             =   1.4221063404070E-01
(PID.TID 0000.0001) %MON seaice_heff_sd               =   1.7437182367196E-01
(PID.TID 0000.0001) %MON seaice_heff_del2             =   1.3220450137201E-02
(PID.TID 0000.0001) %MON seaice_hsnow_max             =   2.0549515084231E-01
(PID.TID 0000.0001) %MON seaice_hsnow_min             =   0.0000000000000E+00
(PID.TID 0000.0001) %MON seaice_hsnow_mean            =   1.1857184786438E-01
(PID.TID 0000.0001) %MON seaice_hsnow_sd              =   9.7287286136380E-02
(PID.TID 0000.0001) %MON seaice_hsnow_del2            =   6.5537586324299E-03
(PID.TID 0000.0001) // =======================================================
(PID.TID 0000.0001) // End MONITOR SEAICE statistics
(PID.TID 0000.0001) // =======================================================
(PID.TID 0000.0001) // =======================================================
(PID.TID 0000.0001) // Begin MONITOR EXF statistics
(PID.TID 0000.0001) // =======================================================
(PID.TID 0000.0001) %MON exf_tsnumber                 =                     7
(PID.TID 0000.0001) %MON exf_time_sec                 =   2.5200000000000E+04
(PID.TID 0000.0001) %MON exf_ustress_max              =   5.2243932821743E-02
(PID.TID 0000.0001) %MON exf_ustress_min              =  -9.3796695311269E-02
(PID.TID 0000.0001) %MON exf_ustress_mean             =   1.7960118868234E-02
(PID.TID 0000.0001) %MON exf_ustress_sd               =   2.3726167256399E-02
(PID.TID 0000.0001) %MON exf_ustress_del2             =   2.8191129276155E-03
(PID.TID 0000.0001) %MON exf_vstress_max              =   5.3833777652830E-02
(PID.TID 0000.0001) %MON exf_vstress_min              =  -5.8440994808454E-02
(PID.TID 0000.0001) %MON exf_vstress_mean             =  -5.4400590721791E-03
(PID.TID 0000.0001) %MON exf_vstress_sd               =   1.4449140152602E-02
(PID.TID 0000.0001) %MON exf_vstress_del2             =   1.6932578152941E-03
(PID.TID 0000.0001) %MON exf_hflux_max                =   6.2511249114515E+02
(PID.TID 0000.0001) %MON exf_hflux_min                =  -5.1292187886500E+01
(PID.TID 0000.0001) %MON exf_hflux_mean               =   1.4638061591974E+02
(PID.TID 0000.0001) %MON exf_hflux_sd                 =   1.8004879986784E+02
(PID.TID 0000.0001) %MON exf_hflux_del2               =   1.6307687226553E+01
(PID.TID 0000.0001) %MON exf_sflux_max                =   3.9024744508734E-08
(PID.TID 0000.0001) %MON exf_sflux_min                =  -8.8844029821014E-08
(PID.TID 0000.0001) %MON exf_sflux_mean               =  -2.5943658213728E-08
(PID.TID 0000.0001) %MON exf_sflux_sd                 =   3.0352934512066E-08
(PID.TID 0000.0001) %MON exf_sflux_del2               =   3.1638747738670E-09
(PID.TID 0000.0001) %MON exf_uwind_max                =   6.4679267093784E+00
(PID.TID 0000.0001) %MON exf_uwind_min                =  -6.8374255452651E+00
(PID.TID 0000.0001) %MON exf_uwind_mean               =   2.7705256000140E+00
(PID.TID 0000.0001) %MON exf_uwind_sd                 =   2.9919728561678E+00
(PID.TID 0000.0001) %MON exf_uwind_del2               =   3.1576527695052E-01
(PID.TID 0000.0001) %MON exf_vwind_max                =   3.9242794780783E+00
(PID.TID 0000.0001) %MON exf_vwind_min                =  -6.0133620194399E+00
(PID.TID 0000.0001) %MON exf_vwind_mean               =  -7.5657426961883E-01
(PID.TID 0000.0001) %MON exf_vwind_sd                 =   1.7301024272674E+00
(PID.TID 0000.0001) %MON exf_vwind_del2               =   1.9328456693798E-01
(PID.TID 0000.0001) %MON exf_wspeed_max               =   7.8835498038073E+00
(PID.TID 0000.0001) %MON exf_wspeed_min               =   4.5865235699732E-01
(PID.TID 0000.0001) %MON exf_wspeed_mean              =   4.1988415259832E+00
(PID.TID 0000.0001) %MON exf_wspeed_sd                =   1.6009692521540E+00
(PID.TID 0000.0001) %MON exf_wspeed_del2              =   3.7730984410389E-01
(PID.TID 0000.0001) %MON exf_atemp_max                =   2.8187082742993E+02
(PID.TID 0000.0001) %MON exf_atemp_min                =   2.3643051433042E+02
(PID.TID 0000.0001) %MON exf_atemp_mean               =   2.6391354924392E+02
(PID.TID 0000.0001) %MON exf_atemp_sd                 =   1.1993651656543E+01
(PID.TID 0000.0001) %MON exf_atemp_del2               =   6.4955809059907E-01
(PID.TID 0000.0001) %MON exf_aqh_max                  =   6.3182971576392E-03
(PID.TID 0000.0001) %MON exf_aqh_min                  =   1.6303402368524E-04
(PID.TID 0000.0001) %MON exf_aqh_mean                 =   2.4764404153565E-03
(PID.TID 0000.0001) %MON exf_aqh_sd                   =   1.4257865072101E-03
(PID.TID 0000.0001) %MON exf_aqh_del2                 =   6.8046107671613E-05
(PID.TID 0000.0001) %MON exf_lwflux_max               =   1.8159055041551E+02
(PID.TID 0000.0001) %MON exf_lwflux_min               =   2.7054912715581E+01
(PID.TID 0000.0001) %MON exf_lwflux_mean              =   7.5259489809883E+01
(PID.TID 0000.0001) %MON exf_lwflux_sd                =   4.2774121798953E+01
(PID.TID 0000.0001) %MON exf_lwflux_del2              =   3.2322946740639E+00
(PID.TID 0000.0001) %MON exf_precip_max               =   1.0499733310606E-07
(PID.TID 0000.0001) %MON exf_precip_min               =   2.7265750163496E-10
(PID.TID 0000.0001) %MON exf_precip_mean              =   3.6390004634845E-08
(PID.TID 0000.0001) %MON exf_precip_sd                =   2.0581314966068E-08
(PID.TID 0000.0001) %MON exf_precip_del2              =   2.5588488380710E-09
(PID.TID 0000.0001) %MON exf_snowprecip_max           =   0.0000000000000E+00
(PID.TID 0000.0001) %MON exf_snowprecip_min           =   0.0000000000000E+00
(PID.TID 0000.0001) %MON exf_snowprecip_mean          =   0.0000000000000E+00
(PID.TID 0000.0001) %MON exf_snowprecip_sd            =   0.0000000000000E+00
(PID.TID 0000.0001) %MON exf_snowprecip_del2          =   0.0000000000000E+00
(PID.TID 0000.0001) %MON exf_swflux_max               =  -8.1207735616653E-02
(PID.TID 0000.0001) %MON exf_swflux_min               =  -6.4105206467675E+01
(PID.TID 0000.0001) %MON exf_swflux_mean              =  -2.6526948534072E+01
(PID.TID 0000.0001) %MON exf_swflux_sd                =   1.9652762825246E+01
(PID.TID 0000.0001) %MON exf_swflux_del2              =   4.7976088317456E-01
(PID.TID 0000.0001) %MON exf_evap_max                 =   4.5344313356314E-08
(PID.TID 0000.0001) %MON exf_evap_min                 =  -4.2074596001949E-09
(PID.TID 0000.0001) %MON exf_evap_mean                =   1.0446346421117E-08
(PID.TID 0000.0001) %MON exf_evap_sd                  =   1.1077265748507E-08
(PID.TID 0000.0001) %MON exf_evap_del2                =   1.3331769268870E-09
(PID.TID 0000.0001) %MON exf_swdown_max               =   7.1228007186306E+01
(PID.TID 0000.0001) %MON exf_swdown_min               =   9.0230817351836E-02
(PID.TID 0000.0001) %MON exf_swdown_mean              =   2.9474387260081E+01
(PID.TID 0000.0001) %MON exf_swdown_sd                =   2.1836403139162E+01
(PID.TID 0000.0001) %MON exf_swdown_del2              =   5.3306764797174E-01
(PID.TID 0000.0001) %MON exf_lwdown_max               =   3.0561793543081E+02
(PID.TID 0000.0001) %MON exf_lwdown_min               =   1.1589194395764E+02
(PID.TID 0000.0001) %MON exf_lwdown_mean              =   2.2583936565568E+02
(PID.TID 0000.0001) %MON exf_lwdown_sd                =   4.6305239399294E+01
(PID.TID 0000.0001) %MON exf_lwdown_del2              =   3.2439027772011E+00
(PID.TID 0000.0001) %MON exf_apressure_max            =   0.0000000000000E+00
(PID.TID 0000.0001) %MON exf_apressure_min            =   0.0000000000000E+00
(PID.TID 0000.0001) %MON exf_apressure_mean           =   0.0000000000000E+00
(PID.TID 0000.0001) %MON exf_apressure_sd             =   0.0000000000000E+00
(PID.TID 0000.0001) %MON exf_apressure_del2           =   0.0000000000000E+00
(PID.TID 0000.0001) %MON exf_runoff_max               =   0.0000000000000E+00
(PID.TID 0000.0001) %MON exf_runoff_min               =   0.0000000000000E+00
(PID.TID 0000.0001) %MON exf_runoff_mean              =   0.0000000000000E+00
(PID.TID 0000.0001) %MON exf_runoff_sd                =   0.0000000000000E+00
(PID.TID 0000.0001) %MON exf_runoff_del2              =   0.0000000000000E+00
(PID.TID 0000.0001) %MON exf_climsst_max              =   0.0000000000000E+00
(PID.TID 0000.0001) %MON exf_climsst_min              =   0.0000000000000E+00
(PID.TID 0000.0001) %MON exf_climsst_mean             =   0.0000000000000E+00
(PID.TID 0000.0001) %MON exf_climsst_sd               =   0.0000000000000E+00
(PID.TID 0000.0001) %MON exf_climsst_del2             =   0.0000000000000E+00
(PID.TID 0000.0001) %MON exf_climsss_max              =   3.5041624116116E+01
(PID.TID 0000.0001) %MON exf_climsss_min              =   3.0671628467372E+01
(PID.TID 0000.0001) %MON exf_climsss_mean             =   3.3462968935345E+01
(PID.TID 0000.0001) %MON exf_climsss_sd               =   1.0314580197633E+00
(PID.TID 0000.0001) %MON exf_climsss_del2             =   1.0007335642865E-01
(PID.TID 0000.0001) // =======================================================
(PID.TID 0000.0001) // End MONITOR EXF statistics
(PID.TID 0000.0001) // =======================================================
 ph-ice B  7  0.  0.  0.
 ph-ice C  7  4.07568388E+11
 cg2d: Sum(rhs),rhsMax =   3.08544946224509E-08  1.18167591176059E+00
(PID.TID 0000.0001)                    cg2d_init_res =    6.44891794326829E-02
(PID.TID 0000.0001)                       cg2d_iters =    31
(PID.TID 0000.0001)                         cg2d_res =    8.35922653850353E-09
(PID.TID 0000.0001) // =======================================================
(PID.TID 0000.0001) // Begin MONITOR dynamic field statistics
(PID.TID 0000.0001) // =======================================================
(PID.TID 0000.0001) %MON time_tsnumber                =                     8
(PID.TID 0000.0001) %MON time_secondsf                =   2.8800000000000E+04
(PID.TID 0000.0001) %MON dynstat_eta_max              =   3.2282435886688E-01
(PID.TID 0000.0001) %MON dynstat_eta_min              =  -1.0994780666053E-01
(PID.TID 0000.0001) %MON dynstat_eta_mean             =  -7.7955174993752E-10
(PID.TID 0000.0001) %MON dynstat_eta_sd               =   7.1001827306768E-02
(PID.TID 0000.0001) %MON dynstat_eta_del2             =   7.0209011577427E-03
(PID.TID 0000.0001) %MON dynstat_uvel_max             =   1.0580940030435E-01
(PID.TID 0000.0001) %MON dynstat_uvel_min             =  -8.2050035747978E-02
(PID.TID 0000.0001) %MON dynstat_uvel_mean            =   2.2524931741403E-04
(PID.TID 0000.0001) %MON dynstat_uvel_sd              =   1.0493609716499E-02
(PID.TID 0000.0001) %MON dynstat_uvel_del2            =   2.6249172745389E-03
(PID.TID 0000.0001) %MON dynstat_vvel_max             =   6.6788554516846E-02
(PID.TID 0000.0001) %MON dynstat_vvel_min             =  -1.5791856425858E-01
(PID.TID 0000.0001) %MON dynstat_vvel_mean            =   4.7047980966220E-05
(PID.TID 0000.0001) %MON dynstat_vvel_sd              =   9.3831847748346E-03
(PID.TID 0000.0001) %MON dynstat_vvel_del2            =   2.7034453856008E-03
(PID.TID 0000.0001) %MON dynstat_wvel_max             =   3.6784279312276E-04
(PID.TID 0000.0001) %MON dynstat_wvel_min             =  -3.2467058642340E-04
(PID.TID 0000.0001) %MON dynstat_wvel_mean            =   2.1231734872040E-21
(PID.TID 0000.0001) %MON dynstat_wvel_sd              =   6.5983888370113E-05
(PID.TID 0000.0001) %MON dynstat_wvel_del2            =   5.7410022740313E-06
(PID.TID 0000.0001) %MON dynstat_theta_max            =   1.3331422243453E+01
(PID.TID 0000.0001) %MON dynstat_theta_min            =  -1.9633394950634E+00
(PID.TID 0000.0001) %MON dynstat_theta_mean           =   3.0737651543240E+00
(PID.TID 0000.0001) %MON dynstat_theta_sd             =   1.4270161314867E+00
(PID.TID 0000.0001) %MON dynstat_theta_del2           =   9.6119175797144E-02
(PID.TID 0000.0001) %MON dynstat_salt_max             =   3.5451358644980E+01
(PID.TID 0000.0001) %MON dynstat_salt_min             =   2.6699809141146E+01
(PID.TID 0000.0001) %MON dynstat_salt_mean            =   3.4740215957177E+01
(PID.TID 0000.0001) %MON dynstat_salt_sd              =   5.5609230745240E-01
(PID.TID 0000.0001) %MON dynstat_salt_del2            =   3.9335308767457E-02
(PID.TID 0000.0001) %MON dynstat_sst_max              =   5.7791617991875E+00
(PID.TID 0000.0001) %MON dynstat_sst_min              =  -1.9633394950634E+00
(PID.TID 0000.0001) %MON dynstat_sst_mean             =  -1.1509845877188E+00
(PID.TID 0000.0001) %MON dynstat_sst_sd               =   1.5189546382536E+00
(PID.TID 0000.0001) %MON dynstat_sst_del2             =   6.3305551627179E-02
(PID.TID 0000.0001) %MON dynstat_sss_max              =   3.2009565226927E+01
(PID.TID 0000.0001) %MON dynstat_sss_min              =   2.6699809141146E+01
(PID.TID 0000.0001) %MON dynstat_sss_mean             =   3.0359672368630E+01
(PID.TID 0000.0001) %MON dynstat_sss_sd               =   1.1652529638658E+00
(PID.TID 0000.0001) %MON dynstat_sss_del2             =   8.6716362764184E-02
(PID.TID 0000.0001) %MON extforcing_qnet_max          =   2.7502363271916E+02
(PID.TID 0000.0001) %MON extforcing_qnet_min          =  -5.1292187886500E+01
(PID.TID 0000.0001) %MON extforcing_qnet_mean         =   2.2631613617582E+01
(PID.TID 0000.0001) %MON extforcing_qnet_sd           =   4.9829263275631E+01
(PID.TID 0000.0001) %MON extforcing_qnet_del2         =   8.0387151163950E+00
(PID.TID 0000.0001) %MON extforcing_qsw_max           =   0.0000000000000E+00
(PID.TID 0000.0001) %MON extforcing_qsw_min           =  -5.7267069651618E+01
(PID.TID 0000.0001) %MON extforcing_qsw_mean          =  -1.5921335343657E+01
(PID.TID 0000.0001) %MON extforcing_qsw_sd            =   2.0552125346298E+01
(PID.TID 0000.0001) %MON extforcing_qsw_del2          =   1.8634022241028E+00
(PID.TID 0000.0001) %MON extforcing_empmr_max         =   1.8370829159721E-07
(PID.TID 0000.0001) %MON extforcing_empmr_min         =  -5.5299518661784E-07
(PID.TID 0000.0001) %MON extforcing_empmr_mean        =  -4.7316584175067E-08
(PID.TID 0000.0001) %MON extforcing_empmr_sd          =   1.3302878185538E-07
(PID.TID 0000.0001) %MON extforcing_empmr_del2        =   2.3433995499322E-08
(PID.TID 0000.0001) %MON extforcing_fu_max            =   8.6658672314800E-02
(PID.TID 0000.0001) %MON extforcing_fu_min            =  -4.6196471502193E-02
(PID.TID 0000.0001) %MON extforcing_fu_mean           =   2.4518002157023E-02
(PID.TID 0000.0001) %MON extforcing_fu_sd             =   2.6282484661568E-02
(PID.TID 0000.0001) %MON extforcing_fu_del2           =   3.7151719406475E-03
(PID.TID 0000.0001) %MON extforcing_fv_max            =   2.3308876008198E-02
(PID.TID 0000.0001) %MON extforcing_fv_min            =  -5.8388142651340E-02
(PID.TID 0000.0001) %MON extforcing_fv_mean           =  -9.4087839790044E-03
(PID.TID 0000.0001) %MON extforcing_fv_sd             =   1.7250481418177E-02
(PID.TID 0000.0001) %MON extforcing_fv_del2           =   2.1860659981091E-03
(PID.TID 0000.0001) %MON advcfl_uvel_max              =   2.7396499636027E-03
(PID.TID 0000.0001) %MON advcfl_vvel_max              =   2.5563523826413E-03
(PID.TID 0000.0001) %MON advcfl_wvel_max              =   8.0104112326367E-03
(PID.TID 0000.0001) %MON advcfl_W_hf_max              =   1.0487642307945E-02
(PID.TID 0000.0001) %MON pe_b_mean                    =   1.6619268075683E-05
(PID.TID 0000.0001) %MON ke_max                       =   1.2140069111194E-02
(PID.TID 0000.0001) %MON ke_mean                      =   7.7778945347132E-05
(PID.TID 0000.0001) %MON ke_vol                       =   5.3036189546438E+15
(PID.TID 0000.0001) %MON vort_r_min                   =  -9.2169603397228E-07
(PID.TID 0000.0001) %MON vort_r_max                   =   5.3029228721607E-07
(PID.TID 0000.0001) %MON vort_a_mean                  =   1.2067277137090E-04
(PID.TID 0000.0001) %MON vort_a_sd                    =   8.8119494716495E-06
(PID.TID 0000.0001) %MON vort_p_mean                  =   1.7734842485605E-04
(PID.TID 0000.0001) %MON vort_p_sd                    =   1.1688972277672E-04
(PID.TID 0000.0001) %MON surfExpan_theta_mean         =  -5.7607060561875E-07
(PID.TID 0000.0001) %MON surfExpan_salt_mean          =   6.3448311465432E-07
(PID.TID 0000.0001) // =======================================================
(PID.TID 0000.0001) // End MONITOR dynamic field statistics
(PID.TID 0000.0001) // =======================================================
(PID.TID 0000.0001) // =======================================================
(PID.TID 0000.0001) // Begin MONITOR SEAICE statistics
(PID.TID 0000.0001) // =======================================================
(PID.TID 0000.0001) %MON seaice_tsnumber              =                     8
(PID.TID 0000.0001) %MON seaice_time_sec              =   2.8800000000000E+04
(PID.TID 0000.0001) %MON seaice_uice_max              =   2.6752956373033E-01
(PID.TID 0000.0001) %MON seaice_uice_min              =  -8.8502450662207E-02
(PID.TID 0000.0001) %MON seaice_uice_mean             =   6.9613024766212E-02
(PID.TID 0000.0001) %MON seaice_uice_sd               =   8.3091311185039E-02
(PID.TID 0000.0001) %MON seaice_uice_del2             =   8.8606511909184E-03
(PID.TID 0000.0001) %MON seaice_vice_max              =   8.6568020768166E-02
(PID.TID 0000.0001) %MON seaice_vice_min              =  -2.2434575858616E-01
(PID.TID 0000.0001) %MON seaice_vice_mean             =  -6.1223752109161E-02
(PID.TID 0000.0001) %MON seaice_vice_sd               =   7.0132225581223E-02
(PID.TID 0000.0001) %MON seaice_vice_del2             =   8.0005821962568E-03
(PID.TID 0000.0001) %MON seaice_area_max              =   1.0000000000000E+00
(PID.TID 0000.0001) %MON seaice_area_min              =   0.0000000000000E+00
(PID.TID 0000.0001) %MON seaice_area_mean             =   6.2402840595208E-01
(PID.TID 0000.0001) %MON seaice_area_sd               =   4.5740422452438E-01
(PID.TID 0000.0001) %MON seaice_area_del2             =   5.3616903054160E-02
(PID.TID 0000.0001) %MON seaice_heff_max              =   5.4845941034800E-01
(PID.TID 0000.0001) %MON seaice_heff_min              =   0.0000000000000E+00
(PID.TID 0000.0001) %MON seaice_heff_mean             =   1.4210919265671E-01
(PID.TID 0000.0001) %MON seaice_heff_sd               =   1.7454232422185E-01
(PID.TID 0000.0001) %MON seaice_heff_del2             =   1.3200108914835E-02
(PID.TID 0000.0001) %MON seaice_hsnow_max             =   2.0628031960974E-01
(PID.TID 0000.0001) %MON seaice_hsnow_min             =   0.0000000000000E+00
(PID.TID 0000.0001) %MON seaice_hsnow_mean            =   1.1873224112862E-01
(PID.TID 0000.0001) %MON seaice_hsnow_sd              =   9.7409172567973E-02
(PID.TID 0000.0001) %MON seaice_hsnow_del2            =   6.5932180713433E-03
(PID.TID 0000.0001) // =======================================================
(PID.TID 0000.0001) // End MONITOR SEAICE statistics
(PID.TID 0000.0001) // =======================================================
(PID.TID 0000.0001) // =======================================================
(PID.TID 0000.0001) // Begin MONITOR EXF statistics
(PID.TID 0000.0001) // =======================================================
(PID.TID 0000.0001) %MON exf_tsnumber                 =                     8
(PID.TID 0000.0001) %MON exf_time_sec                 =   2.8800000000000E+04
(PID.TID 0000.0001) %MON exf_ustress_max              =   5.2249214879362E-02
(PID.TID 0000.0001) %MON exf_ustress_min              =  -9.3798929022903E-02
(PID.TID 0000.0001) %MON exf_ustress_mean             =   1.7966529287965E-02
(PID.TID 0000.0001) %MON exf_ustress_sd               =   2.3731957560627E-02
(PID.TID 0000.0001) %MON exf_ustress_del2             =   2.8199337877605E-03
(PID.TID 0000.0001) %MON exf_vstress_max              =   5.3835262836833E-02
(PID.TID 0000.0001) %MON exf_vstress_min              =  -5.8423863261754E-02
(PID.TID 0000.0001) %MON exf_vstress_mean             =  -5.4366061402555E-03
(PID.TID 0000.0001) %MON exf_vstress_sd               =   1.4450709478647E-02
(PID.TID 0000.0001) %MON exf_vstress_del2             =   1.6932443852647E-03
(PID.TID 0000.0001) %MON exf_hflux_max                =   6.2516667571601E+02
(PID.TID 0000.0001) %MON exf_hflux_min                =  -5.1290005256042E+01
(PID.TID 0000.0001) %MON exf_hflux_mean               =   1.4644490061509E+02
(PID.TID 0000.0001) %MON exf_hflux_sd                 =   1.8007068103613E+02
(PID.TID 0000.0001) %MON exf_hflux_del2               =   1.6310945621959E+01
(PID.TID 0000.0001) %MON exf_sflux_max                =   3.9024984842035E-08
(PID.TID 0000.0001) %MON exf_sflux_min                =  -8.8852274113664E-08
(PID.TID 0000.0001) %MON exf_sflux_mean               =  -2.5937377388229E-08
(PID.TID 0000.0001) %MON exf_sflux_sd                 =   3.0352649171946E-08
(PID.TID 0000.0001) %MON exf_sflux_del2               =   3.1646078554429E-09
(PID.TID 0000.0001) %MON exf_uwind_max                =   6.4684341618272E+00
(PID.TID 0000.0001) %MON exf_uwind_min                =  -6.8374523269674E+00
(PID.TID 0000.0001) %MON exf_uwind_mean               =   2.7706331523584E+00
(PID.TID 0000.0001) %MON exf_uwind_sd                 =   2.9922491036980E+00
(PID.TID 0000.0001) %MON exf_uwind_del2               =   3.1577589455021E-01
(PID.TID 0000.0001) %MON exf_vwind_max                =   3.9243096588739E+00
(PID.TID 0000.0001) %MON exf_vwind_min                =  -6.0124561096150E+00
(PID.TID 0000.0001) %MON exf_vwind_mean               =  -7.5595649652871E-01
(PID.TID 0000.0001) %MON exf_vwind_sd                 =   1.7302112611019E+00
(PID.TID 0000.0001) %MON exf_vwind_del2               =   1.9327792057372E-01
(PID.TID 0000.0001) %MON exf_wspeed_max               =   7.8835880550853E+00
(PID.TID 0000.0001) %MON exf_wspeed_min               =   4.5840953253040E-01
(PID.TID 0000.0001) %MON exf_wspeed_mean              =   4.1989448725728E+00
(PID.TID 0000.0001) %MON exf_wspeed_sd                =   1.6012263903992E+00
(PID.TID 0000.0001) %MON exf_wspeed_del2              =   3.7736312737620E-01
(PID.TID 0000.0001) %MON exf_atemp_max                =   2.8186911527707E+02
(PID.TID 0000.0001) %MON exf_atemp_min                =   2.3642604936277E+02
(PID.TID 0000.0001) %MON exf_atemp_mean               =   2.6390890515856E+02
(PID.TID 0000.0001) %MON exf_atemp_sd                 =   1.1995115599497E+01
(PID.TID 0000.0001) %MON exf_atemp_del2               =   6.4957742354040E-01
(PID.TID 0000.0001) %MON exf_aqh_max                  =   6.3176006167781E-03
(PID.TID 0000.0001) %MON exf_aqh_min                  =   1.6293992018683E-04
(PID.TID 0000.0001) %MON exf_aqh_mean                 =   2.4758800589519E-03
(PID.TID 0000.0001) %MON exf_aqh_sd                   =   1.4256836550895E-03
(PID.TID 0000.0001) %MON exf_aqh_del2                 =   6.8032440110466E-05
(PID.TID 0000.0001) %MON exf_lwflux_max               =   1.8160657786431E+02
(PID.TID 0000.0001) %MON exf_lwflux_min               =   2.7042773776827E+01
(PID.TID 0000.0001) %MON exf_lwflux_mean              =   7.5278586524193E+01
(PID.TID 0000.0001) %MON exf_lwflux_sd                =   4.2775412241966E+01
(PID.TID 0000.0001) %MON exf_lwflux_del2              =   3.2322566706845E+00
(PID.TID 0000.0001) %MON exf_precip_max               =   1.0499871454869E-07
(PID.TID 0000.0001) %MON exf_precip_min               =   2.7252357516229E-10
(PID.TID 0000.0001) %MON exf_precip_mean              =   3.6389993790810E-08
(PID.TID 0000.0001) %MON exf_precip_sd                =   2.0581769987393E-08
(PID.TID 0000.0001) %MON exf_precip_del2              =   2.5593765312607E-09
(PID.TID 0000.0001) %MON exf_snowprecip_max           =   0.0000000000000E+00
(PID.TID 0000.0001) %MON exf_snowprecip_min           =   0.0000000000000E+00
(PID.TID 0000.0001) %MON exf_snowprecip_mean          =   0.0000000000000E+00
(PID.TID 0000.0001) %MON exf_snowprecip_sd            =   0.0000000000000E+00
(PID.TID 0000.0001) %MON exf_snowprecip_del2          =   0.0000000000000E+00
(PID.TID 0000.0001) %MON exf_swflux_max               =  -8.1208018494434E-02
(PID.TID 0000.0001) %MON exf_swflux_min               =  -6.4124076818247E+01
(PID.TID 0000.0001) %MON exf_swflux_mean              =  -2.6537480749947E+01
(PID.TID 0000.0001) %MON exf_swflux_sd                =   1.9656602581253E+01
(PID.TID 0000.0001) %MON exf_swflux_del2              =   4.7986775712052E-01
(PID.TID 0000.0001) %MON exf_evap_max                 =   4.5343890978685E-08
(PID.TID 0000.0001) %MON exf_evap_min                 =  -4.2045649083408E-09
(PID.TID 0000.0001) %MON exf_evap_mean                =   1.0452616402581E-08
(PID.TID 0000.0001) %MON exf_evap_sd                  =   1.1076424482655E-08
(PID.TID 0000.0001) %MON exf_evap_del2                =   1.3336014262461E-09
(PID.TID 0000.0001) %MON exf_swdown_max               =   7.1248974242497E+01
(PID.TID 0000.0001) %MON exf_swdown_min               =   9.0231131660482E-02
(PID.TID 0000.0001) %MON exf_swdown_mean              =   2.9486089722164E+01
(PID.TID 0000.0001) %MON exf_swdown_sd                =   2.1840669534725E+01
(PID.TID 0000.0001) %MON exf_swdown_del2              =   5.3318639680058E-01
(PID.TID 0000.0001) %MON exf_lwdown_max               =   3.0560910934698E+02
(PID.TID 0000.0001) %MON exf_lwdown_min               =   1.1587683707899E+02
(PID.TID 0000.0001) %MON exf_lwdown_mean              =   2.2582365832661E+02
(PID.TID 0000.0001) %MON exf_lwdown_sd                =   4.6309216947189E+01
(PID.TID 0000.0001) %MON exf_lwdown_del2              =   3.2439144172738E+00
(PID.TID 0000.0001) %MON exf_apressure_max            =   0.0000000000000E+00
(PID.TID 0000.0001) %MON exf_apressure_min            =   0.0000000000000E+00
(PID.TID 0000.0001) %MON exf_apressure_mean           =   0.0000000000000E+00
(PID.TID 0000.0001) %MON exf_apressure_sd             =   0.0000000000000E+00
(PID.TID 0000.0001) %MON exf_apressure_del2           =   0.0000000000000E+00
(PID.TID 0000.0001) %MON exf_runoff_max               =   0.0000000000000E+00
(PID.TID 0000.0001) %MON exf_runoff_min               =   0.0000000000000E+00
(PID.TID 0000.0001) %MON exf_runoff_mean              =   0.0000000000000E+00
(PID.TID 0000.0001) %MON exf_runoff_sd                =   0.0000000000000E+00
(PID.TID 0000.0001) %MON exf_runoff_del2              =   0.0000000000000E+00
(PID.TID 0000.0001) %MON exf_climsst_max              =   0.0000000000000E+00
(PID.TID 0000.0001) %MON exf_climsst_min              =   0.0000000000000E+00
(PID.TID 0000.0001) %MON exf_climsst_mean             =   0.0000000000000E+00
(PID.TID 0000.0001) %MON exf_climsst_sd               =   0.0000000000000E+00
(PID.TID 0000.0001) %MON exf_climsst_del2             =   0.0000000000000E+00
(PID.TID 0000.0001) %MON exf_climsss_max              =   3.5041808863155E+01
(PID.TID 0000.0001) %MON exf_climsss_min              =   3.0672387795370E+01
(PID.TID 0000.0001) %MON exf_climsss_mean             =   3.3463490268825E+01
(PID.TID 0000.0001) %MON exf_climsss_sd               =   1.0313879583737E+00
(PID.TID 0000.0001) %MON exf_climsss_del2             =   1.0005612713826E-01
(PID.TID 0000.0001) // =======================================================
(PID.TID 0000.0001) // End MONITOR EXF statistics
(PID.TID 0000.0001) // =======================================================
 ph-ice B  8  0.  0.  0.
 ph-ice C  8  4.5814499E+11
 cg2d: Sum(rhs),rhsMax =   2.95457445974312E-08  1.16732732344648E+00
(PID.TID 0000.0001)                    cg2d_init_res =    5.97984798737430E-02
(PID.TID 0000.0001)                       cg2d_iters =    31
(PID.TID 0000.0001)                         cg2d_res =    5.22483438773491E-09
(PID.TID 0000.0001) // =======================================================
(PID.TID 0000.0001) // Begin MONITOR dynamic field statistics
(PID.TID 0000.0001) // =======================================================
(PID.TID 0000.0001) %MON time_tsnumber                =                     9
(PID.TID 0000.0001) %MON time_secondsf                =   3.2400000000000E+04
(PID.TID 0000.0001) %MON dynstat_eta_max              =   3.1197310700155E-01
(PID.TID 0000.0001) %MON dynstat_eta_min              =  -1.0299877034984E-01
(PID.TID 0000.0001) %MON dynstat_eta_mean             =  -7.5610001478178E-10
(PID.TID 0000.0001) %MON dynstat_eta_sd               =   6.7125221287584E-02
(PID.TID 0000.0001) %MON dynstat_eta_del2             =   7.1902027336216E-03
(PID.TID 0000.0001) %MON dynstat_uvel_max             =   9.0969037550951E-02
(PID.TID 0000.0001) %MON dynstat_uvel_min             =  -8.7302555698456E-02
(PID.TID 0000.0001) %MON dynstat_uvel_mean            =   1.7227294698111E-05
(PID.TID 0000.0001) %MON dynstat_uvel_sd              =   1.0300885797214E-02
(PID.TID 0000.0001) %MON dynstat_uvel_del2            =   2.3933459676892E-03
(PID.TID 0000.0001) %MON dynstat_vvel_max             =   5.1251836714271E-02
(PID.TID 0000.0001) %MON dynstat_vvel_min             =  -1.4501227478892E-01
(PID.TID 0000.0001) %MON dynstat_vvel_mean            =   2.4760440135058E-04
(PID.TID 0000.0001) %MON dynstat_vvel_sd              =   7.9642868283484E-03
(PID.TID 0000.0001) %MON dynstat_vvel_del2            =   2.6874257432302E-03
(PID.TID 0000.0001) %MON dynstat_wvel_max             =   3.2481345308424E-04
(PID.TID 0000.0001) %MON dynstat_wvel_min             =  -3.1001561607848E-04
(PID.TID 0000.0001) %MON dynstat_wvel_mean            =   2.7958850577222E-22
(PID.TID 0000.0001) %MON dynstat_wvel_sd              =   6.2724737032832E-05
(PID.TID 0000.0001) %MON dynstat_wvel_del2            =   6.2836536083761E-06
(PID.TID 0000.0001) %MON dynstat_theta_max            =   1.3317552457755E+01
(PID.TID 0000.0001) %MON dynstat_theta_min            =  -1.9624820530824E+00
(PID.TID 0000.0001) %MON dynstat_theta_mean           =   3.0737523835960E+00
(PID.TID 0000.0001) %MON dynstat_theta_sd             =   1.4269655010377E+00
(PID.TID 0000.0001) %MON dynstat_theta_del2           =   9.6087920415740E-02
(PID.TID 0000.0001) %MON dynstat_salt_max             =   3.5451161045991E+01
(PID.TID 0000.0001) %MON dynstat_salt_min             =   2.6702017016288E+01
(PID.TID 0000.0001) %MON dynstat_salt_mean            =   3.4740217432222E+01
(PID.TID 0000.0001) %MON dynstat_salt_sd              =   5.5601624826603E-01
(PID.TID 0000.0001) %MON dynstat_salt_del2            =   3.9335977118307E-02
(PID.TID 0000.0001) %MON dynstat_sst_max              =   5.7751302307681E+00
(PID.TID 0000.0001) %MON dynstat_sst_min              =  -1.9624820530824E+00
(PID.TID 0000.0001) %MON dynstat_sst_mean             =  -1.1506079805147E+00
(PID.TID 0000.0001) %MON dynstat_sst_sd               =   1.5184889755020E+00
(PID.TID 0000.0001) %MON dynstat_sst_del2             =   6.3197779175075E-02
(PID.TID 0000.0001) %MON dynstat_sss_max              =   3.2009880353300E+01
(PID.TID 0000.0001) %MON dynstat_sss_min              =   2.6702017016288E+01
(PID.TID 0000.0001) %MON dynstat_sss_mean             =   3.0361913802821E+01
(PID.TID 0000.0001) %MON dynstat_sss_sd               =   1.1652572241327E+00
(PID.TID 0000.0001) %MON dynstat_sss_del2             =   8.6707176115089E-02
(PID.TID 0000.0001) %MON extforcing_qnet_max          =   2.4427467006353E+02
(PID.TID 0000.0001) %MON extforcing_qnet_min          =  -5.1290005256042E+01
(PID.TID 0000.0001) %MON extforcing_qnet_mean         =   2.5941732625047E+01
(PID.TID 0000.0001) %MON extforcing_qnet_sd           =   4.9505237975942E+01
(PID.TID 0000.0001) %MON extforcing_qnet_del2         =   7.5266747312539E+00
(PID.TID 0000.0001) %MON extforcing_qsw_max           =   0.0000000000000E+00
(PID.TID 0000.0001) %MON extforcing_qsw_min           =  -5.7280255718066E+01
(PID.TID 0000.0001) %MON extforcing_qsw_mean          =  -1.5958109705488E+01
(PID.TID 0000.0001) %MON extforcing_qsw_sd            =   2.0539839900716E+01
(PID.TID 0000.0001) %MON extforcing_qsw_del2          =   1.8568814038054E+00
(PID.TID 0000.0001) %MON extforcing_empmr_max         =   1.9366580842523E-07
(PID.TID 0000.0001) %MON extforcing_empmr_min         =  -4.6666729083480E-07
(PID.TID 0000.0001) %MON extforcing_empmr_mean        =  -5.7457116962964E-08
(PID.TID 0000.0001) %MON extforcing_empmr_sd          =   1.3268971422908E-07
(PID.TID 0000.0001) %MON extforcing_empmr_del2        =   2.2172441461899E-08
(PID.TID 0000.0001) %MON extforcing_fu_max            =   8.9623818954502E-02
(PID.TID 0000.0001) %MON extforcing_fu_min            =  -4.6950806417890E-02
(PID.TID 0000.0001) %MON extforcing_fu_mean           =   2.4867237585012E-02
(PID.TID 0000.0001) %MON extforcing_fu_sd             =   2.6540492270926E-02
(PID.TID 0000.0001) %MON extforcing_fu_del2           =   3.8746431107723E-03
(PID.TID 0000.0001) %MON extforcing_fv_max            =   2.3256862673351E-02
(PID.TID 0000.0001) %MON extforcing_fv_min            =  -5.8387363528854E-02
(PID.TID 0000.0001) %MON extforcing_fv_mean           =  -9.2845579353443E-03
(PID.TID 0000.0001) %MON extforcing_fv_sd             =   1.7126944308131E-02
(PID.TID 0000.0001) %MON extforcing_fv_del2           =   2.2200055090634E-03
(PID.TID 0000.0001) %MON advcfl_uvel_max              =   2.8736006472806E-03
(PID.TID 0000.0001) %MON advcfl_vvel_max              =   2.3474280931398E-03
(PID.TID 0000.0001) %MON advcfl_wvel_max              =   7.8864232807894E-03
(PID.TID 0000.0001) %MON advcfl_W_hf_max              =   1.0308158363807E-02
(PID.TID 0000.0001) %MON pe_b_mean                    =   1.4854030191355E-05
(PID.TID 0000.0001) %MON ke_max                       =   1.0905085436938E-02
(PID.TID 0000.0001) %MON ke_mean                      =   6.6615812902862E-05
(PID.TID 0000.0001) %MON ke_vol                       =   5.3036189546438E+15
(PID.TID 0000.0001) %MON vort_r_min                   =  -6.8958219588513E-07
(PID.TID 0000.0001) %MON vort_r_max                   =   3.8980419988984E-07
(PID.TID 0000.0001) %MON vort_a_mean                  =   1.2067277292514E-04
(PID.TID 0000.0001) %MON vort_a_sd                    =   8.8117513188573E-06
(PID.TID 0000.0001) %MON vort_p_mean                  =   1.7734842714026E-04
(PID.TID 0000.0001) %MON vort_p_sd                    =   1.1688996275017E-04
(PID.TID 0000.0001) %MON surfExpan_theta_mean         =  -1.2620507664856E-06
(PID.TID 0000.0001) %MON surfExpan_salt_mean          =   4.5114676865508E-07
(PID.TID 0000.0001) // =======================================================
(PID.TID 0000.0001) // End MONITOR dynamic field statistics
(PID.TID 0000.0001) // =======================================================
(PID.TID 0000.0001) // =======================================================
(PID.TID 0000.0001) // Begin MONITOR SEAICE statistics
(PID.TID 0000.0001) // =======================================================
(PID.TID 0000.0001) %MON seaice_tsnumber              =                     9
(PID.TID 0000.0001) %MON seaice_time_sec              =   3.2400000000000E+04
(PID.TID 0000.0001) %MON seaice_uice_max              =   2.6896759841883E-01
(PID.TID 0000.0001) %MON seaice_uice_min              =  -8.0042763880867E-02
(PID.TID 0000.0001) %MON seaice_uice_mean             =   6.2853308646504E-02
(PID.TID 0000.0001) %MON seaice_uice_sd               =   7.9023133712961E-02
(PID.TID 0000.0001) %MON seaice_uice_del2             =   7.8428669868333E-03
(PID.TID 0000.0001) %MON seaice_vice_max              =   7.8808436811740E-02
(PID.TID 0000.0001) %MON seaice_vice_min              =  -2.0876036218558E-01
(PID.TID 0000.0001) %MON seaice_vice_mean             =  -5.8595992573888E-02
(PID.TID 0000.0001) %MON seaice_vice_sd               =   6.4348765927069E-02
(PID.TID 0000.0001) %MON seaice_vice_del2             =   7.5771863093975E-03
(PID.TID 0000.0001) %MON seaice_area_max              =   1.0000000000000E+00
(PID.TID 0000.0001) %MON seaice_area_min              =   0.0000000000000E+00
(PID.TID 0000.0001) %MON seaice_area_mean             =   6.2385269763214E-01
(PID.TID 0000.0001) %MON seaice_area_sd               =   4.5701603320194E-01
(PID.TID 0000.0001) %MON seaice_area_del2             =   5.3473206875540E-02
(PID.TID 0000.0001) %MON seaice_heff_max              =   5.4880172478731E-01
(PID.TID 0000.0001) %MON seaice_heff_min              =   0.0000000000000E+00
(PID.TID 0000.0001) %MON seaice_heff_mean             =   1.4197223214735E-01
(PID.TID 0000.0001) %MON seaice_heff_sd               =   1.7470066407891E-01
(PID.TID 0000.0001) %MON seaice_heff_del2             =   1.3179487165135E-02
(PID.TID 0000.0001) %MON seaice_hsnow_max             =   2.0706544703537E-01
(PID.TID 0000.0001) %MON seaice_hsnow_min             =   0.0000000000000E+00
(PID.TID 0000.0001) %MON seaice_hsnow_mean            =   1.1888097080041E-01
(PID.TID 0000.0001) %MON seaice_hsnow_sd              =   9.7521343281969E-02
(PID.TID 0000.0001) %MON seaice_hsnow_del2            =   6.6252286451806E-03
(PID.TID 0000.0001) // =======================================================
(PID.TID 0000.0001) // End MONITOR SEAICE statistics
(PID.TID 0000.0001) // =======================================================
(PID.TID 0000.0001) // =======================================================
(PID.TID 0000.0001) // Begin MONITOR EXF statistics
(PID.TID 0000.0001) // =======================================================
(PID.TID 0000.0001) %MON exf_tsnumber                 =                     9
(PID.TID 0000.0001) %MON exf_time_sec                 =   3.2400000000000E+04
(PID.TID 0000.0001) %MON exf_ustress_max              =   5.2253931426656E-02
(PID.TID 0000.0001) %MON exf_ustress_min              =  -9.3801402378650E-02
(PID.TID 0000.0001) %MON exf_ustress_mean             =   1.7972509819802E-02
(PID.TID 0000.0001) %MON exf_ustress_sd               =   2.3737460831347E-02
(PID.TID 0000.0001) %MON exf_ustress_del2             =   2.8207100162461E-03
(PID.TID 0000.0001) %MON exf_vstress_max              =   5.3836885571564E-02
(PID.TID 0000.0001) %MON exf_vstress_min              =  -5.8402245568698E-02
(PID.TID 0000.0001) %MON exf_vstress_mean             =  -5.4330601493508E-03
(PID.TID 0000.0001) %MON exf_vstress_sd               =   1.4451995382009E-02
(PID.TID 0000.0001) %MON exf_vstress_del2             =   1.6932502865535E-03
(PID.TID 0000.0001) %MON exf_hflux_max                =   6.2523607820799E+02
(PID.TID 0000.0001) %MON exf_hflux_min                =  -5.1341825210305E+01
(PID.TID 0000.0001) %MON exf_hflux_mean               =   1.4650265831129E+02
(PID.TID 0000.0001) %MON exf_hflux_sd                 =   1.8009640838027E+02
(PID.TID 0000.0001) %MON exf_hflux_del2               =   1.6313497634125E+01
(PID.TID 0000.0001) %MON exf_sflux_max                =   3.9027165063396E-08
(PID.TID 0000.0001) %MON exf_sflux_min                =  -8.8881916005779E-08
(PID.TID 0000.0001) %MON exf_sflux_mean               =  -2.5931971276170E-08
(PID.TID 0000.0001) %MON exf_sflux_sd                 =   3.0353384751389E-08
(PID.TID 0000.0001) %MON exf_sflux_del2               =   3.1652755341735E-09
(PID.TID 0000.0001) %MON exf_uwind_max                =   6.4689416142761E+00
(PID.TID 0000.0001) %MON exf_uwind_min                =  -6.8374791086697E+00
(PID.TID 0000.0001) %MON exf_uwind_mean               =   2.7707407047028E+00
(PID.TID 0000.0001) %MON exf_uwind_sd                 =   2.9925253914175E+00
(PID.TID 0000.0001) %MON exf_uwind_del2               =   3.1578823099586E-01
(PID.TID 0000.0001) %MON exf_vwind_max                =   3.9243398396695E+00
(PID.TID 0000.0001) %MON exf_vwind_min                =  -6.0115501997901E+00
(PID.TID 0000.0001) %MON exf_vwind_mean               =  -7.5533872343860E-01
(PID.TID 0000.0001) %MON exf_vwind_sd                 =   1.7303202080462E+00
(PID.TID 0000.0001) %MON exf_vwind_del2               =   1.9327127420947E-01
(PID.TID 0000.0001) %MON exf_wspeed_max               =   7.8836263063842E+00
(PID.TID 0000.0001) %MON exf_wspeed_min               =   4.5816671047235E-01
(PID.TID 0000.0001) %MON exf_wspeed_mean              =   4.1990483480424E+00
(PID.TID 0000.0001) %MON exf_wspeed_sd                =   1.6014836406520E+00
(PID.TID 0000.0001) %MON exf_wspeed_del2              =   3.7741640417905E-01
(PID.TID 0000.0001) %MON exf_atemp_max                =   2.8186740312420E+02
(PID.TID 0000.0001) %MON exf_atemp_min                =   2.3642158439511E+02
(PID.TID 0000.0001) %MON exf_atemp_mean               =   2.6390426107320E+02
(PID.TID 0000.0001) %MON exf_atemp_sd                 =   1.1996580029013E+01
(PID.TID 0000.0001) %MON exf_atemp_del2               =   6.4959675648173E-01
(PID.TID 0000.0001) %MON exf_aqh_max                  =   6.3169040759170E-03
(PID.TID 0000.0001) %MON exf_aqh_min                  =   1.6284581668843E-04
(PID.TID 0000.0001) %MON exf_aqh_mean                 =   2.4753197025473E-03
(PID.TID 0000.0001) %MON exf_aqh_sd                   =   1.4255808388841E-03
(PID.TID 0000.0001) %MON exf_aqh_del2                 =   6.8018772549319E-05
(PID.TID 0000.0001) %MON exf_lwflux_max               =   1.8162256096872E+02
(PID.TID 0000.0001) %MON exf_lwflux_min               =   2.7024547891760E+01
(PID.TID 0000.0001) %MON exf_lwflux_mean              =   7.5295926111001E+01
(PID.TID 0000.0001) %MON exf_lwflux_sd                =   4.2777917184375E+01
(PID.TID 0000.0001) %MON exf_lwflux_del2              =   3.2320854098633E+00
(PID.TID 0000.0001) %MON exf_precip_max               =   1.0500009599131E-07
(PID.TID 0000.0001) %MON exf_precip_min               =   2.7238964868961E-10
(PID.TID 0000.0001) %MON exf_precip_mean              =   3.6389982946776E-08
(PID.TID 0000.0001) %MON exf_precip_sd                =   2.0582225664103E-08
(PID.TID 0000.0001) %MON exf_precip_del2              =   2.5599042244504E-09
(PID.TID 0000.0001) %MON exf_snowprecip_max           =   0.0000000000000E+00
(PID.TID 0000.0001) %MON exf_snowprecip_min           =   0.0000000000000E+00
(PID.TID 0000.0001) %MON exf_snowprecip_mean          =   0.0000000000000E+00
(PID.TID 0000.0001) %MON exf_snowprecip_sd            =   0.0000000000000E+00
(PID.TID 0000.0001) %MON exf_snowprecip_del2          =   0.0000000000000E+00
(PID.TID 0000.0001) %MON exf_swflux_max               =  -8.1208301372215E-02
(PID.TID 0000.0001) %MON exf_swflux_min               =  -6.4142947168819E+01
(PID.TID 0000.0001) %MON exf_swflux_mean              =  -2.6548012965822E+01
(PID.TID 0000.0001) %MON exf_swflux_sd                =   1.9660442927159E+01
(PID.TID 0000.0001) %MON exf_swflux_del2              =   4.7997463106648E-01
(PID.TID 0000.0001) %MON exf_evap_max                 =   4.5345408489115E-08
(PID.TID 0000.0001) %MON exf_evap_min                 =  -4.2118523685383E-09
(PID.TID 0000.0001) %MON exf_evap_mean                =   1.0458011670606E-08
(PID.TID 0000.0001) %MON exf_evap_sd                  =   1.1076056305706E-08
(PID.TID 0000.0001) %MON exf_evap_del2                =   1.3338843841358E-09
(PID.TID 0000.0001) %MON exf_swdown_max               =   7.1269941298688E+01
(PID.TID 0000.0001) %MON exf_swdown_min               =   9.0231445969128E-02
(PID.TID 0000.0001) %MON exf_swdown_mean              =   2.9497792184247E+01
(PID.TID 0000.0001) %MON exf_swdown_sd                =   2.1844936585733E+01
(PID.TID 0000.0001) %MON exf_swdown_del2              =   5.3330514562942E-01
(PID.TID 0000.0001) %MON exf_lwdown_max               =   3.0560028326316E+02
(PID.TID 0000.0001) %MON exf_lwdown_min               =   1.1586173020035E+02
(PID.TID 0000.0001) %MON exf_lwdown_mean              =   2.2580795099755E+02
(PID.TID 0000.0001) %MON exf_lwdown_sd                =   4.6313195660870E+01
(PID.TID 0000.0001) %MON exf_lwdown_del2              =   3.2439260573465E+00
(PID.TID 0000.0001) %MON exf_apressure_max            =   0.0000000000000E+00
(PID.TID 0000.0001) %MON exf_apressure_min            =   0.0000000000000E+00
(PID.TID 0000.0001) %MON exf_apressure_mean           =   0.0000000000000E+00
(PID.TID 0000.0001) %MON exf_apressure_sd             =   0.0000000000000E+00
(PID.TID 0000.0001) %MON exf_apressure_del2           =   0.0000000000000E+00
(PID.TID 0000.0001) %MON exf_runoff_max               =   0.0000000000000E+00
(PID.TID 0000.0001) %MON exf_runoff_min               =   0.0000000000000E+00
(PID.TID 0000.0001) %MON exf_runoff_mean              =   0.0000000000000E+00
(PID.TID 0000.0001) %MON exf_runoff_sd                =   0.0000000000000E+00
(PID.TID 0000.0001) %MON exf_runoff_del2              =   0.0000000000000E+00
(PID.TID 0000.0001) %MON exf_climsst_max              =   0.0000000000000E+00
(PID.TID 0000.0001) %MON exf_climsst_min              =   0.0000000000000E+00
(PID.TID 0000.0001) %MON exf_climsst_mean             =   0.0000000000000E+00
(PID.TID 0000.0001) %MON exf_climsst_sd               =   0.0000000000000E+00
(PID.TID 0000.0001) %MON exf_climsst_del2             =   0.0000000000000E+00
(PID.TID 0000.0001) %MON exf_climsss_max              =   3.5041993610194E+01
(PID.TID 0000.0001) %MON exf_climsss_min              =   3.0673147123368E+01
(PID.TID 0000.0001) %MON exf_climsss_mean             =   3.3464011602304E+01
(PID.TID 0000.0001) %MON exf_climsss_sd               =   1.0313181272348E+00
(PID.TID 0000.0001) %MON exf_climsss_del2             =   1.0003889784787E-01
(PID.TID 0000.0001) // =======================================================
(PID.TID 0000.0001) // End MONITOR EXF statistics
(PID.TID 0000.0001) // =======================================================
 ph-ice B  9  0.  0.  0.
 ph-ice C  9  5.08667305E+11
 cg2d: Sum(rhs),rhsMax =   2.90788550079413E-08  1.15038865804170E+00
(PID.TID 0000.0001)                    cg2d_init_res =    5.85541226096880E-02
(PID.TID 0000.0001)                       cg2d_iters =    30
(PID.TID 0000.0001)                         cg2d_res =    9.57577688815113E-09
(PID.TID 0000.0001) // =======================================================
(PID.TID 0000.0001) // Begin MONITOR dynamic field statistics
(PID.TID 0000.0001) // =======================================================
(PID.TID 0000.0001) %MON time_tsnumber                =                    10
(PID.TID 0000.0001) %MON time_secondsf                =   3.6000000000000E+04
(PID.TID 0000.0001) %MON dynstat_eta_max              =   2.9858795522641E-01
(PID.TID 0000.0001) %MON dynstat_eta_min              =  -9.7374891768001E-02
(PID.TID 0000.0001) %MON dynstat_eta_mean             =  -7.8191375061120E-10
(PID.TID 0000.0001) %MON dynstat_eta_sd               =   6.4019972905635E-02
(PID.TID 0000.0001) %MON dynstat_eta_del2             =   7.3694992139395E-03
(PID.TID 0000.0001) %MON dynstat_uvel_max             =   8.3757507969755E-02
(PID.TID 0000.0001) %MON dynstat_uvel_min             =  -9.0688564568777E-02
(PID.TID 0000.0001) %MON dynstat_uvel_mean            =  -1.5765969763894E-04
(PID.TID 0000.0001) %MON dynstat_uvel_sd              =   9.4919350984381E-03
(PID.TID 0000.0001) %MON dynstat_uvel_del2            =   2.1678780038397E-03
(PID.TID 0000.0001) %MON dynstat_vvel_max             =   3.4689657032047E-02
(PID.TID 0000.0001) %MON dynstat_vvel_min             =  -1.2487452928267E-01
(PID.TID 0000.0001) %MON dynstat_vvel_mean            =   4.2492507979351E-04
(PID.TID 0000.0001) %MON dynstat_vvel_sd              =   6.8549039680681E-03
(PID.TID 0000.0001) %MON dynstat_vvel_del2            =   2.5668517222604E-03
(PID.TID 0000.0001) %MON dynstat_wvel_max             =   2.6881759211301E-04
(PID.TID 0000.0001) %MON dynstat_wvel_min             =  -2.7220676662176E-04
(PID.TID 0000.0001) %MON dynstat_wvel_mean            =   4.6340636315838E-23
(PID.TID 0000.0001) %MON dynstat_wvel_sd              =   5.6738525036425E-05
(PID.TID 0000.0001) %MON dynstat_wvel_del2            =   6.3574050749369E-06
(PID.TID 0000.0001) %MON dynstat_theta_max            =   1.3301617901299E+01
(PID.TID 0000.0001) %MON dynstat_theta_min            =  -1.9632014698535E+00
(PID.TID 0000.0001) %MON dynstat_theta_mean           =   3.0737400925146E+00
(PID.TID 0000.0001) %MON dynstat_theta_sd             =   1.4269159729352E+00
(PID.TID 0000.0001) %MON dynstat_theta_del2           =   9.6059377601596E-02
(PID.TID 0000.0001) %MON dynstat_salt_max             =   3.5450887627996E+01
(PID.TID 0000.0001) %MON dynstat_salt_min             =   2.6703906002573E+01
(PID.TID 0000.0001) %MON dynstat_salt_mean            =   3.4740218934510E+01
(PID.TID 0000.0001) %MON dynstat_salt_sd              =   5.5594127616655E-01
(PID.TID 0000.0001) %MON dynstat_salt_del2            =   3.9339872096068E-02
(PID.TID 0000.0001) %MON dynstat_sst_max              =   5.7691047958466E+00
(PID.TID 0000.0001) %MON dynstat_sst_min              =  -1.9632014698535E+00
(PID.TID 0000.0001) %MON dynstat_sst_mean             =  -1.1504597465772E+00
(PID.TID 0000.0001) %MON dynstat_sst_sd               =   1.5178690318812E+00
(PID.TID 0000.0001) %MON dynstat_sst_del2             =   6.3076659911710E-02
(PID.TID 0000.0001) %MON dynstat_sss_max              =   3.2010165033913E+01
(PID.TID 0000.0001) %MON dynstat_sss_min              =   2.6703906002573E+01
(PID.TID 0000.0001) %MON dynstat_sss_mean             =   3.0364065268650E+01
(PID.TID 0000.0001) %MON dynstat_sss_sd               =   1.1652234441522E+00
(PID.TID 0000.0001) %MON dynstat_sss_del2             =   8.6691309184881E-02
(PID.TID 0000.0001) %MON extforcing_qnet_max          =   1.5124335967849E+02
(PID.TID 0000.0001) %MON extforcing_qnet_min          =  -5.1341825210305E+01
(PID.TID 0000.0001) %MON extforcing_qnet_mean         =   2.7658239080372E+01
(PID.TID 0000.0001) %MON extforcing_qnet_sd           =   4.6702792853341E+01
(PID.TID 0000.0001) %MON extforcing_qnet_del2         =   7.0185838188038E+00
(PID.TID 0000.0001) %MON extforcing_qsw_max           =   0.0000000000000E+00
(PID.TID 0000.0001) %MON extforcing_qsw_min           =  -5.7293670421633E+01
(PID.TID 0000.0001) %MON extforcing_qsw_mean          =  -1.5860723573717E+01
(PID.TID 0000.0001) %MON extforcing_qsw_sd            =   2.0538905258828E+01
(PID.TID 0000.0001) %MON extforcing_qsw_del2          =   1.8581433987847E+00
(PID.TID 0000.0001) %MON extforcing_empmr_max         =   1.6751539096348E-07
(PID.TID 0000.0001) %MON extforcing_empmr_min         =  -4.5654457226862E-07
(PID.TID 0000.0001) %MON extforcing_empmr_mean        =  -6.2962991557681E-08
(PID.TID 0000.0001) %MON extforcing_empmr_sd          =   1.2585851143215E-07
(PID.TID 0000.0001) %MON extforcing_empmr_del2        =   2.0462706741962E-08
(PID.TID 0000.0001) %MON extforcing_fu_max            =   9.1917967193866E-02
(PID.TID 0000.0001) %MON extforcing_fu_min            =  -4.7443041279937E-02
(PID.TID 0000.0001) %MON extforcing_fu_mean           =   2.5020933922731E-02
(PID.TID 0000.0001) %MON extforcing_fu_sd             =   2.6691960072697E-02
(PID.TID 0000.0001) %MON extforcing_fu_del2           =   3.9809461475789E-03
(PID.TID 0000.0001) %MON extforcing_fv_max            =   2.3761623563260E-02
(PID.TID 0000.0001) %MON extforcing_fv_min            =  -5.8380275802620E-02
(PID.TID 0000.0001) %MON extforcing_fv_mean           =  -9.2043800148758E-03
(PID.TID 0000.0001) %MON extforcing_fv_sd             =   1.7102737137294E-02
(PID.TID 0000.0001) %MON extforcing_fv_del2           =   2.2232805008649E-03
(PID.TID 0000.0001) %MON advcfl_uvel_max              =   2.8503666252880E-03
(PID.TID 0000.0001) %MON advcfl_vvel_max              =   2.0214425198311E-03
(PID.TID 0000.0001) %MON advcfl_wvel_max              =   7.1284371654324E-03
(PID.TID 0000.0001) %MON advcfl_W_hf_max              =   9.3085798763878E-03
(PID.TID 0000.0001) %MON pe_b_mean                    =   1.3511507712531E-05
(PID.TID 0000.0001) %MON ke_max                       =   9.0323686032355E-03
(PID.TID 0000.0001) %MON ke_mean                      =   5.3948981976214E-05
(PID.TID 0000.0001) %MON ke_vol                       =   5.3036189546438E+15
(PID.TID 0000.0001) %MON vort_r_min                   =  -4.6825293891732E-07
(PID.TID 0000.0001) %MON vort_r_max                   =   3.4986156069225E-07
(PID.TID 0000.0001) %MON vort_a_mean                  =   1.2067277521062E-04
(PID.TID 0000.0001) %MON vort_a_sd                    =   8.8115701505518E-06
(PID.TID 0000.0001) %MON vort_p_mean                  =   1.7734843049915E-04
(PID.TID 0000.0001) %MON vort_p_sd                    =   1.1689280963565E-04
(PID.TID 0000.0001) %MON surfExpan_theta_mean         =  -1.6870130070079E-06
(PID.TID 0000.0001) %MON surfExpan_salt_mean          =   2.7678046072608E-07
(PID.TID 0000.0001) // =======================================================
(PID.TID 0000.0001) // End MONITOR dynamic field statistics
(PID.TID 0000.0001) // =======================================================
(PID.TID 0000.0001) // =======================================================
(PID.TID 0000.0001) // Begin MONITOR SEAICE statistics
(PID.TID 0000.0001) // =======================================================
(PID.TID 0000.0001) %MON seaice_tsnumber              =                    10
(PID.TID 0000.0001) %MON seaice_time_sec              =   3.6000000000000E+04
(PID.TID 0000.0001) %MON seaice_uice_max              =   2.6070781925070E-01
(PID.TID 0000.0001) %MON seaice_uice_min              =  -7.4569485540672E-02
(PID.TID 0000.0001) %MON seaice_uice_mean             =   5.6948249269227E-02
(PID.TID 0000.0001) %MON seaice_uice_sd               =   7.3694371234930E-02
(PID.TID 0000.0001) %MON seaice_uice_del2             =   6.9822815058424E-03
(PID.TID 0000.0001) %MON seaice_vice_max              =   7.2855153888681E-02
(PID.TID 0000.0001) %MON seaice_vice_min              =  -1.8167527187536E-01
(PID.TID 0000.0001) %MON seaice_vice_mean             =  -5.2953435545987E-02
(PID.TID 0000.0001) %MON seaice_vice_sd               =   5.6405662132294E-02
(PID.TID 0000.0001) %MON seaice_vice_del2             =   6.8591576938443E-03
(PID.TID 0000.0001) %MON seaice_area_max              =   1.0000000000000E+00
(PID.TID 0000.0001) %MON seaice_area_min              =   0.0000000000000E+00
(PID.TID 0000.0001) %MON seaice_area_mean             =   6.2310743740094E-01
(PID.TID 0000.0001) %MON seaice_area_sd               =   4.5675715897628E-01
(PID.TID 0000.0001) %MON seaice_area_del2             =   5.3102396661567E-02
(PID.TID 0000.0001) %MON seaice_heff_max              =   5.4914440244121E-01
(PID.TID 0000.0001) %MON seaice_heff_min              =   0.0000000000000E+00
(PID.TID 0000.0001) %MON seaice_heff_mean             =   1.4181984498598E-01
(PID.TID 0000.0001) %MON seaice_heff_sd               =   1.7482874985307E-01
(PID.TID 0000.0001) %MON seaice_heff_del2             =   1.3169867851140E-02
(PID.TID 0000.0001) %MON seaice_hsnow_max             =   2.0785054838239E-01
(PID.TID 0000.0001) %MON seaice_hsnow_min             =   0.0000000000000E+00
(PID.TID 0000.0001) %MON seaice_hsnow_mean            =   1.1901259282146E-01
(PID.TID 0000.0001) %MON seaice_hsnow_sd              =   9.7627028725843E-02
(PID.TID 0000.0001) %MON seaice_hsnow_del2            =   6.6467676522871E-03
(PID.TID 0000.0001) // =======================================================
(PID.TID 0000.0001) // End MONITOR SEAICE statistics
(PID.TID 0000.0001) // =======================================================
(PID.TID 0000.0001) %CHECKPOINT        10 0000000010
(PID.TID 0000.0001)  MDS_READ_FIELD: opening file: xx_atemp.0000000000.001.001.data
(PID.TID 0000.0001)  MDS_READ_FIELD: opening file: xx_atemp.0000000000.001.001.data
(PID.TID 0000.0001)  MDS_READ_FIELD: opening file: xx_atemp.0000000000.001.001.data
(PID.TID 0000.0001)  MDS_READ_FIELD: opening file: xx_atemp.0000000000.001.001.data
(PID.TID 0000.0001)  MDS_READ_FIELD: opening file: xx_aqh.0000000000.001.001.data
(PID.TID 0000.0001)  MDS_READ_FIELD: opening file: xx_aqh.0000000000.001.001.data
(PID.TID 0000.0001)  MDS_READ_FIELD: opening file: xx_aqh.0000000000.001.001.data
(PID.TID 0000.0001)  MDS_READ_FIELD: opening file: xx_aqh.0000000000.001.001.data
(PID.TID 0000.0001)  MDS_READ_FIELD: opening file: xx_uwind.0000000000.001.001.data
(PID.TID 0000.0001)  MDS_READ_FIELD: opening file: xx_uwind.0000000000.001.001.data
(PID.TID 0000.0001)  MDS_READ_FIELD: opening file: xx_uwind.0000000000.001.001.data
(PID.TID 0000.0001)  MDS_READ_FIELD: opening file: xx_uwind.0000000000.001.001.data
(PID.TID 0000.0001)  MDS_READ_FIELD: opening file: xx_vwind.0000000000.001.001.data
(PID.TID 0000.0001)  MDS_READ_FIELD: opening file: xx_vwind.0000000000.001.001.data
(PID.TID 0000.0001)  MDS_READ_FIELD: opening file: xx_vwind.0000000000.001.001.data
(PID.TID 0000.0001)  MDS_READ_FIELD: opening file: xx_vwind.0000000000.001.001.data
(PID.TID 0000.0001)  MDS_READ_FIELD: opening file: xx_precip.0000000000.001.001.data
(PID.TID 0000.0001)  MDS_READ_FIELD: opening file: xx_precip.0000000000.001.001.data
(PID.TID 0000.0001)  MDS_READ_FIELD: opening file: xx_precip.0000000000.001.001.data
(PID.TID 0000.0001)  MDS_READ_FIELD: opening file: xx_precip.0000000000.001.001.data
(PID.TID 0000.0001)  MDS_READ_FIELD: opening file: xx_swdown.0000000000.001.001.data
(PID.TID 0000.0001)  MDS_READ_FIELD: opening file: xx_swdown.0000000000.001.001.data
(PID.TID 0000.0001)  MDS_READ_FIELD: opening file: xx_swdown.0000000000.001.001.data
(PID.TID 0000.0001)  MDS_READ_FIELD: opening file: xx_swdown.0000000000.001.001.data
(PID.TID 0000.0001)  MDS_READ_FIELD: opening file: xx_lwdown.0000000000.001.001.data
(PID.TID 0000.0001)  MDS_READ_FIELD: opening file: xx_lwdown.0000000000.001.001.data
(PID.TID 0000.0001)  MDS_READ_FIELD: opening file: xx_lwdown.0000000000.001.001.data
(PID.TID 0000.0001)  MDS_READ_FIELD: opening file: xx_lwdown.0000000000.001.001.data
(PID.TID 0000.0001)  MDS_READ_FIELD: opening file: xx_snowprecip.0000000000.001.001.data
(PID.TID 0000.0001)  MDS_READ_FIELD: opening file: xx_snowprecip.0000000000.001.001.data
(PID.TID 0000.0001)  MDS_READ_FIELD: opening file: xx_snowprecip.0000000000.001.001.data
(PID.TID 0000.0001)  MDS_READ_FIELD: opening file: xx_snowprecip.0000000000.001.001.data
(PID.TID 0000.0001)  MDS_READ_FIELD: opening file: xx_apressure.0000000000.001.001.data
(PID.TID 0000.0001)  MDS_READ_FIELD: opening file: xx_apressure.0000000000.001.001.data
(PID.TID 0000.0001)  MDS_READ_FIELD: opening file: xx_apressure.0000000000.001.001.data
(PID.TID 0000.0001)  MDS_READ_FIELD: opening file: xx_apressure.0000000000.001.001.data
(PID.TID 0000.0001)  MDS_READ_FIELD: opening file: psbar.0000000000.001.001.data
(PID.TID 0000.0001)  cost_ssh: offset_sum =  0.710000000000000E+02
(PID.TID 0000.0001)  MDS_READ_FIELD: opening file: psbar.0000000000.001.001.data
(PID.TID 0000.0001) ph-cost call cost_sst
(PID.TID 0000.0001)  MDS_READ_FIELD: opening file: tbar.0000000000.001.001.data
(PID.TID 0000.0001) ph-cost call cost_theta
(PID.TID 0000.0001)  MDS_READ_FIELD: opening file: tbar.0000000000.001.001.data
(PID.TID 0000.0001) ph-cost call cost_salt
(PID.TID 0000.0001)  MDS_READ_FIELD: opening file: sbar.0000000000.001.001.data
(PID.TID 0000.0001) ph-cost call cost_smrarea
(PID.TID 0000.0001) ph-cost smrarea   0.0000000000E+00  0.0000000000E+00
 --> f_ice     = 0.508667305173712E+12
 --> f_smrarea = 0.000000000000000E+00
 --> f_temp    = 0.000000000000000E+00
 --> f_salt    = 0.000000000000000E+00
 --> f_temp0   = 0.000000000000000E+00
 --> f_salt0   = 0.000000000000000E+00
 --> f_temp0smoo = 0.000000000000000E+00
 --> f_salt0smoo = 0.000000000000000E+00
 --> f_sst     = 0.423905188018436E+04
 --> f_tmi     = 0.000000000000000E+00
 --> f_sss     = 0.000000000000000E+00
 --> f_ssh       = 0.000000000000000E+00
 --> f_tp        = 0.000000000000000E+00
 --> f_ers       = 0.000000000000000E+00
 --> f_gfo       = 0.000000000000000E+00
 --> f_tauu    = 0.000000000000000E+00
 --> f_tauum   = 0.000000000000000E+00
 --> f_tauusmoo = 0.000000000000000E+00
 --> f_tauv    = 0.000000000000000E+00
 --> f_tauvm   = 0.000000000000000E+00
 --> f_tauvsmoo = 0.000000000000000E+00
 --> f_hflux   = 0.000000000000000E+00
 --> f_hfluxm  = 0.000000000000000E+00
 --> f_hfluxmm = 0.000000000000000E+00
 --> f_hfluxsmoo = 0.000000000000000E+00
 --> f_sflux   = 0.000000000000000E+00
 --> f_sfluxm  = 0.000000000000000E+00
 --> f_sfluxmm = 0.000000000000000E+00
 --> f_sfluxsmoo = 0.000000000000000E+00
 --> f_uwind     = 0.000000000000000E+00
 --> f_vwind     = 0.000000000000000E+00
 --> f_atemp     = 0.000000000000000E+00
 --> f_aqh     = 0.000000000000000E+00
 --> f_precip  = 0.000000000000000E+00
 --> f_swflux  = 0.000000000000000E+00
 --> f_swdown  = 0.000000000000000E+00
 --> f_uwindm     = 0.000000000000000E+00
 --> f_vwindm     = 0.000000000000000E+00
 --> f_atempm     = 0.000000000000000E+00
 --> f_aqhm     = 0.000000000000000E+00
 --> f_precipm  = 0.000000000000000E+00
 --> f_swfluxm  = 0.000000000000000E+00
 --> f_swdownm  = 0.000000000000000E+00
 --> f_uwindsmoo     = 0.000000000000000E+00
 --> f_vwindsmoo     = 0.000000000000000E+00
 --> f_atempsmoo     = 0.000000000000000E+00
 --> f_aqhsmoo     = 0.000000000000000E+00
 --> f_precipsmoo  = 0.000000000000000E+00
 --> f_swfluxsmoo  = 0.000000000000000E+00
 --> f_swdownsmoo  = 0.000000000000000E+00
 --> f_atl     = 0.000000000000000E+00
 --> f_ctdt    = 0.000000000000000E+00
 --> f_ctds    = 0.000000000000000E+00
 --> f_ctdtclim= 0.000000000000000E+00
 --> f_ctdsclim= 0.000000000000000E+00
 --> f_xbt     = 0.000000000000000E+00
 --> f_argot   = 0.000000000000000E+00
 --> f_argos   = 0.000000000000000E+00
 --> f_drifter   = 0.000000000000000E+00
 --> f_tdrift  = 0.000000000000000E+00
 --> f_sdrift  = 0.000000000000000E+00
 --> f_wdrift  = 0.000000000000000E+00
 --> f_scatx   = 0.000000000000000E+00
 --> f_scaty   = 0.000000000000000E+00
 --> f_scatxm  = 0.000000000000000E+00
 --> f_scatym  = 0.000000000000000E+00
 --> f_obcsn   = 0.000000000000000E+00
 --> f_obcss   = 0.000000000000000E+00
 --> f_obcsw   = 0.000000000000000E+00
 --> f_obcse   = 0.000000000000000E+00
 --> f_ageos   = 0.000000000000000E+00
 --> f_curmtr  = 0.000000000000000E+00
 --> f_kapgm   = 0.000000000000000E+00
 --> f_diffkr  = 0.000000000000000E+00
 --> f_eddytau = 0.000000000000000E+00
 --> f_hfluxmm2           = 0.000000000000000E+00
 --> f_sfluxmm2           = 0.000000000000000E+00
 --> objf_hmean           = 0.920256453543364E-02
 --> fc               = 0.508667309412764E+12
(PID.TID 0000.0001) // =======================================================
(PID.TID 0000.0001) // Begin MONITOR SEAICE statistics
(PID.TID 0000.0001) // =======================================================
(PID.TID 0000.0001) %MON seaice_tsnumber              =                     1
(PID.TID 0000.0001) %MON seaice_time_sec              =   3.6000000000000E+03
(PID.TID 0000.0001) %MON seaice_uice_max              =   2.6070781925070E-01
(PID.TID 0000.0001) %MON seaice_uice_min              =  -7.4569485540672E-02
(PID.TID 0000.0001) %MON seaice_uice_mean             =   5.6948249269227E-02
(PID.TID 0000.0001) %MON seaice_uice_sd               =   7.3694371234930E-02
(PID.TID 0000.0001) %MON seaice_uice_del2             =   6.9822815058424E-03
(PID.TID 0000.0001) %MON seaice_vice_max              =   7.2855153888681E-02
(PID.TID 0000.0001) %MON seaice_vice_min              =  -1.8167527187536E-01
(PID.TID 0000.0001) %MON seaice_vice_mean             =  -5.2953435545987E-02
(PID.TID 0000.0001) %MON seaice_vice_sd               =   5.6405662132294E-02
(PID.TID 0000.0001) %MON seaice_vice_del2             =   6.8591576938443E-03
(PID.TID 0000.0001) %MON seaice_area_max              =   1.0000000000000E+00
(PID.TID 0000.0001) %MON seaice_area_min              =   0.0000000000000E+00
(PID.TID 0000.0001) %MON seaice_area_mean             =   6.2310743740094E-01
(PID.TID 0000.0001) %MON seaice_area_sd               =   4.5675715897628E-01
(PID.TID 0000.0001) %MON seaice_area_del2             =   5.3102396661567E-02
(PID.TID 0000.0001) %MON seaice_heff_max              =   5.4914440244121E-01
(PID.TID 0000.0001) %MON seaice_heff_min              =   0.0000000000000E+00
(PID.TID 0000.0001) %MON seaice_heff_mean             =   1.4181984498598E-01
(PID.TID 0000.0001) %MON seaice_heff_sd               =   1.7482874985307E-01
(PID.TID 0000.0001) %MON seaice_heff_del2             =   1.3169867851140E-02
(PID.TID 0000.0001) %MON seaice_hsnow_max             =   2.0785054838239E-01
(PID.TID 0000.0001) %MON seaice_hsnow_min             =   0.0000000000000E+00
(PID.TID 0000.0001) %MON seaice_hsnow_mean            =   1.1901259282146E-01
(PID.TID 0000.0001) %MON seaice_hsnow_sd              =   9.7627028725843E-02
(PID.TID 0000.0001) %MON seaice_hsnow_del2            =   6.6467676522871E-03
(PID.TID 0000.0001) // =======================================================
(PID.TID 0000.0001) // End MONITOR SEAICE statistics
(PID.TID 0000.0001) // =======================================================
(PID.TID 0000.0001) // =======================================================
(PID.TID 0000.0001) // Begin MONITOR SEAICE statistics
(PID.TID 0000.0001) // =======================================================
(PID.TID 0000.0001) %MON seaice_tsnumber              =                     2
(PID.TID 0000.0001) %MON seaice_time_sec              =   7.2000000000000E+03
(PID.TID 0000.0001) %MON seaice_uice_max              =   2.6070781925070E-01
(PID.TID 0000.0001) %MON seaice_uice_min              =  -7.4569485540672E-02
(PID.TID 0000.0001) %MON seaice_uice_mean             =   5.6948249269227E-02
(PID.TID 0000.0001) %MON seaice_uice_sd               =   7.3694371234930E-02
(PID.TID 0000.0001) %MON seaice_uice_del2             =   6.9822815058424E-03
(PID.TID 0000.0001) %MON seaice_vice_max              =   7.2855153888681E-02
(PID.TID 0000.0001) %MON seaice_vice_min              =  -1.8167527187536E-01
(PID.TID 0000.0001) %MON seaice_vice_mean             =  -5.2953435545987E-02
(PID.TID 0000.0001) %MON seaice_vice_sd               =   5.6405662132294E-02
(PID.TID 0000.0001) %MON seaice_vice_del2             =   6.8591576938443E-03
(PID.TID 0000.0001) %MON seaice_area_max              =   1.0000000000000E+00
(PID.TID 0000.0001) %MON seaice_area_min              =   0.0000000000000E+00
(PID.TID 0000.0001) %MON seaice_area_mean             =   6.2310743740094E-01
(PID.TID 0000.0001) %MON seaice_area_sd               =   4.5675715897628E-01
(PID.TID 0000.0001) %MON seaice_area_del2             =   5.3102396661567E-02
(PID.TID 0000.0001) %MON seaice_heff_max              =   5.4914440244121E-01
(PID.TID 0000.0001) %MON seaice_heff_min              =   0.0000000000000E+00
(PID.TID 0000.0001) %MON seaice_heff_mean             =   1.4181984498598E-01
(PID.TID 0000.0001) %MON seaice_heff_sd               =   1.7482874985307E-01
(PID.TID 0000.0001) %MON seaice_heff_del2             =   1.3169867851140E-02
(PID.TID 0000.0001) %MON seaice_hsnow_max             =   2.0785054838239E-01
(PID.TID 0000.0001) %MON seaice_hsnow_min             =   0.0000000000000E+00
(PID.TID 0000.0001) %MON seaice_hsnow_mean            =   1.1901259282146E-01
(PID.TID 0000.0001) %MON seaice_hsnow_sd              =   9.7627028725843E-02
(PID.TID 0000.0001) %MON seaice_hsnow_del2            =   6.6467676522871E-03
(PID.TID 0000.0001) // =======================================================
(PID.TID 0000.0001) // End MONITOR SEAICE statistics
(PID.TID 0000.0001) // =======================================================
(PID.TID 0000.0001) // =======================================================
(PID.TID 0000.0001) // Begin MONITOR SEAICE statistics
(PID.TID 0000.0001) // =======================================================
(PID.TID 0000.0001) %MON seaice_tsnumber              =                     3
(PID.TID 0000.0001) %MON seaice_time_sec              =   1.0800000000000E+04
(PID.TID 0000.0001) %MON seaice_uice_max              =   2.6070781925070E-01
(PID.TID 0000.0001) %MON seaice_uice_min              =  -7.4569485540672E-02
(PID.TID 0000.0001) %MON seaice_uice_mean             =   5.6948249269227E-02
(PID.TID 0000.0001) %MON seaice_uice_sd               =   7.3694371234930E-02
(PID.TID 0000.0001) %MON seaice_uice_del2             =   6.9822815058424E-03
(PID.TID 0000.0001) %MON seaice_vice_max              =   7.2855153888681E-02
(PID.TID 0000.0001) %MON seaice_vice_min              =  -1.8167527187536E-01
(PID.TID 0000.0001) %MON seaice_vice_mean             =  -5.2953435545987E-02
(PID.TID 0000.0001) %MON seaice_vice_sd               =   5.6405662132294E-02
(PID.TID 0000.0001) %MON seaice_vice_del2             =   6.8591576938443E-03
(PID.TID 0000.0001) %MON seaice_area_max              =   1.0000000000000E+00
(PID.TID 0000.0001) %MON seaice_area_min              =   0.0000000000000E+00
(PID.TID 0000.0001) %MON seaice_area_mean             =   6.2310743740094E-01
(PID.TID 0000.0001) %MON seaice_area_sd               =   4.5675715897628E-01
(PID.TID 0000.0001) %MON seaice_area_del2             =   5.3102396661567E-02
(PID.TID 0000.0001) %MON seaice_heff_max              =   5.4914440244121E-01
(PID.TID 0000.0001) %MON seaice_heff_min              =   0.0000000000000E+00
(PID.TID 0000.0001) %MON seaice_heff_mean             =   1.4181984498598E-01
(PID.TID 0000.0001) %MON seaice_heff_sd               =   1.7482874985307E-01
(PID.TID 0000.0001) %MON seaice_heff_del2             =   1.3169867851140E-02
(PID.TID 0000.0001) %MON seaice_hsnow_max             =   2.0785054838239E-01
(PID.TID 0000.0001) %MON seaice_hsnow_min             =   0.0000000000000E+00
(PID.TID 0000.0001) %MON seaice_hsnow_mean            =   1.1901259282146E-01
(PID.TID 0000.0001) %MON seaice_hsnow_sd              =   9.7627028725843E-02
(PID.TID 0000.0001) %MON seaice_hsnow_del2            =   6.6467676522871E-03
(PID.TID 0000.0001) // =======================================================
(PID.TID 0000.0001) // End MONITOR SEAICE statistics
(PID.TID 0000.0001) // =======================================================
(PID.TID 0000.0001) // =======================================================
(PID.TID 0000.0001) // Begin MONITOR SEAICE statistics
(PID.TID 0000.0001) // =======================================================
(PID.TID 0000.0001) %MON seaice_tsnumber              =                     4
(PID.TID 0000.0001) %MON seaice_time_sec              =   1.4400000000000E+04
(PID.TID 0000.0001) %MON seaice_uice_max              =   2.6070781925070E-01
(PID.TID 0000.0001) %MON seaice_uice_min              =  -7.4569485540672E-02
(PID.TID 0000.0001) %MON seaice_uice_mean             =   5.6948249269227E-02
(PID.TID 0000.0001) %MON seaice_uice_sd               =   7.3694371234930E-02
(PID.TID 0000.0001) %MON seaice_uice_del2             =   6.9822815058424E-03
(PID.TID 0000.0001) %MON seaice_vice_max              =   7.2855153888681E-02
(PID.TID 0000.0001) %MON seaice_vice_min              =  -1.8167527187536E-01
(PID.TID 0000.0001) %MON seaice_vice_mean             =  -5.2953435545987E-02
(PID.TID 0000.0001) %MON seaice_vice_sd               =   5.6405662132294E-02
(PID.TID 0000.0001) %MON seaice_vice_del2             =   6.8591576938443E-03
(PID.TID 0000.0001) %MON seaice_area_max              =   1.0000000000000E+00
(PID.TID 0000.0001) %MON seaice_area_min              =   0.0000000000000E+00
(PID.TID 0000.0001) %MON seaice_area_mean             =   6.2310743740094E-01
(PID.TID 0000.0001) %MON seaice_area_sd               =   4.5675715897628E-01
(PID.TID 0000.0001) %MON seaice_area_del2             =   5.3102396661567E-02
(PID.TID 0000.0001) %MON seaice_heff_max              =   5.4914440244121E-01
(PID.TID 0000.0001) %MON seaice_heff_min              =   0.0000000000000E+00
(PID.TID 0000.0001) %MON seaice_heff_mean             =   1.4181984498598E-01
(PID.TID 0000.0001) %MON seaice_heff_sd               =   1.7482874985307E-01
(PID.TID 0000.0001) %MON seaice_heff_del2             =   1.3169867851140E-02
(PID.TID 0000.0001) %MON seaice_hsnow_max             =   2.0785054838239E-01
(PID.TID 0000.0001) %MON seaice_hsnow_min             =   0.0000000000000E+00
(PID.TID 0000.0001) %MON seaice_hsnow_mean            =   1.1901259282146E-01
(PID.TID 0000.0001) %MON seaice_hsnow_sd              =   9.7627028725843E-02
(PID.TID 0000.0001) %MON seaice_hsnow_del2            =   6.6467676522871E-03
(PID.TID 0000.0001) // =======================================================
(PID.TID 0000.0001) // End MONITOR SEAICE statistics
(PID.TID 0000.0001) // =======================================================
(PID.TID 0000.0001) // =======================================================
(PID.TID 0000.0001) // Begin MONITOR SEAICE statistics
(PID.TID 0000.0001) // =======================================================
(PID.TID 0000.0001) %MON seaice_tsnumber              =                     5
(PID.TID 0000.0001) %MON seaice_time_sec              =   1.8000000000000E+04
(PID.TID 0000.0001) %MON seaice_uice_max              =   2.6070781925070E-01
(PID.TID 0000.0001) %MON seaice_uice_min              =  -7.4569485540672E-02
(PID.TID 0000.0001) %MON seaice_uice_mean             =   5.6948249269227E-02
(PID.TID 0000.0001) %MON seaice_uice_sd               =   7.3694371234930E-02
(PID.TID 0000.0001) %MON seaice_uice_del2             =   6.9822815058424E-03
(PID.TID 0000.0001) %MON seaice_vice_max              =   7.2855153888681E-02
(PID.TID 0000.0001) %MON seaice_vice_min              =  -1.8167527187536E-01
(PID.TID 0000.0001) %MON seaice_vice_mean             =  -5.2953435545987E-02
(PID.TID 0000.0001) %MON seaice_vice_sd               =   5.6405662132294E-02
(PID.TID 0000.0001) %MON seaice_vice_del2             =   6.8591576938443E-03
(PID.TID 0000.0001) %MON seaice_area_max              =   1.0000000000000E+00
(PID.TID 0000.0001) %MON seaice_area_min              =   0.0000000000000E+00
(PID.TID 0000.0001) %MON seaice_area_mean             =   6.2310743740094E-01
(PID.TID 0000.0001) %MON seaice_area_sd               =   4.5675715897628E-01
(PID.TID 0000.0001) %MON seaice_area_del2             =   5.3102396661567E-02
(PID.TID 0000.0001) %MON seaice_heff_max              =   5.4914440244121E-01
(PID.TID 0000.0001) %MON seaice_heff_min              =   0.0000000000000E+00
(PID.TID 0000.0001) %MON seaice_heff_mean             =   1.4181984498598E-01
(PID.TID 0000.0001) %MON seaice_heff_sd               =   1.7482874985307E-01
(PID.TID 0000.0001) %MON seaice_heff_del2             =   1.3169867851140E-02
(PID.TID 0000.0001) %MON seaice_hsnow_max             =   2.0785054838239E-01
(PID.TID 0000.0001) %MON seaice_hsnow_min             =   0.0000000000000E+00
(PID.TID 0000.0001) %MON seaice_hsnow_mean            =   1.1901259282146E-01
(PID.TID 0000.0001) %MON seaice_hsnow_sd              =   9.7627028725843E-02
(PID.TID 0000.0001) %MON seaice_hsnow_del2            =   6.6467676522871E-03
(PID.TID 0000.0001) // =======================================================
(PID.TID 0000.0001) // End MONITOR SEAICE statistics
(PID.TID 0000.0001) // =======================================================
(PID.TID 0000.0001) // =======================================================
(PID.TID 0000.0001) // Begin MONITOR SEAICE statistics
(PID.TID 0000.0001) // =======================================================
(PID.TID 0000.0001) %MON seaice_tsnumber              =                     6
(PID.TID 0000.0001) %MON seaice_time_sec              =   2.1600000000000E+04
(PID.TID 0000.0001) %MON seaice_uice_max              =   2.6070781925070E-01
(PID.TID 0000.0001) %MON seaice_uice_min              =  -7.4569485540672E-02
(PID.TID 0000.0001) %MON seaice_uice_mean             =   5.6948249269227E-02
(PID.TID 0000.0001) %MON seaice_uice_sd               =   7.3694371234930E-02
(PID.TID 0000.0001) %MON seaice_uice_del2             =   6.9822815058424E-03
(PID.TID 0000.0001) %MON seaice_vice_max              =   7.2855153888681E-02
(PID.TID 0000.0001) %MON seaice_vice_min              =  -1.8167527187536E-01
(PID.TID 0000.0001) %MON seaice_vice_mean             =  -5.2953435545987E-02
(PID.TID 0000.0001) %MON seaice_vice_sd               =   5.6405662132294E-02
(PID.TID 0000.0001) %MON seaice_vice_del2             =   6.8591576938443E-03
(PID.TID 0000.0001) %MON seaice_area_max              =   1.0000000000000E+00
(PID.TID 0000.0001) %MON seaice_area_min              =   0.0000000000000E+00
(PID.TID 0000.0001) %MON seaice_area_mean             =   6.2310743740094E-01
(PID.TID 0000.0001) %MON seaice_area_sd               =   4.5675715897628E-01
(PID.TID 0000.0001) %MON seaice_area_del2             =   5.3102396661567E-02
(PID.TID 0000.0001) %MON seaice_heff_max              =   5.4914440244121E-01
(PID.TID 0000.0001) %MON seaice_heff_min              =   0.0000000000000E+00
(PID.TID 0000.0001) %MON seaice_heff_mean             =   1.4181984498598E-01
(PID.TID 0000.0001) %MON seaice_heff_sd               =   1.7482874985307E-01
(PID.TID 0000.0001) %MON seaice_heff_del2             =   1.3169867851140E-02
(PID.TID 0000.0001) %MON seaice_hsnow_max             =   2.0785054838239E-01
(PID.TID 0000.0001) %MON seaice_hsnow_min             =   0.0000000000000E+00
(PID.TID 0000.0001) %MON seaice_hsnow_mean            =   1.1901259282146E-01
(PID.TID 0000.0001) %MON seaice_hsnow_sd              =   9.7627028725843E-02
(PID.TID 0000.0001) %MON seaice_hsnow_del2            =   6.6467676522871E-03
(PID.TID 0000.0001) // =======================================================
(PID.TID 0000.0001) // End MONITOR SEAICE statistics
(PID.TID 0000.0001) // =======================================================
(PID.TID 0000.0001) // =======================================================
(PID.TID 0000.0001) // Begin MONITOR SEAICE statistics
(PID.TID 0000.0001) // =======================================================
(PID.TID 0000.0001) %MON seaice_tsnumber              =                     7
(PID.TID 0000.0001) %MON seaice_time_sec              =   2.5200000000000E+04
(PID.TID 0000.0001) %MON seaice_uice_max              =   2.6070781925070E-01
(PID.TID 0000.0001) %MON seaice_uice_min              =  -7.4569485540672E-02
(PID.TID 0000.0001) %MON seaice_uice_mean             =   5.6948249269227E-02
(PID.TID 0000.0001) %MON seaice_uice_sd               =   7.3694371234930E-02
(PID.TID 0000.0001) %MON seaice_uice_del2             =   6.9822815058424E-03
(PID.TID 0000.0001) %MON seaice_vice_max              =   7.2855153888681E-02
(PID.TID 0000.0001) %MON seaice_vice_min              =  -1.8167527187536E-01
(PID.TID 0000.0001) %MON seaice_vice_mean             =  -5.2953435545987E-02
(PID.TID 0000.0001) %MON seaice_vice_sd               =   5.6405662132294E-02
(PID.TID 0000.0001) %MON seaice_vice_del2             =   6.8591576938443E-03
(PID.TID 0000.0001) %MON seaice_area_max              =   1.0000000000000E+00
(PID.TID 0000.0001) %MON seaice_area_min              =   0.0000000000000E+00
(PID.TID 0000.0001) %MON seaice_area_mean             =   6.2310743740094E-01
(PID.TID 0000.0001) %MON seaice_area_sd               =   4.5675715897628E-01
(PID.TID 0000.0001) %MON seaice_area_del2             =   5.3102396661567E-02
(PID.TID 0000.0001) %MON seaice_heff_max              =   5.4914440244121E-01
(PID.TID 0000.0001) %MON seaice_heff_min              =   0.0000000000000E+00
(PID.TID 0000.0001) %MON seaice_heff_mean             =   1.4181984498598E-01
(PID.TID 0000.0001) %MON seaice_heff_sd               =   1.7482874985307E-01
(PID.TID 0000.0001) %MON seaice_heff_del2             =   1.3169867851140E-02
(PID.TID 0000.0001) %MON seaice_hsnow_max             =   2.0785054838239E-01
(PID.TID 0000.0001) %MON seaice_hsnow_min             =   0.0000000000000E+00
(PID.TID 0000.0001) %MON seaice_hsnow_mean            =   1.1901259282146E-01
(PID.TID 0000.0001) %MON seaice_hsnow_sd              =   9.7627028725843E-02
(PID.TID 0000.0001) %MON seaice_hsnow_del2            =   6.6467676522871E-03
(PID.TID 0000.0001) // =======================================================
(PID.TID 0000.0001) // End MONITOR SEAICE statistics
(PID.TID 0000.0001) // =======================================================
(PID.TID 0000.0001) // =======================================================
(PID.TID 0000.0001) // Begin MONITOR SEAICE statistics
(PID.TID 0000.0001) // =======================================================
(PID.TID 0000.0001) %MON seaice_tsnumber              =                     8
(PID.TID 0000.0001) %MON seaice_time_sec              =   2.8800000000000E+04
(PID.TID 0000.0001) %MON seaice_uice_max              =   2.6070781925070E-01
(PID.TID 0000.0001) %MON seaice_uice_min              =  -7.4569485540672E-02
(PID.TID 0000.0001) %MON seaice_uice_mean             =   5.6948249269227E-02
(PID.TID 0000.0001) %MON seaice_uice_sd               =   7.3694371234930E-02
(PID.TID 0000.0001) %MON seaice_uice_del2             =   6.9822815058424E-03
(PID.TID 0000.0001) %MON seaice_vice_max              =   7.2855153888681E-02
(PID.TID 0000.0001) %MON seaice_vice_min              =  -1.8167527187536E-01
(PID.TID 0000.0001) %MON seaice_vice_mean             =  -5.2953435545987E-02
(PID.TID 0000.0001) %MON seaice_vice_sd               =   5.6405662132294E-02
(PID.TID 0000.0001) %MON seaice_vice_del2             =   6.8591576938443E-03
(PID.TID 0000.0001) %MON seaice_area_max              =   1.0000000000000E+00
(PID.TID 0000.0001) %MON seaice_area_min              =   0.0000000000000E+00
(PID.TID 0000.0001) %MON seaice_area_mean             =   6.2310743740094E-01
(PID.TID 0000.0001) %MON seaice_area_sd               =   4.5675715897628E-01
(PID.TID 0000.0001) %MON seaice_area_del2             =   5.3102396661567E-02
(PID.TID 0000.0001) %MON seaice_heff_max              =   5.4914440244121E-01
(PID.TID 0000.0001) %MON seaice_heff_min              =   0.0000000000000E+00
(PID.TID 0000.0001) %MON seaice_heff_mean             =   1.4181984498598E-01
(PID.TID 0000.0001) %MON seaice_heff_sd               =   1.7482874985307E-01
(PID.TID 0000.0001) %MON seaice_heff_del2             =   1.3169867851140E-02
(PID.TID 0000.0001) %MON seaice_hsnow_max             =   2.0785054838239E-01
(PID.TID 0000.0001) %MON seaice_hsnow_min             =   0.0000000000000E+00
(PID.TID 0000.0001) %MON seaice_hsnow_mean            =   1.1901259282146E-01
(PID.TID 0000.0001) %MON seaice_hsnow_sd              =   9.7627028725843E-02
(PID.TID 0000.0001) %MON seaice_hsnow_del2            =   6.6467676522871E-03
(PID.TID 0000.0001) // =======================================================
(PID.TID 0000.0001) // End MONITOR SEAICE statistics
(PID.TID 0000.0001) // =======================================================
(PID.TID 0000.0001) // =======================================================
(PID.TID 0000.0001) // Begin MONITOR SEAICE statistics
(PID.TID 0000.0001) // =======================================================
(PID.TID 0000.0001) %MON seaice_tsnumber              =                     9
(PID.TID 0000.0001) %MON seaice_time_sec              =   3.2400000000000E+04
(PID.TID 0000.0001) %MON seaice_uice_max              =   2.6070781925070E-01
(PID.TID 0000.0001) %MON seaice_uice_min              =  -7.4569485540672E-02
(PID.TID 0000.0001) %MON seaice_uice_mean             =   5.6948249269227E-02
(PID.TID 0000.0001) %MON seaice_uice_sd               =   7.3694371234930E-02
(PID.TID 0000.0001) %MON seaice_uice_del2             =   6.9822815058424E-03
(PID.TID 0000.0001) %MON seaice_vice_max              =   7.2855153888681E-02
(PID.TID 0000.0001) %MON seaice_vice_min              =  -1.8167527187536E-01
(PID.TID 0000.0001) %MON seaice_vice_mean             =  -5.2953435545987E-02
(PID.TID 0000.0001) %MON seaice_vice_sd               =   5.6405662132294E-02
(PID.TID 0000.0001) %MON seaice_vice_del2             =   6.8591576938443E-03
(PID.TID 0000.0001) %MON seaice_area_max              =   1.0000000000000E+00
(PID.TID 0000.0001) %MON seaice_area_min              =   0.0000000000000E+00
(PID.TID 0000.0001) %MON seaice_area_mean             =   6.2310743740094E-01
(PID.TID 0000.0001) %MON seaice_area_sd               =   4.5675715897628E-01
(PID.TID 0000.0001) %MON seaice_area_del2             =   5.3102396661567E-02
(PID.TID 0000.0001) %MON seaice_heff_max              =   5.4914440244121E-01
(PID.TID 0000.0001) %MON seaice_heff_min              =   0.0000000000000E+00
(PID.TID 0000.0001) %MON seaice_heff_mean             =   1.4181984498598E-01
(PID.TID 0000.0001) %MON seaice_heff_sd               =   1.7482874985307E-01
(PID.TID 0000.0001) %MON seaice_heff_del2             =   1.3169867851140E-02
(PID.TID 0000.0001) %MON seaice_hsnow_max             =   2.0785054838239E-01
(PID.TID 0000.0001) %MON seaice_hsnow_min             =   0.0000000000000E+00
(PID.TID 0000.0001) %MON seaice_hsnow_mean            =   1.1901259282146E-01
(PID.TID 0000.0001) %MON seaice_hsnow_sd              =   9.7627028725843E-02
(PID.TID 0000.0001) %MON seaice_hsnow_del2            =   6.6467676522871E-03
(PID.TID 0000.0001) // =======================================================
(PID.TID 0000.0001) // End MONITOR SEAICE statistics
(PID.TID 0000.0001) // =======================================================
(PID.TID 0000.0001) // =======================================================
(PID.TID 0000.0001) // Begin MONITOR SEAICE statistics
(PID.TID 0000.0001) // =======================================================
(PID.TID 0000.0001) %MON seaice_tsnumber              =                    10
(PID.TID 0000.0001) %MON seaice_time_sec              =   3.6000000000000E+04
(PID.TID 0000.0001) %MON seaice_uice_max              =   2.6070781925070E-01
(PID.TID 0000.0001) %MON seaice_uice_min              =  -7.4569485540672E-02
(PID.TID 0000.0001) %MON seaice_uice_mean             =   5.6948249269227E-02
(PID.TID 0000.0001) %MON seaice_uice_sd               =   7.3694371234930E-02
(PID.TID 0000.0001) %MON seaice_uice_del2             =   6.9822815058424E-03
(PID.TID 0000.0001) %MON seaice_vice_max              =   7.2855153888681E-02
(PID.TID 0000.0001) %MON seaice_vice_min              =  -1.8167527187536E-01
(PID.TID 0000.0001) %MON seaice_vice_mean             =  -5.2953435545987E-02
(PID.TID 0000.0001) %MON seaice_vice_sd               =   5.6405662132294E-02
(PID.TID 0000.0001) %MON seaice_vice_del2             =   6.8591576938443E-03
(PID.TID 0000.0001) %MON seaice_area_max              =   1.0000000000000E+00
(PID.TID 0000.0001) %MON seaice_area_min              =   0.0000000000000E+00
(PID.TID 0000.0001) %MON seaice_area_mean             =   6.2310743740094E-01
(PID.TID 0000.0001) %MON seaice_area_sd               =   4.5675715897628E-01
(PID.TID 0000.0001) %MON seaice_area_del2             =   5.3102396661567E-02
(PID.TID 0000.0001) %MON seaice_heff_max              =   5.4914440244121E-01
(PID.TID 0000.0001) %MON seaice_heff_min              =   0.0000000000000E+00
(PID.TID 0000.0001) %MON seaice_heff_mean             =   1.4181984498598E-01
(PID.TID 0000.0001) %MON seaice_heff_sd               =   1.7482874985307E-01
(PID.TID 0000.0001) %MON seaice_heff_del2             =   1.3169867851140E-02
(PID.TID 0000.0001) %MON seaice_hsnow_max             =   2.0785054838239E-01
(PID.TID 0000.0001) %MON seaice_hsnow_min             =   0.0000000000000E+00
(PID.TID 0000.0001) %MON seaice_hsnow_mean            =   1.1901259282146E-01
(PID.TID 0000.0001) %MON seaice_hsnow_sd              =   9.7627028725843E-02
(PID.TID 0000.0001) %MON seaice_hsnow_del2            =   6.6467676522871E-03
(PID.TID 0000.0001) // =======================================================
(PID.TID 0000.0001) // End MONITOR SEAICE statistics
(PID.TID 0000.0001) // =======================================================
(PID.TID 0000.0001)  MDS_READ_FIELD: opening file: sbar.0000000000.001.001.data
(PID.TID 0000.0001)  MDS_READ_FIELD: opening file: adsbar.0000000000.001.001.data
(PID.TID 0000.0001)  MDS_READ_FIELD: opening file: tbar.0000000000.001.001.data
(PID.TID 0000.0001)  MDS_READ_FIELD: opening file: adtbar.0000000000.001.001.data
(PID.TID 0000.0001)  MDS_READ_FIELD: opening file: tbar.0000000000.001.001.data
(PID.TID 0000.0001)  MDS_READ_FIELD: opening file: adtbar.0000000000.001.001.data
(PID.TID 0000.0001)  MDS_READ_FIELD: opening file: psbar.0000000000.001.001.data
(PID.TID 0000.0001)  MDS_READ_FIELD: opening file: psbar.0000000000.001.001.data
(PID.TID 0000.0001)  MDS_READ_FIELD: opening file: adpsbar.0000000000.001.001.data
(PID.TID 0000.0001)  MDS_READ_FIELD: opening file: adpsbar.0000000000.001.001.data
(PID.TID 0000.0001)  MDS_READ_FIELD: opening file: xx_apressure.0000000000.001.001.data
(PID.TID 0000.0001)  MDS_READ_FIELD: opening file: xx_apressure.0000000000.001.001.data
(PID.TID 0000.0001)  MDS_READ_FIELD: opening file: xx_apressure.0000000000.001.001.data
(PID.TID 0000.0001)  MDS_READ_FIELD: opening file: adxx_apressure.0000000000.001.001.data
(PID.TID 0000.0001)  MDS_READ_FIELD: opening file: xx_apressure.0000000000.001.001.data
(PID.TID 0000.0001)  MDS_READ_FIELD: opening file: adxx_apressure.0000000000.001.001.data
(PID.TID 0000.0001)  MDS_READ_FIELD: opening file: xx_apressure.0000000000.001.001.data
(PID.TID 0000.0001)  MDS_READ_FIELD: opening file: xx_apressure.0000000000.001.001.data
(PID.TID 0000.0001)  MDS_READ_FIELD: opening file: adxx_apressure.0000000000.001.001.data
(PID.TID 0000.0001)  MDS_READ_FIELD: opening file: adxx_apressure.0000000000.001.001.data
(PID.TID 0000.0001)  MDS_READ_FIELD: opening file: xx_snowprecip.0000000000.001.001.data
(PID.TID 0000.0001)  MDS_READ_FIELD: opening file: xx_snowprecip.0000000000.001.001.data
(PID.TID 0000.0001)  MDS_READ_FIELD: opening file: xx_snowprecip.0000000000.001.001.data
(PID.TID 0000.0001)  MDS_READ_FIELD: opening file: adxx_snowprecip.0000000000.001.001.data
(PID.TID 0000.0001)  MDS_READ_FIELD: opening file: xx_snowprecip.0000000000.001.001.data
(PID.TID 0000.0001)  MDS_READ_FIELD: opening file: adxx_snowprecip.0000000000.001.001.data
(PID.TID 0000.0001)  MDS_READ_FIELD: opening file: xx_snowprecip.0000000000.001.001.data
(PID.TID 0000.0001)  MDS_READ_FIELD: opening file: xx_snowprecip.0000000000.001.001.data
(PID.TID 0000.0001)  MDS_READ_FIELD: opening file: adxx_snowprecip.0000000000.001.001.data
(PID.TID 0000.0001)  MDS_READ_FIELD: opening file: adxx_snowprecip.0000000000.001.001.data
(PID.TID 0000.0001)  MDS_READ_FIELD: opening file: xx_lwdown.0000000000.001.001.data
(PID.TID 0000.0001)  MDS_READ_FIELD: opening file: xx_lwdown.0000000000.001.001.data
(PID.TID 0000.0001)  MDS_READ_FIELD: opening file: xx_lwdown.0000000000.001.001.data
(PID.TID 0000.0001)  MDS_READ_FIELD: opening file: adxx_lwdown.0000000000.001.001.data
(PID.TID 0000.0001)  MDS_READ_FIELD: opening file: xx_lwdown.0000000000.001.001.data
(PID.TID 0000.0001)  MDS_READ_FIELD: opening file: adxx_lwdown.0000000000.001.001.data
(PID.TID 0000.0001)  MDS_READ_FIELD: opening file: xx_lwdown.0000000000.001.001.data
(PID.TID 0000.0001)  MDS_READ_FIELD: opening file: xx_lwdown.0000000000.001.001.data
(PID.TID 0000.0001)  MDS_READ_FIELD: opening file: adxx_lwdown.0000000000.001.001.data
(PID.TID 0000.0001)  MDS_READ_FIELD: opening file: adxx_lwdown.0000000000.001.001.data
(PID.TID 0000.0001)  MDS_READ_FIELD: opening file: xx_swdown.0000000000.001.001.data
(PID.TID 0000.0001)  MDS_READ_FIELD: opening file: xx_swdown.0000000000.001.001.data
(PID.TID 0000.0001)  MDS_READ_FIELD: opening file: xx_swdown.0000000000.001.001.data
(PID.TID 0000.0001)  MDS_READ_FIELD: opening file: adxx_swdown.0000000000.001.001.data
(PID.TID 0000.0001)  MDS_READ_FIELD: opening file: xx_swdown.0000000000.001.001.data
(PID.TID 0000.0001)  MDS_READ_FIELD: opening file: adxx_swdown.0000000000.001.001.data
(PID.TID 0000.0001)  MDS_READ_FIELD: opening file: xx_swdown.0000000000.001.001.data
(PID.TID 0000.0001)  MDS_READ_FIELD: opening file: xx_swdown.0000000000.001.001.data
(PID.TID 0000.0001)  MDS_READ_FIELD: opening file: adxx_swdown.0000000000.001.001.data
(PID.TID 0000.0001)  MDS_READ_FIELD: opening file: adxx_swdown.0000000000.001.001.data
(PID.TID 0000.0001)  MDS_READ_FIELD: opening file: xx_precip.0000000000.001.001.data
(PID.TID 0000.0001)  MDS_READ_FIELD: opening file: xx_precip.0000000000.001.001.data
(PID.TID 0000.0001)  MDS_READ_FIELD: opening file: xx_precip.0000000000.001.001.data
(PID.TID 0000.0001)  MDS_READ_FIELD: opening file: adxx_precip.0000000000.001.001.data
(PID.TID 0000.0001)  MDS_READ_FIELD: opening file: xx_precip.0000000000.001.001.data
(PID.TID 0000.0001)  MDS_READ_FIELD: opening file: adxx_precip.0000000000.001.001.data
(PID.TID 0000.0001)  MDS_READ_FIELD: opening file: xx_precip.0000000000.001.001.data
(PID.TID 0000.0001)  MDS_READ_FIELD: opening file: xx_precip.0000000000.001.001.data
(PID.TID 0000.0001)  MDS_READ_FIELD: opening file: adxx_precip.0000000000.001.001.data
(PID.TID 0000.0001)  MDS_READ_FIELD: opening file: adxx_precip.0000000000.001.001.data
(PID.TID 0000.0001)  MDS_READ_FIELD: opening file: xx_vwind.0000000000.001.001.data
(PID.TID 0000.0001)  MDS_READ_FIELD: opening file: xx_vwind.0000000000.001.001.data
(PID.TID 0000.0001)  MDS_READ_FIELD: opening file: xx_vwind.0000000000.001.001.data
(PID.TID 0000.0001)  MDS_READ_FIELD: opening file: adxx_vwind.0000000000.001.001.data
(PID.TID 0000.0001)  MDS_READ_FIELD: opening file: xx_vwind.0000000000.001.001.data
(PID.TID 0000.0001)  MDS_READ_FIELD: opening file: adxx_vwind.0000000000.001.001.data
(PID.TID 0000.0001)  MDS_READ_FIELD: opening file: xx_vwind.0000000000.001.001.data
(PID.TID 0000.0001)  MDS_READ_FIELD: opening file: xx_vwind.0000000000.001.001.data
(PID.TID 0000.0001)  MDS_READ_FIELD: opening file: adxx_vwind.0000000000.001.001.data
(PID.TID 0000.0001)  MDS_READ_FIELD: opening file: adxx_vwind.0000000000.001.001.data
(PID.TID 0000.0001)  MDS_READ_FIELD: opening file: xx_uwind.0000000000.001.001.data
(PID.TID 0000.0001)  MDS_READ_FIELD: opening file: xx_uwind.0000000000.001.001.data
(PID.TID 0000.0001)  MDS_READ_FIELD: opening file: xx_uwind.0000000000.001.001.data
(PID.TID 0000.0001)  MDS_READ_FIELD: opening file: adxx_uwind.0000000000.001.001.data
(PID.TID 0000.0001)  MDS_READ_FIELD: opening file: xx_uwind.0000000000.001.001.data
(PID.TID 0000.0001)  MDS_READ_FIELD: opening file: adxx_uwind.0000000000.001.001.data
(PID.TID 0000.0001)  MDS_READ_FIELD: opening file: xx_uwind.0000000000.001.001.data
(PID.TID 0000.0001)  MDS_READ_FIELD: opening file: xx_uwind.0000000000.001.001.data
(PID.TID 0000.0001)  MDS_READ_FIELD: opening file: adxx_uwind.0000000000.001.001.data
(PID.TID 0000.0001)  MDS_READ_FIELD: opening file: adxx_uwind.0000000000.001.001.data
(PID.TID 0000.0001)  MDS_READ_FIELD: opening file: xx_aqh.0000000000.001.001.data
(PID.TID 0000.0001)  MDS_READ_FIELD: opening file: xx_aqh.0000000000.001.001.data
(PID.TID 0000.0001)  MDS_READ_FIELD: opening file: xx_aqh.0000000000.001.001.data
(PID.TID 0000.0001)  MDS_READ_FIELD: opening file: adxx_aqh.0000000000.001.001.data
(PID.TID 0000.0001)  MDS_READ_FIELD: opening file: xx_aqh.0000000000.001.001.data
(PID.TID 0000.0001)  MDS_READ_FIELD: opening file: adxx_aqh.0000000000.001.001.data
(PID.TID 0000.0001)  MDS_READ_FIELD: opening file: xx_aqh.0000000000.001.001.data
(PID.TID 0000.0001)  MDS_READ_FIELD: opening file: xx_aqh.0000000000.001.001.data
(PID.TID 0000.0001)  MDS_READ_FIELD: opening file: adxx_aqh.0000000000.001.001.data
(PID.TID 0000.0001)  MDS_READ_FIELD: opening file: adxx_aqh.0000000000.001.001.data
(PID.TID 0000.0001)  MDS_READ_FIELD: opening file: xx_atemp.0000000000.001.001.data
(PID.TID 0000.0001)  MDS_READ_FIELD: opening file: xx_atemp.0000000000.001.001.data
(PID.TID 0000.0001)  MDS_READ_FIELD: opening file: xx_atemp.0000000000.001.001.data
(PID.TID 0000.0001)  MDS_READ_FIELD: opening file: adxx_atemp.0000000000.001.001.data
(PID.TID 0000.0001)  MDS_READ_FIELD: opening file: xx_atemp.0000000000.001.001.data
(PID.TID 0000.0001)  MDS_READ_FIELD: opening file: adxx_atemp.0000000000.001.001.data
(PID.TID 0000.0001)  MDS_READ_FIELD: opening file: xx_atemp.0000000000.001.001.data
(PID.TID 0000.0001)  MDS_READ_FIELD: opening file: xx_atemp.0000000000.001.001.data
(PID.TID 0000.0001)  MDS_READ_FIELD: opening file: adxx_atemp.0000000000.001.001.data
(PID.TID 0000.0001)  MDS_READ_FIELD: opening file: adxx_atemp.0000000000.001.001.data
(PID.TID 0000.0001)  MDS_READ_FIELD: opening file: adsmrareabar.0000000000.001.001.data
(PID.TID 0000.0001)  MDS_READ_FIELD: opening file: adsbar.0000000000.001.001.data
(PID.TID 0000.0001)  MDS_READ_FIELD: opening file: adtbar.0000000000.001.001.data
(PID.TID 0000.0001)  MDS_READ_FIELD: opening file: adpsbar.0000000000.001.001.data
(PID.TID 0000.0001)  MDS_READ_FIELD: opening file: xx_atemp.0000000000.001.001.data
(PID.TID 0000.0001)  MDS_READ_FIELD: opening file: xx_atemp.0000000000.001.001.data
(PID.TID 0000.0001)  MDS_READ_FIELD: opening file: xx_aqh.0000000000.001.001.data
(PID.TID 0000.0001)  MDS_READ_FIELD: opening file: xx_aqh.0000000000.001.001.data
(PID.TID 0000.0001)  MDS_READ_FIELD: opening file: xx_precip.0000000000.001.001.data
(PID.TID 0000.0001)  MDS_READ_FIELD: opening file: xx_precip.0000000000.001.001.data
(PID.TID 0000.0001)  MDS_READ_FIELD: opening file: xx_swdown.0000000000.001.001.data
(PID.TID 0000.0001)  MDS_READ_FIELD: opening file: xx_swdown.0000000000.001.001.data
(PID.TID 0000.0001)  MDS_READ_FIELD: opening file: xx_lwdown.0000000000.001.001.data
(PID.TID 0000.0001)  MDS_READ_FIELD: opening file: xx_lwdown.0000000000.001.001.data
(PID.TID 0000.0001)  MDS_READ_FIELD: opening file: xx_snowprecip.0000000000.001.001.data
(PID.TID 0000.0001)  MDS_READ_FIELD: opening file: xx_snowprecip.0000000000.001.001.data
(PID.TID 0000.0001)  MDS_READ_FIELD: opening file: xx_apressure.0000000000.001.001.data
(PID.TID 0000.0001)  MDS_READ_FIELD: opening file: xx_apressure.0000000000.001.001.data
(PID.TID 0000.0001)  MDS_READ_FIELD: opening file: xx_uwind.0000000000.001.001.data
(PID.TID 0000.0001)  MDS_READ_FIELD: opening file: xx_uwind.0000000000.001.001.data
(PID.TID 0000.0001)  MDS_READ_FIELD: opening file: xx_vwind.0000000000.001.001.data
(PID.TID 0000.0001)  MDS_READ_FIELD: opening file: xx_vwind.0000000000.001.001.data
(PID.TID 0000.0001) // =======================================================
(PID.TID 0000.0001) // Begin MONITOR EXF statistics
(PID.TID 0000.0001) // =======================================================
(PID.TID 0000.0001) %MON exf_tsnumber                 =                     0
(PID.TID 0000.0001) %MON exf_time_sec                 =   0.0000000000000E+00
(PID.TID 0000.0001) %MON exf_ustress_max              =   6.3903775845771E-02
(PID.TID 0000.0001) %MON exf_ustress_min              =  -9.5324050318348E-02
(PID.TID 0000.0001) %MON exf_ustress_mean             =   2.2585162028781E-02
(PID.TID 0000.0001) %MON exf_ustress_sd               =   2.7275779997355E-02
(PID.TID 0000.0001) %MON exf_ustress_del2             =   2.9464928316532E-03
(PID.TID 0000.0001) %MON exf_vstress_max              =   5.4708944127586E-02
(PID.TID 0000.0001) %MON exf_vstress_min              =  -6.2488440618747E-02
(PID.TID 0000.0001) %MON exf_vstress_mean             =  -5.6174743223315E-03
(PID.TID 0000.0001) %MON exf_vstress_sd               =   1.5596129749990E-02
(PID.TID 0000.0001) %MON exf_vstress_del2             =   1.7930354012150E-03
(PID.TID 0000.0001) %MON exf_hflux_max                =   7.3111020636161E+02
(PID.TID 0000.0001) %MON exf_hflux_min                =   1.0991726570245E+02
(PID.TID 0000.0001) %MON exf_hflux_mean               =   2.7655955077737E+02
(PID.TID 0000.0001) %MON exf_hflux_sd                 =   1.5872019352493E+02
(PID.TID 0000.0001) %MON exf_hflux_del2               =   1.9324680413847E+01
(PID.TID 0000.0001) %MON exf_sflux_max                =   5.3473262221640E-08
(PID.TID 0000.0001) %MON exf_sflux_min                =  -6.1385296755754E-08
(PID.TID 0000.0001) %MON exf_sflux_mean               =  -7.3062646151542E-09
(PID.TID 0000.0001) %MON exf_sflux_sd                 =   2.6562207566842E-08
(PID.TID 0000.0001) %MON exf_sflux_del2               =   3.6392856083892E-09
(PID.TID 0000.0001) %MON exf_uwind_max                =   6.4643745422363E+00
(PID.TID 0000.0001) %MON exf_uwind_min                =  -6.8372380733490E+00
(PID.TID 0000.0001) %MON exf_uwind_mean               =   2.7697727336031E+00
(PID.TID 0000.0001) %MON exf_uwind_sd                 =   2.9900402496951E+00
(PID.TID 0000.0001) %MON exf_uwind_del2               =   3.1570994739265E-01
(PID.TID 0000.0001) %MON exf_vwind_max                =   3.9240682125092E+00
(PID.TID 0000.0001) %MON exf_vwind_min                =  -6.0197033882141E+00
(PID.TID 0000.0001) %MON exf_vwind_mean               =  -7.6089868124963E-01
(PID.TID 0000.0001) %MON exf_vwind_sd                 =   1.7293437592941E+00
(PID.TID 0000.0001) %MON exf_vwind_del2               =   1.9333263882436E-01
(PID.TID 0000.0001) %MON exf_wspeed_max               =   7.8832820454477E+00
(PID.TID 0000.0001) %MON exf_wspeed_min               =   4.6035219539401E-01
(PID.TID 0000.0001) %MON exf_wspeed_mean              =   4.1981217095273E+00
(PID.TID 0000.0001) %MON exf_wspeed_sd                =   1.5991724245810E+00
(PID.TID 0000.0001) %MON exf_wspeed_del2              =   3.7693667977018E-01
(PID.TID 0000.0001) %MON exf_atemp_max                =   2.8188281250000E+02
(PID.TID 0000.0001) %MON exf_atemp_min                =   2.3646176910400E+02
(PID.TID 0000.0001) %MON exf_atemp_mean               =   2.6394605784141E+02
(PID.TID 0000.0001) %MON exf_atemp_sd                 =   1.1983417694612E+01
(PID.TID 0000.0001) %MON exf_atemp_del2               =   6.4942276000977E-01
(PID.TID 0000.0001) %MON exf_aqh_max                  =   6.3231729436666E-03
(PID.TID 0000.0001) %MON exf_aqh_min                  =   1.6369274817407E-04
(PID.TID 0000.0001) %MON exf_aqh_mean                 =   2.4803629101886E-03
(PID.TID 0000.0001) %MON exf_aqh_sd                   =   1.4265074770275E-03
(PID.TID 0000.0001) %MON exf_aqh_del2                 =   6.8141780599641E-05
(PID.TID 0000.0001) %MON exf_lwflux_max               =   1.9978966060501E+02
(PID.TID 0000.0001) %MON exf_lwflux_min               =   6.3304595803996E+01
(PID.TID 0000.0001) %MON exf_lwflux_mean              =   1.0410079899302E+02
(PID.TID 0000.0001) %MON exf_lwflux_sd                =   3.6519264181786E+01
(PID.TID 0000.0001) %MON exf_lwflux_del2              =   3.1286635970398E+00
(PID.TID 0000.0001) %MON exf_precip_max               =   1.0498766300771E-07
(PID.TID 0000.0001) %MON exf_precip_min               =   2.7359498694368E-10
(PID.TID 0000.0001) %MON exf_precip_mean              =   3.6390080543085E-08
(PID.TID 0000.0001) %MON exf_precip_sd                =   2.0578148171209E-08
(PID.TID 0000.0001) %MON exf_precip_del2              =   2.5551549857431E-09
(PID.TID 0000.0001) %MON exf_snowprecip_max           =   0.0000000000000E+00
(PID.TID 0000.0001) %MON exf_snowprecip_min           =   0.0000000000000E+00
(PID.TID 0000.0001) %MON exf_snowprecip_mean          =   0.0000000000000E+00
(PID.TID 0000.0001) %MON exf_snowprecip_sd            =   0.0000000000000E+00
(PID.TID 0000.0001) %MON exf_snowprecip_del2          =   0.0000000000000E+00
(PID.TID 0000.0001) %MON exf_swflux_max               =  -8.1205755472183E-02
(PID.TID 0000.0001) %MON exf_swflux_min               =  -6.3973114013672E+01
(PID.TID 0000.0001) %MON exf_swflux_mean              =  -2.6453223022948E+01
(PID.TID 0000.0001) %MON exf_swflux_sd                =   1.9625901079469E+01
(PID.TID 0000.0001) %MON exf_swflux_del2              =   4.7901276555285E-01
(PID.TID 0000.0001) %MON exf_evap_max                 =   5.9797470045733E-08
(PID.TID 0000.0001) %MON exf_evap_min                 =   1.0729148721654E-08
(PID.TID 0000.0001) %MON exf_evap_mean                =   2.9083815927930E-08
(PID.TID 0000.0001) %MON exf_evap_sd                  =   9.2938020844541E-09
(PID.TID 0000.0001) %MON exf_evap_del2                =   2.0154590676424E-09
(PID.TID 0000.0001) %MON exf_swdown_max               =   7.1081237792969E+01
(PID.TID 0000.0001) %MON exf_swdown_min               =   9.0228617191315E-02
(PID.TID 0000.0001) %MON exf_swdown_mean              =   2.9392470025498E+01
(PID.TID 0000.0001) %MON exf_swdown_sd                =   2.1806556754965E+01
(PID.TID 0000.0001) %MON exf_swdown_del2              =   5.3223640616983E-01
(PID.TID 0000.0001) %MON exf_lwdown_max               =   3.0567971801758E+02
(PID.TID 0000.0001) %MON exf_lwdown_min               =   1.1599769210815E+02
(PID.TID 0000.0001) %MON exf_lwdown_mean              =   2.2594931695913E+02
(PID.TID 0000.0001) %MON exf_lwdown_sd                =   4.6277429231296E+01
(PID.TID 0000.0001) %MON exf_lwdown_del2              =   3.2438212966919E+00
(PID.TID 0000.0001) %MON exf_apressure_max            =   0.0000000000000E+00
(PID.TID 0000.0001) %MON exf_apressure_min            =   0.0000000000000E+00
(PID.TID 0000.0001) %MON exf_apressure_mean           =   0.0000000000000E+00
(PID.TID 0000.0001) %MON exf_apressure_sd             =   0.0000000000000E+00
(PID.TID 0000.0001) %MON exf_apressure_del2           =   0.0000000000000E+00
(PID.TID 0000.0001) %MON exf_runoff_max               =   0.0000000000000E+00
(PID.TID 0000.0001) %MON exf_runoff_min               =   0.0000000000000E+00
(PID.TID 0000.0001) %MON exf_runoff_mean              =   0.0000000000000E+00
(PID.TID 0000.0001) %MON exf_runoff_sd                =   0.0000000000000E+00
(PID.TID 0000.0001) %MON exf_runoff_del2              =   0.0000000000000E+00
(PID.TID 0000.0001) %MON exf_climsst_max              =   0.0000000000000E+00
(PID.TID 0000.0001) %MON exf_climsst_min              =   0.0000000000000E+00
(PID.TID 0000.0001) %MON exf_climsst_mean             =   0.0000000000000E+00
(PID.TID 0000.0001) %MON exf_climsst_sd               =   0.0000000000000E+00
(PID.TID 0000.0001) %MON exf_climsst_del2             =   0.0000000000000E+00
(PID.TID 0000.0001) %MON exf_climsss_max              =   3.5040330886841E+01
(PID.TID 0000.0001) %MON exf_climsss_min              =   3.0666313171387E+01
(PID.TID 0000.0001) %MON exf_climsss_mean             =   3.3459319600989E+01
(PID.TID 0000.0001) %MON exf_climsss_sd               =   1.0319548925494E+00
(PID.TID 0000.0001) %MON exf_climsss_del2             =   1.0019396146139E-01
(PID.TID 0000.0001) // =======================================================
(PID.TID 0000.0001) // End MONITOR EXF statistics
(PID.TID 0000.0001) // =======================================================
 ph-ice B  0  0.  0.  0.
 ph-ice C  0  5.30354909E+10
 cg2d: Sum(rhs),rhsMax =   1.05818132034585E-15  9.93037467350620E-01
(PID.TID 0000.0001) // =======================================================
(PID.TID 0000.0001) // Begin MONITOR SEAICE statistics
(PID.TID 0000.0001) // =======================================================
(PID.TID 0000.0001) %MON seaice_tsnumber              =                     1
(PID.TID 0000.0001) %MON seaice_time_sec              =   3.6000000000000E+03
(PID.TID 0000.0001) %MON seaice_uice_max              =   1.1830188588838E-01
(PID.TID 0000.0001) %MON seaice_uice_min              =  -3.6947667601810E-02
(PID.TID 0000.0001) %MON seaice_uice_mean             =   4.6351011395841E-02
(PID.TID 0000.0001) %MON seaice_uice_sd               =   4.4551623876367E-02
(PID.TID 0000.0001) %MON seaice_uice_del2             =   2.6893939150909E-03
(PID.TID 0000.0001) %MON seaice_vice_max              =   3.8048078875392E-02
(PID.TID 0000.0001) %MON seaice_vice_min              =  -7.2208311040469E-02
(PID.TID 0000.0001) %MON seaice_vice_mean             =  -1.7212953413442E-02
(PID.TID 0000.0001) %MON seaice_vice_sd               =   2.7498420195410E-02
(PID.TID 0000.0001) %MON seaice_vice_del2             =   2.2712992187913E-03
(PID.TID 0000.0001) %MON seaice_area_max              =   1.0000000000000E+00
(PID.TID 0000.0001) %MON seaice_area_min              =   0.0000000000000E+00
(PID.TID 0000.0001) %MON seaice_area_mean             =   6.3240418008182E-01
(PID.TID 0000.0001) %MON seaice_area_sd               =   4.5166862134438E-01
(PID.TID 0000.0001) %MON seaice_area_del2             =   4.7454801422287E-02
(PID.TID 0000.0001) %MON seaice_heff_max              =   6.0076635272005E-01
(PID.TID 0000.0001) %MON seaice_heff_min              =   0.0000000000000E+00
(PID.TID 0000.0001) %MON seaice_heff_mean             =   1.4887451421175E-01
(PID.TID 0000.0001) %MON seaice_heff_sd               =   1.8287366826742E-01
(PID.TID 0000.0001) %MON seaice_heff_del2             =   1.0146605918607E-02
(PID.TID 0000.0001) %MON seaice_hsnow_max             =   2.0078474686707E-01
(PID.TID 0000.0001) %MON seaice_hsnow_min             =   0.0000000000000E+00
(PID.TID 0000.0001) %MON seaice_hsnow_mean            =   1.1848697056338E-01
(PID.TID 0000.0001) %MON seaice_hsnow_sd              =   9.6623972770983E-02
(PID.TID 0000.0001) %MON seaice_hsnow_del2            =   6.2688952170602E-03
(PID.TID 0000.0001) // =======================================================
(PID.TID 0000.0001) // End MONITOR SEAICE statistics
(PID.TID 0000.0001) // =======================================================
(PID.TID 0000.0001) // =======================================================
(PID.TID 0000.0001) // Begin MONITOR EXF statistics
(PID.TID 0000.0001) // =======================================================
(PID.TID 0000.0001) %MON exf_tsnumber                 =                     1
(PID.TID 0000.0001) %MON exf_time_sec                 =   3.6000000000000E+03
(PID.TID 0000.0001) %MON exf_ustress_max              =   5.2215336216899E-02
(PID.TID 0000.0001) %MON exf_ustress_min              =  -9.3781516255246E-02
(PID.TID 0000.0001) %MON exf_ustress_mean             =   1.7908664813945E-02
(PID.TID 0000.0001) %MON exf_ustress_sd               =   2.3677824520119E-02
(PID.TID 0000.0001) %MON exf_ustress_del2             =   2.8185945121624E-03
(PID.TID 0000.0001) %MON exf_vstress_max              =   5.3823846971061E-02
(PID.TID 0000.0001) %MON exf_vstress_min              =  -5.8521115502029E-02
(PID.TID 0000.0001) %MON exf_vstress_mean             =  -5.4709257304531E-03
(PID.TID 0000.0001) %MON exf_vstress_sd               =   1.4440702294892E-02
(PID.TID 0000.0001) %MON exf_vstress_del2             =   1.6942466375470E-03
(PID.TID 0000.0001) %MON exf_hflux_max                =   6.2467472133264E+02
(PID.TID 0000.0001) %MON exf_hflux_min                =  -5.4116825759641E+01
(PID.TID 0000.0001) %MON exf_hflux_mean               =   1.4693364847073E+02
(PID.TID 0000.0001) %MON exf_hflux_sd                 =   1.8156698860139E+02
(PID.TID 0000.0001) %MON exf_hflux_del2               =   1.6567547708346E+01
(PID.TID 0000.0001) %MON exf_sflux_max                =   3.9008935708334E-08
(PID.TID 0000.0001) %MON exf_sflux_min                =  -8.8902774357601E-08
(PID.TID 0000.0001) %MON exf_sflux_mean               =  -2.5876940685263E-08
(PID.TID 0000.0001) %MON exf_sflux_sd                 =   3.0537598406995E-08
(PID.TID 0000.0001) %MON exf_sflux_del2               =   3.1605976719929E-09
(PID.TID 0000.0001) %MON exf_uwind_max                =   6.4648819946852E+00
(PID.TID 0000.0001) %MON exf_uwind_min                =  -6.8372648550513E+00
(PID.TID 0000.0001) %MON exf_uwind_mean               =   2.7698802859476E+00
(PID.TID 0000.0001) %MON exf_uwind_sd                 =   2.9903162155877E+00
(PID.TID 0000.0001) %MON exf_uwind_del2               =   3.1571785161521E-01
(PID.TID 0000.0001) %MON exf_vwind_max                =   3.9240983933048E+00
(PID.TID 0000.0001) %MON exf_vwind_min                =  -6.0187974783892E+00
(PID.TID 0000.0001) %MON exf_vwind_mean               =  -7.6028090815952E-01
(PID.TID 0000.0001) %MON exf_vwind_sd                 =   1.7294518007626E+00
(PID.TID 0000.0001) %MON exf_vwind_del2               =   1.9332576748242E-01
(PID.TID 0000.0001) %MON exf_wspeed_max               =   7.8833202965791E+00
(PID.TID 0000.0001) %MON exf_wspeed_min               =   4.6010935417159E-01
(PID.TID 0000.0001) %MON exf_wspeed_mean              =   4.1982241536133E+00
(PID.TID 0000.0001) %MON exf_wspeed_sd                =   1.5994287774633E+00
(PID.TID 0000.0001) %MON exf_wspeed_del2              =   3.7699000842292E-01
(PID.TID 0000.0001) %MON exf_atemp_max                =   2.8188110034713E+02
(PID.TID 0000.0001) %MON exf_atemp_min                =   2.3645730413635E+02
(PID.TID 0000.0001) %MON exf_atemp_mean               =   2.6394141375606E+02
(PID.TID 0000.0001) %MON exf_atemp_sd                 =   1.1984878226631E+01
(PID.TID 0000.0001) %MON exf_atemp_del2               =   6.4944209295109E-01
(PID.TID 0000.0001) %MON exf_aqh_max                  =   6.3224764028055E-03
(PID.TID 0000.0001) %MON exf_aqh_min                  =   1.6359864467567E-04
(PID.TID 0000.0001) %MON exf_aqh_mean                 =   2.4798025537840E-03
(PID.TID 0000.0001) %MON exf_aqh_sd                   =   1.4264043737180E-03
(PID.TID 0000.0001) %MON exf_aqh_del2                 =   6.8128113038494E-05
(PID.TID 0000.0001) %MON exf_lwflux_max               =   1.8380784776361E+02
(PID.TID 0000.0001) %MON exf_lwflux_min               =   2.6472644798215E+01
(PID.TID 0000.0001) %MON exf_lwflux_mean              =   7.5350572632925E+01
(PID.TID 0000.0001) %MON exf_lwflux_sd                =   4.3134595524386E+01
(PID.TID 0000.0001) %MON exf_lwflux_del2              =   3.2390977067912E+00
(PID.TID 0000.0001) %MON exf_precip_max               =   1.0498904445033E-07
(PID.TID 0000.0001) %MON exf_precip_min               =   2.7346106047101E-10
(PID.TID 0000.0001) %MON exf_precip_mean              =   3.6390069699050E-08
(PID.TID 0000.0001) %MON exf_precip_sd                =   2.0578598603627E-08
(PID.TID 0000.0001) %MON exf_precip_del2              =   2.5556826789328E-09
(PID.TID 0000.0001) %MON exf_snowprecip_max           =   0.0000000000000E+00
(PID.TID 0000.0001) %MON exf_snowprecip_min           =   0.0000000000000E+00
(PID.TID 0000.0001) %MON exf_snowprecip_mean          =   0.0000000000000E+00
(PID.TID 0000.0001) %MON exf_snowprecip_sd            =   0.0000000000000E+00
(PID.TID 0000.0001) %MON exf_snowprecip_del2          =   0.0000000000000E+00
(PID.TID 0000.0001) %MON exf_swflux_max               =  -8.1206038349965E-02
(PID.TID 0000.0001) %MON exf_swflux_min               =  -6.3991984364244E+01
(PID.TID 0000.0001) %MON exf_swflux_mean              =  -2.6463755238823E+01
(PID.TID 0000.0001) %MON exf_swflux_sd                =   1.9629736696482E+01
(PID.TID 0000.0001) %MON exf_swflux_del2              =   4.7911963949881E-01
(PID.TID 0000.0001) %MON exf_evap_max                 =   4.5332480821497E-08
(PID.TID 0000.0001) %MON exf_evap_min                 =  -4.7524365011618E-09
(PID.TID 0000.0001) %MON exf_evap_mean                =   1.0513129013787E-08
(PID.TID 0000.0001) %MON exf_evap_sd                  =   1.1274583021708E-08
(PID.TID 0000.0001) %MON exf_evap_del2                =   1.3716110068495E-09
(PID.TID 0000.0001) %MON exf_swdown_max               =   7.1102204849160E+01
(PID.TID 0000.0001) %MON exf_swdown_min               =   9.0228931499961E-02
(PID.TID 0000.0001) %MON exf_swdown_mean              =   2.9404172487581E+01
(PID.TID 0000.0001) %MON exf_swdown_sd                =   2.1810818551646E+01
(PID.TID 0000.0001) %MON exf_swdown_del2              =   5.3235515499868E-01
(PID.TID 0000.0001) %MON exf_lwdown_max               =   3.0567089193375E+02
(PID.TID 0000.0001) %MON exf_lwdown_min               =   1.1598258522951E+02
(PID.TID 0000.0001) %MON exf_lwdown_mean              =   2.2593360963007E+02
(PID.TID 0000.0001) %MON exf_lwdown_sd                =   4.6281398610271E+01
(PID.TID 0000.0001) %MON exf_lwdown_del2              =   3.2438329367646E+00
(PID.TID 0000.0001) %MON exf_apressure_max            =   0.0000000000000E+00
(PID.TID 0000.0001) %MON exf_apressure_min            =   0.0000000000000E+00
(PID.TID 0000.0001) %MON exf_apressure_mean           =   0.0000000000000E+00
(PID.TID 0000.0001) %MON exf_apressure_sd             =   0.0000000000000E+00
(PID.TID 0000.0001) %MON exf_apressure_del2           =   0.0000000000000E+00
(PID.TID 0000.0001) %MON exf_runoff_max               =   0.0000000000000E+00
(PID.TID 0000.0001) %MON exf_runoff_min               =   0.0000000000000E+00
(PID.TID 0000.0001) %MON exf_runoff_mean              =   0.0000000000000E+00
(PID.TID 0000.0001) %MON exf_runoff_sd                =   0.0000000000000E+00
(PID.TID 0000.0001) %MON exf_runoff_del2              =   0.0000000000000E+00
(PID.TID 0000.0001) %MON exf_climsst_max              =   0.0000000000000E+00
(PID.TID 0000.0001) %MON exf_climsst_min              =   0.0000000000000E+00
(PID.TID 0000.0001) %MON exf_climsst_mean             =   0.0000000000000E+00
(PID.TID 0000.0001) %MON exf_climsst_sd               =   0.0000000000000E+00
(PID.TID 0000.0001) %MON exf_climsst_del2             =   0.0000000000000E+00
(PID.TID 0000.0001) %MON exf_climsss_max              =   3.5040515633880E+01
(PID.TID 0000.0001) %MON exf_climsss_min              =   3.0667072499385E+01
(PID.TID 0000.0001) %MON exf_climsss_mean             =   3.3459840934468E+01
(PID.TID 0000.0001) %MON exf_climsss_sd               =   1.0318832207269E+00
(PID.TID 0000.0001) %MON exf_climsss_del2             =   1.0017673217099E-01
(PID.TID 0000.0001) // =======================================================
(PID.TID 0000.0001) // End MONITOR EXF statistics
(PID.TID 0000.0001) // =======================================================
 ph-ice B  1  0.  0.  0.
 ph-ice C  1  1.03662085E+11
 cg2d: Sum(rhs),rhsMax =   9.71447922104574E-10  1.19254195625089E+00
(PID.TID 0000.0001) // =======================================================
(PID.TID 0000.0001) // Begin MONITOR SEAICE statistics
(PID.TID 0000.0001) // =======================================================
(PID.TID 0000.0001) %MON seaice_tsnumber              =                     2
(PID.TID 0000.0001) %MON seaice_time_sec              =   7.2000000000000E+03
(PID.TID 0000.0001) %MON seaice_uice_max              =   1.5575757117815E-01
(PID.TID 0000.0001) %MON seaice_uice_min              =  -8.0942741430966E-02
(PID.TID 0000.0001) %MON seaice_uice_mean             =   6.5168649829382E-02
(PID.TID 0000.0001) %MON seaice_uice_sd               =   6.1631643089350E-02
(PID.TID 0000.0001) %MON seaice_uice_del2             =   6.8706904523403E-03
(PID.TID 0000.0001) %MON seaice_vice_max              =   7.0616929390505E-02
(PID.TID 0000.0001) %MON seaice_vice_min              =  -1.3662299947234E-01
(PID.TID 0000.0001) %MON seaice_vice_mean             =  -2.1829812692631E-02
(PID.TID 0000.0001) %MON seaice_vice_sd               =   4.1312329526262E-02
(PID.TID 0000.0001) %MON seaice_vice_del2             =   5.3521934566396E-03
(PID.TID 0000.0001) %MON seaice_area_max              =   1.0000000000000E+00
(PID.TID 0000.0001) %MON seaice_area_min              =   0.0000000000000E+00
(PID.TID 0000.0001) %MON seaice_area_mean             =   6.2511455210173E-01
(PID.TID 0000.0001) %MON seaice_area_sd               =   4.5918073702415E-01
(PID.TID 0000.0001) %MON seaice_area_del2             =   5.3309150568192E-02
(PID.TID 0000.0001) %MON seaice_heff_max              =   5.5572638142240E-01
(PID.TID 0000.0001) %MON seaice_heff_min              =   0.0000000000000E+00
(PID.TID 0000.0001) %MON seaice_heff_mean             =   1.4211256278540E-01
(PID.TID 0000.0001) %MON seaice_heff_sd               =   1.7471336181798E-01
(PID.TID 0000.0001) %MON seaice_heff_del2             =   1.3300800072063E-02
(PID.TID 0000.0001) %MON seaice_hsnow_max             =   2.0156957952176E-01
(PID.TID 0000.0001) %MON seaice_hsnow_min             =   0.0000000000000E+00
(PID.TID 0000.0001) %MON seaice_hsnow_mean            =   1.1798259565184E-01
(PID.TID 0000.0001) %MON seaice_hsnow_sd              =   9.6675387962263E-02
(PID.TID 0000.0001) %MON seaice_hsnow_del2            =   6.3372971187471E-03
(PID.TID 0000.0001) // =======================================================
(PID.TID 0000.0001) // End MONITOR SEAICE statistics
(PID.TID 0000.0001) // =======================================================
(PID.TID 0000.0001) // =======================================================
(PID.TID 0000.0001) // Begin MONITOR EXF statistics
(PID.TID 0000.0001) // =======================================================
(PID.TID 0000.0001) %MON exf_tsnumber                 =                     2
(PID.TID 0000.0001) %MON exf_time_sec                 =   7.2000000000000E+03
(PID.TID 0000.0001) %MON exf_ustress_max              =   5.2234389551241E-02
(PID.TID 0000.0001) %MON exf_ustress_min              =  -9.3783873525021E-02
(PID.TID 0000.0001) %MON exf_ustress_mean             =   1.7912602833757E-02
(PID.TID 0000.0001) %MON exf_ustress_sd               =   2.3689566701864E-02
(PID.TID 0000.0001) %MON exf_ustress_del2             =   2.8175390184118E-03
(PID.TID 0000.0001) %MON exf_vstress_max              =   5.3825403016462E-02
(PID.TID 0000.0001) %MON exf_vstress_min              =  -5.8501907463670E-02
(PID.TID 0000.0001) %MON exf_vstress_mean             =  -5.4571894771090E-03
(PID.TID 0000.0001) %MON exf_vstress_sd               =   1.4439148783740E-02
(PID.TID 0000.0001) %MON exf_vstress_del2             =   1.6937326092935E-03
(PID.TID 0000.0001) %MON exf_hflux_max                =   6.2473671698450E+02
(PID.TID 0000.0001) %MON exf_hflux_min                =  -5.1856944043789E+01
(PID.TID 0000.0001) %MON exf_hflux_mean               =   1.4603892063602E+02
(PID.TID 0000.0001) %MON exf_hflux_sd                 =   1.8006278490683E+02
(PID.TID 0000.0001) %MON exf_hflux_del2               =   1.6304064602313E+01
(PID.TID 0000.0001) %MON exf_sflux_max                =   3.9010172880204E-08
(PID.TID 0000.0001) %MON exf_sflux_min                =  -8.8920778732677E-08
(PID.TID 0000.0001) %MON exf_sflux_mean               =  -2.5980919502074E-08
(PID.TID 0000.0001) %MON exf_sflux_sd                 =   3.0374070281473E-08
(PID.TID 0000.0001) %MON exf_sflux_del2               =   3.1602146903807E-09
(PID.TID 0000.0001) %MON exf_uwind_max                =   6.4653894471340E+00
(PID.TID 0000.0001) %MON exf_uwind_min                =  -6.8372916367536E+00
(PID.TID 0000.0001) %MON exf_uwind_mean               =   2.7699878382920E+00
(PID.TID 0000.0001) %MON exf_uwind_sd                 =   2.9905922217476E+00
(PID.TID 0000.0001) %MON exf_uwind_del2               =   3.1572575583776E-01
(PID.TID 0000.0001) %MON exf_vwind_max                =   3.9241285741003E+00
(PID.TID 0000.0001) %MON exf_vwind_min                =  -6.0178915685643E+00
(PID.TID 0000.0001) %MON exf_vwind_mean               =  -7.5966313506940E-01
(PID.TID 0000.0001) %MON exf_vwind_sd                 =   1.7295599554900E+00
(PID.TID 0000.0001) %MON exf_vwind_del2               =   1.9331889614049E-01
(PID.TID 0000.0001) %MON exf_wspeed_max               =   7.8833585477315E+00
(PID.TID 0000.0001) %MON exf_wspeed_min               =   4.5986651533145E-01
(PID.TID 0000.0001) %MON exf_wspeed_mean              =   4.1983267266652E+00
(PID.TID 0000.0001) %MON exf_wspeed_sd                =   1.5996852426804E+00
(PID.TID 0000.0001) %MON exf_wspeed_del2              =   3.7704333058266E-01
(PID.TID 0000.0001) %MON exf_atemp_max                =   2.8187938819427E+02
(PID.TID 0000.0001) %MON exf_atemp_min                =   2.3645283916869E+02
(PID.TID 0000.0001) %MON exf_atemp_mean               =   2.6393676967070E+02
(PID.TID 0000.0001) %MON exf_atemp_sd                 =   1.1986339246462E+01
(PID.TID 0000.0001) %MON exf_atemp_del2               =   6.4946142589242E-01
(PID.TID 0000.0001) %MON exf_aqh_max                  =   6.3217798619445E-03
(PID.TID 0000.0001) %MON exf_aqh_min                  =   1.6350454117726E-04
(PID.TID 0000.0001) %MON exf_aqh_mean                 =   2.4792421973794E-03
(PID.TID 0000.0001) %MON exf_aqh_sd                   =   1.4263013062694E-03
(PID.TID 0000.0001) %MON exf_aqh_del2                 =   6.8114445477348E-05
(PID.TID 0000.0001) %MON exf_lwflux_max               =   1.8153743597504E+02
(PID.TID 0000.0001) %MON exf_lwflux_min               =   2.6999313161451E+01
(PID.TID 0000.0001) %MON exf_lwflux_mean              =   7.5148003035461E+01
(PID.TID 0000.0001) %MON exf_lwflux_sd                =   4.2803183326180E+01
(PID.TID 0000.0001) %MON exf_lwflux_del2              =   3.2353096159738E+00
(PID.TID 0000.0001) %MON exf_precip_max               =   1.0499042589295E-07
(PID.TID 0000.0001) %MON exf_precip_min               =   2.7332713399833E-10
(PID.TID 0000.0001) %MON exf_precip_mean              =   3.6390058855016E-08
(PID.TID 0000.0001) %MON exf_precip_sd                =   2.0579049691733E-08
(PID.TID 0000.0001) %MON exf_precip_del2              =   2.5562103721225E-09
(PID.TID 0000.0001) %MON exf_snowprecip_max           =   0.0000000000000E+00
(PID.TID 0000.0001) %MON exf_snowprecip_min           =   0.0000000000000E+00
(PID.TID 0000.0001) %MON exf_snowprecip_mean          =   0.0000000000000E+00
(PID.TID 0000.0001) %MON exf_snowprecip_sd            =   0.0000000000000E+00
(PID.TID 0000.0001) %MON exf_snowprecip_del2          =   0.0000000000000E+00
(PID.TID 0000.0001) %MON exf_swflux_max               =  -8.1206321227746E-02
(PID.TID 0000.0001) %MON exf_swflux_min               =  -6.4010854714816E+01
(PID.TID 0000.0001) %MON exf_swflux_mean              =  -2.6474287454698E+01
(PID.TID 0000.0001) %MON exf_swflux_sd                =   1.9633572905820E+01
(PID.TID 0000.0001) %MON exf_swflux_del2              =   4.7922651344477E-01
(PID.TID 0000.0001) %MON exf_evap_max                 =   4.5333055282436E-08
(PID.TID 0000.0001) %MON exf_evap_min                 =  -4.3262573270113E-09
(PID.TID 0000.0001) %MON exf_evap_mean                =   1.0409139352942E-08
(PID.TID 0000.0001) %MON exf_evap_sd                  =   1.1101640257605E-08
(PID.TID 0000.0001) %MON exf_evap_del2                =   1.3339356630849E-09
(PID.TID 0000.0001) %MON exf_swdown_max               =   7.1123171905351E+01
(PID.TID 0000.0001) %MON exf_swdown_min               =   9.0229245808607E-02
(PID.TID 0000.0001) %MON exf_swdown_mean              =   2.9415874949665E+01
(PID.TID 0000.0001) %MON exf_swdown_sd                =   2.1815081006466E+01
(PID.TID 0000.0001) %MON exf_swdown_del2              =   5.3247390382752E-01
(PID.TID 0000.0001) %MON exf_lwdown_max               =   3.0566206584993E+02
(PID.TID 0000.0001) %MON exf_lwdown_min               =   1.1596747835086E+02
(PID.TID 0000.0001) %MON exf_lwdown_mean              =   2.2591790230100E+02
(PID.TID 0000.0001) %MON exf_lwdown_sd                =   4.6285369157136E+01
(PID.TID 0000.0001) %MON exf_lwdown_del2              =   3.2438445768374E+00
(PID.TID 0000.0001) %MON exf_apressure_max            =   0.0000000000000E+00
(PID.TID 0000.0001) %MON exf_apressure_min            =   0.0000000000000E+00
(PID.TID 0000.0001) %MON exf_apressure_mean           =   0.0000000000000E+00
(PID.TID 0000.0001) %MON exf_apressure_sd             =   0.0000000000000E+00
(PID.TID 0000.0001) %MON exf_apressure_del2           =   0.0000000000000E+00
(PID.TID 0000.0001) %MON exf_runoff_max               =   0.0000000000000E+00
(PID.TID 0000.0001) %MON exf_runoff_min               =   0.0000000000000E+00
(PID.TID 0000.0001) %MON exf_runoff_mean              =   0.0000000000000E+00
(PID.TID 0000.0001) %MON exf_runoff_sd                =   0.0000000000000E+00
(PID.TID 0000.0001) %MON exf_runoff_del2              =   0.0000000000000E+00
(PID.TID 0000.0001) %MON exf_climsst_max              =   0.0000000000000E+00
(PID.TID 0000.0001) %MON exf_climsst_min              =   0.0000000000000E+00
(PID.TID 0000.0001) %MON exf_climsst_mean             =   0.0000000000000E+00
(PID.TID 0000.0001) %MON exf_climsst_sd               =   0.0000000000000E+00
(PID.TID 0000.0001) %MON exf_climsst_del2             =   0.0000000000000E+00
(PID.TID 0000.0001) %MON exf_climsss_max              =   3.5040700380919E+01
(PID.TID 0000.0001) %MON exf_climsss_min              =   3.0667831827383E+01
(PID.TID 0000.0001) %MON exf_climsss_mean             =   3.3460362267948E+01
(PID.TID 0000.0001) %MON exf_climsss_sd               =   1.0318117788237E+00
(PID.TID 0000.0001) %MON exf_climsss_del2             =   1.0015950288060E-01
(PID.TID 0000.0001) // =======================================================
(PID.TID 0000.0001) // End MONITOR EXF statistics
(PID.TID 0000.0001) // =======================================================
 ph-ice B  2  0.  0.  0.
 ph-ice C  2  1.54286126E+11
 cg2d: Sum(rhs),rhsMax =  -4.69102350714179E-10  1.21345933320236E+00
(PID.TID 0000.0001) // =======================================================
(PID.TID 0000.0001) // Begin MONITOR SEAICE statistics
(PID.TID 0000.0001) // =======================================================
(PID.TID 0000.0001) %MON seaice_tsnumber              =                     3
(PID.TID 0000.0001) %MON seaice_time_sec              =   1.0800000000000E+04
(PID.TID 0000.0001) %MON seaice_uice_max              =   1.7677554873066E-01
(PID.TID 0000.0001) %MON seaice_uice_min              =  -9.9473388719800E-02
(PID.TID 0000.0001) %MON seaice_uice_mean             =   7.5385002134152E-02
(PID.TID 0000.0001) %MON seaice_uice_sd               =   7.1157132925500E-02
(PID.TID 0000.0001) %MON seaice_uice_del2             =   8.3170550197998E-03
(PID.TID 0000.0001) %MON seaice_vice_max              =   8.9019951763650E-02
(PID.TID 0000.0001) %MON seaice_vice_min              =  -1.7696029803923E-01
(PID.TID 0000.0001) %MON seaice_vice_mean             =  -2.9256776467238E-02
(PID.TID 0000.0001) %MON seaice_vice_sd               =   5.2264404142873E-02
(PID.TID 0000.0001) %MON seaice_vice_del2             =   6.1178194889854E-03
(PID.TID 0000.0001) %MON seaice_area_max              =   1.0000000000000E+00
(PID.TID 0000.0001) %MON seaice_area_min              =   0.0000000000000E+00
(PID.TID 0000.0001) %MON seaice_area_mean             =   6.2473165128378E-01
(PID.TID 0000.0001) %MON seaice_area_sd               =   4.5913418284737E-01
(PID.TID 0000.0001) %MON seaice_area_del2             =   5.3480662075854E-02
(PID.TID 0000.0001) %MON seaice_heff_max              =   5.5368221576291E-01
(PID.TID 0000.0001) %MON seaice_heff_min              =   0.0000000000000E+00
(PID.TID 0000.0001) %MON seaice_heff_mean             =   1.4210539863367E-01
(PID.TID 0000.0001) %MON seaice_heff_sd               =   1.7434508667247E-01
(PID.TID 0000.0001) %MON seaice_heff_del2             =   1.3231250044035E-02
(PID.TID 0000.0001) %MON seaice_hsnow_max             =   2.0235454638389E-01
(PID.TID 0000.0001) %MON seaice_hsnow_min             =   0.0000000000000E+00
(PID.TID 0000.0001) %MON seaice_hsnow_mean            =   1.1801725658723E-01
(PID.TID 0000.0001) %MON seaice_hsnow_sd              =   9.6786605530350E-02
(PID.TID 0000.0001) %MON seaice_hsnow_del2            =   6.3531464967009E-03
(PID.TID 0000.0001) // =======================================================
(PID.TID 0000.0001) // End MONITOR SEAICE statistics
(PID.TID 0000.0001) // =======================================================
(PID.TID 0000.0001) // =======================================================
(PID.TID 0000.0001) // Begin MONITOR EXF statistics
(PID.TID 0000.0001) // =======================================================
(PID.TID 0000.0001) %MON exf_tsnumber                 =                     3
(PID.TID 0000.0001) %MON exf_time_sec                 =   1.0800000000000E+04
(PID.TID 0000.0001) %MON exf_ustress_max              =   5.2220278364572E-02
(PID.TID 0000.0001) %MON exf_ustress_min              =  -9.3786644941843E-02
(PID.TID 0000.0001) %MON exf_ustress_mean             =   1.7925095706550E-02
(PID.TID 0000.0001) %MON exf_ustress_sd               =   2.3700143525746E-02
(PID.TID 0000.0001) %MON exf_ustress_del2             =   2.8158746957697E-03
(PID.TID 0000.0001) %MON exf_vstress_max              =   5.3827196762903E-02
(PID.TID 0000.0001) %MON exf_vstress_min              =  -5.8480358160305E-02
(PID.TID 0000.0001) %MON exf_vstress_mean             =  -5.4532182115270E-03
(PID.TID 0000.0001) %MON exf_vstress_sd               =   1.4440792530157E-02
(PID.TID 0000.0001) %MON exf_vstress_del2             =   1.6929393308108E-03
(PID.TID 0000.0001) %MON exf_hflux_max                =   6.2482499785037E+02
(PID.TID 0000.0001) %MON exf_hflux_min                =  -5.1652096229497E+01
(PID.TID 0000.0001) %MON exf_hflux_mean               =   1.4608871041864E+02
(PID.TID 0000.0001) %MON exf_hflux_sd                 =   1.8003233595359E+02
(PID.TID 0000.0001) %MON exf_hflux_del2               =   1.6307605461400E+01
(PID.TID 0000.0001) %MON exf_sflux_max                =   3.9014761130189E-08
(PID.TID 0000.0001) %MON exf_sflux_min                =  -8.8949891199064E-08
(PID.TID 0000.0001) %MON exf_sflux_mean               =  -2.5974537170783E-08
(PID.TID 0000.0001) %MON exf_sflux_sd                 =   3.0366720984824E-08
(PID.TID 0000.0001) %MON exf_sflux_del2               =   3.1622834204673E-09
(PID.TID 0000.0001) %MON exf_uwind_max                =   6.4658968995829E+00
(PID.TID 0000.0001) %MON exf_uwind_min                =  -6.8373184184559E+00
(PID.TID 0000.0001) %MON exf_uwind_mean               =   2.7700953906364E+00
(PID.TID 0000.0001) %MON exf_uwind_sd                 =   2.9908682681638E+00
(PID.TID 0000.0001) %MON exf_uwind_del2               =   3.1573366006031E-01
(PID.TID 0000.0001) %MON exf_vwind_max                =   3.9241587548959E+00
(PID.TID 0000.0001) %MON exf_vwind_min                =  -6.0169856587394E+00
(PID.TID 0000.0001) %MON exf_vwind_mean               =  -7.5904536197929E-01
(PID.TID 0000.0001) %MON exf_vwind_sd                 =   1.7296682234552E+00
(PID.TID 0000.0001) %MON exf_vwind_del2               =   1.9331202479855E-01
(PID.TID 0000.0001) %MON exf_wspeed_max               =   7.8833967989048E+00
(PID.TID 0000.0001) %MON exf_wspeed_min               =   4.5962367887737E-01
(PID.TID 0000.0001) %MON exf_wspeed_mean              =   4.1984294286706E+00
(PID.TID 0000.0001) %MON exf_wspeed_sd                =   1.5999418201857E+00
(PID.TID 0000.0001) %MON exf_wspeed_del2              =   3.7709664625274E-01
(PID.TID 0000.0001) %MON exf_atemp_max                =   2.8187767604140E+02
(PID.TID 0000.0001) %MON exf_atemp_min                =   2.3644837420104E+02
(PID.TID 0000.0001) %MON exf_atemp_mean               =   2.6393212558534E+02
(PID.TID 0000.0001) %MON exf_atemp_sd                 =   1.1987800753926E+01
(PID.TID 0000.0001) %MON exf_atemp_del2               =   6.4948075883375E-01
(PID.TID 0000.0001) %MON exf_aqh_max                  =   6.3210833210834E-03
(PID.TID 0000.0001) %MON exf_aqh_min                  =   1.6341043767886E-04
(PID.TID 0000.0001) %MON exf_aqh_mean                 =   2.4786818409748E-03
(PID.TID 0000.0001) %MON exf_aqh_sd                   =   1.4261982746893E-03
(PID.TID 0000.0001) %MON exf_aqh_del2                 =   6.8100777916201E-05
(PID.TID 0000.0001) %MON exf_lwflux_max               =   1.8153866759519E+02
(PID.TID 0000.0001) %MON exf_lwflux_min               =   2.7117659269148E+01
(PID.TID 0000.0001) %MON exf_lwflux_mean              =   7.5167336267018E+01
(PID.TID 0000.0001) %MON exf_lwflux_sd                =   4.2791334919690E+01
(PID.TID 0000.0001) %MON exf_lwflux_del2              =   3.2353470329106E+00
(PID.TID 0000.0001) %MON exf_precip_max               =   1.0499180733557E-07
(PID.TID 0000.0001) %MON exf_precip_min               =   2.7319320752566E-10
(PID.TID 0000.0001) %MON exf_precip_mean              =   3.6390048010982E-08
(PID.TID 0000.0001) %MON exf_precip_sd                =   2.0579501435483E-08
(PID.TID 0000.0001) %MON exf_precip_del2              =   2.5567380653122E-09
(PID.TID 0000.0001) %MON exf_snowprecip_max           =   0.0000000000000E+00
(PID.TID 0000.0001) %MON exf_snowprecip_min           =   0.0000000000000E+00
(PID.TID 0000.0001) %MON exf_snowprecip_mean          =   0.0000000000000E+00
(PID.TID 0000.0001) %MON exf_snowprecip_sd            =   0.0000000000000E+00
(PID.TID 0000.0001) %MON exf_snowprecip_del2          =   0.0000000000000E+00
(PID.TID 0000.0001) %MON exf_swflux_max               =  -8.1206604105527E-02
(PID.TID 0000.0001) %MON exf_swflux_min               =  -6.4029725065388E+01
(PID.TID 0000.0001) %MON exf_swflux_mean              =  -2.6484819670573E+01
(PID.TID 0000.0001) %MON exf_swflux_sd                =   1.9637409707136E+01
(PID.TID 0000.0001) %MON exf_swflux_del2              =   4.7933338739073E-01
(PID.TID 0000.0001) %MON exf_evap_max                 =   4.5336980821491E-08
(PID.TID 0000.0001) %MON exf_evap_min                 =  -4.2852111092977E-09
(PID.TID 0000.0001) %MON exf_evap_mean                =   1.0415510840199E-08
(PID.TID 0000.0001) %MON exf_evap_sd                  =   1.1091288891026E-08
(PID.TID 0000.0001) %MON exf_evap_del2                =   1.3330271329587E-09
(PID.TID 0000.0001) %MON exf_swdown_max               =   7.1144138961542E+01
(PID.TID 0000.0001) %MON exf_swdown_min               =   9.0229560117253E-02
(PID.TID 0000.0001) %MON exf_swdown_mean              =   2.9427577411748E+01
(PID.TID 0000.0001) %MON exf_swdown_sd                =   2.1819344119040E+01
(PID.TID 0000.0001) %MON exf_swdown_del2              =   5.3259265265636E-01
(PID.TID 0000.0001) %MON exf_lwdown_max               =   3.0565323976611E+02
(PID.TID 0000.0001) %MON exf_lwdown_min               =   1.1595237147222E+02
(PID.TID 0000.0001) %MON exf_lwdown_mean              =   2.2590219497194E+02
(PID.TID 0000.0001) %MON exf_lwdown_sd                =   4.6289340871590E+01
(PID.TID 0000.0001) %MON exf_lwdown_del2              =   3.2438562169101E+00
(PID.TID 0000.0001) %MON exf_apressure_max            =   0.0000000000000E+00
(PID.TID 0000.0001) %MON exf_apressure_min            =   0.0000000000000E+00
(PID.TID 0000.0001) %MON exf_apressure_mean           =   0.0000000000000E+00
(PID.TID 0000.0001) %MON exf_apressure_sd             =   0.0000000000000E+00
(PID.TID 0000.0001) %MON exf_apressure_del2           =   0.0000000000000E+00
(PID.TID 0000.0001) %MON exf_runoff_max               =   0.0000000000000E+00
(PID.TID 0000.0001) %MON exf_runoff_min               =   0.0000000000000E+00
(PID.TID 0000.0001) %MON exf_runoff_mean              =   0.0000000000000E+00
(PID.TID 0000.0001) %MON exf_runoff_sd                =   0.0000000000000E+00
(PID.TID 0000.0001) %MON exf_runoff_del2              =   0.0000000000000E+00
(PID.TID 0000.0001) %MON exf_climsst_max              =   0.0000000000000E+00
(PID.TID 0000.0001) %MON exf_climsst_min              =   0.0000000000000E+00
(PID.TID 0000.0001) %MON exf_climsst_mean             =   0.0000000000000E+00
(PID.TID 0000.0001) %MON exf_climsst_sd               =   0.0000000000000E+00
(PID.TID 0000.0001) %MON exf_climsst_del2             =   0.0000000000000E+00
(PID.TID 0000.0001) %MON exf_climsss_max              =   3.5040885127959E+01
(PID.TID 0000.0001) %MON exf_climsss_min              =   3.0668591155380E+01
(PID.TID 0000.0001) %MON exf_climsss_mean             =   3.3460883601427E+01
(PID.TID 0000.0001) %MON exf_climsss_sd               =   1.0317405668875E+00
(PID.TID 0000.0001) %MON exf_climsss_del2             =   1.0014227359021E-01
(PID.TID 0000.0001) // =======================================================
(PID.TID 0000.0001) // End MONITOR EXF statistics
(PID.TID 0000.0001) // =======================================================
 ph-ice B  3  0.  0.  0.
 ph-ice C  3  2.0493353E+11
 cg2d: Sum(rhs),rhsMax =   3.25075259870189E-08  1.21053584963592E+00
(PID.TID 0000.0001) // =======================================================
(PID.TID 0000.0001) // Begin MONITOR SEAICE statistics
(PID.TID 0000.0001) // =======================================================
(PID.TID 0000.0001) %MON seaice_tsnumber              =                     4
(PID.TID 0000.0001) %MON seaice_time_sec              =   1.4400000000000E+04
(PID.TID 0000.0001) %MON seaice_uice_max              =   2.0410589049012E-01
(PID.TID 0000.0001) %MON seaice_uice_min              =  -1.0820664027344E-01
(PID.TID 0000.0001) %MON seaice_uice_mean             =   8.1218833503216E-02
(PID.TID 0000.0001) %MON seaice_uice_sd               =   7.8521023636248E-02
(PID.TID 0000.0001) %MON seaice_uice_del2             =   9.4129548163230E-03
(PID.TID 0000.0001) %MON seaice_vice_max              =   9.9288343326873E-02
(PID.TID 0000.0001) %MON seaice_vice_min              =  -1.9612309364105E-01
(PID.TID 0000.0001) %MON seaice_vice_mean             =  -3.7794416141245E-02
(PID.TID 0000.0001) %MON seaice_vice_sd               =   6.1057438101180E-02
(PID.TID 0000.0001) %MON seaice_vice_del2             =   6.9481562975607E-03
(PID.TID 0000.0001) %MON seaice_area_max              =   1.0000000000000E+00
(PID.TID 0000.0001) %MON seaice_area_min              =   0.0000000000000E+00
(PID.TID 0000.0001) %MON seaice_area_mean             =   6.2448964133970E-01
(PID.TID 0000.0001) %MON seaice_area_sd               =   4.5884276157094E-01
(PID.TID 0000.0001) %MON seaice_area_del2             =   5.3567607319525E-02
(PID.TID 0000.0001) %MON seaice_heff_max              =   5.5146835059086E-01
(PID.TID 0000.0001) %MON seaice_heff_min              =   0.0000000000000E+00
(PID.TID 0000.0001) %MON seaice_heff_mean             =   1.4217098028130E-01
(PID.TID 0000.0001) %MON seaice_heff_sd               =   1.7417998529713E-01
(PID.TID 0000.0001) %MON seaice_heff_del2             =   1.3240081984540E-02
(PID.TID 0000.0001) %MON seaice_hsnow_max             =   2.0313961711978E-01
(PID.TID 0000.0001) %MON seaice_hsnow_min             =   0.0000000000000E+00
(PID.TID 0000.0001) %MON seaice_hsnow_mean            =   1.1810788894706E-01
(PID.TID 0000.0001) %MON seaice_hsnow_sd              =   9.6917239052165E-02
(PID.TID 0000.0001) %MON seaice_hsnow_del2            =   6.4249667980587E-03
(PID.TID 0000.0001) // =======================================================
(PID.TID 0000.0001) // End MONITOR SEAICE statistics
(PID.TID 0000.0001) // =======================================================
(PID.TID 0000.0001) // =======================================================
(PID.TID 0000.0001) // Begin MONITOR EXF statistics
(PID.TID 0000.0001) // =======================================================
(PID.TID 0000.0001) %MON exf_tsnumber                 =                     4
(PID.TID 0000.0001) %MON exf_time_sec                 =   1.4400000000000E+04
(PID.TID 0000.0001) %MON exf_ustress_max              =   5.2222749041047E-02
(PID.TID 0000.0001) %MON exf_ustress_min              =  -9.3790194486454E-02
(PID.TID 0000.0001) %MON exf_ustress_mean             =   1.7935663542792E-02
(PID.TID 0000.0001) %MON exf_ustress_sd               =   2.3707712217300E-02
(PID.TID 0000.0001) %MON exf_ustress_del2             =   2.8164273315623E-03
(PID.TID 0000.0001) %MON exf_vstress_max              =   5.3829437114216E-02
(PID.TID 0000.0001) %MON exf_vstress_min              =  -5.8464476572386E-02
(PID.TID 0000.0001) %MON exf_vstress_mean             =  -5.4495374972859E-03
(PID.TID 0000.0001) %MON exf_vstress_sd               =   1.4442680552587E-02
(PID.TID 0000.0001) %MON exf_vstress_del2             =   1.6931341919101E-03
(PID.TID 0000.0001) %MON exf_hflux_max                =   6.2496267398705E+02
(PID.TID 0000.0001) %MON exf_hflux_min                =  -5.1565362852432E+01
(PID.TID 0000.0001) %MON exf_hflux_mean               =   1.4615660949802E+02
(PID.TID 0000.0001) %MON exf_hflux_sd                 =   1.8002235455283E+02
(PID.TID 0000.0001) %MON exf_hflux_del2               =   1.6301998341543E+01
(PID.TID 0000.0001) %MON exf_sflux_max                =   3.9025647077273E-08
(PID.TID 0000.0001) %MON exf_sflux_min                =  -8.8952139751954E-08
(PID.TID 0000.0001) %MON exf_sflux_mean               =  -2.5966971349078E-08
(PID.TID 0000.0001) %MON exf_sflux_sd                 =   3.0361915148423E-08
(PID.TID 0000.0001) %MON exf_sflux_del2               =   3.1623401285964E-09
(PID.TID 0000.0001) %MON exf_uwind_max                =   6.4664043520318E+00
(PID.TID 0000.0001) %MON exf_uwind_min                =  -6.8373452001582E+00
(PID.TID 0000.0001) %MON exf_uwind_mean               =   2.7702029429808E+00
(PID.TID 0000.0001) %MON exf_uwind_sd                 =   2.9911443548250E+00
(PID.TID 0000.0001) %MON exf_uwind_del2               =   3.1574156428286E-01
(PID.TID 0000.0001) %MON exf_vwind_max                =   3.9241889356915E+00
(PID.TID 0000.0001) %MON exf_vwind_min                =  -6.0160797489145E+00
(PID.TID 0000.0001) %MON exf_vwind_mean               =  -7.5842758888917E-01
(PID.TID 0000.0001) %MON exf_vwind_sd                 =   1.7297766046368E+00
(PID.TID 0000.0001) %MON exf_vwind_del2               =   1.9330515345662E-01
(PID.TID 0000.0001) %MON exf_wspeed_max               =   7.8834350500991E+00
(PID.TID 0000.0001) %MON exf_wspeed_min               =   4.5938084481311E-01
(PID.TID 0000.0001) %MON exf_wspeed_mean              =   4.1985322596174E+00
(PID.TID 0000.0001) %MON exf_wspeed_sd                =   1.6001985099325E+00
(PID.TID 0000.0001) %MON exf_wspeed_del2              =   3.7714995543655E-01
(PID.TID 0000.0001) %MON exf_atemp_max                =   2.8187596388853E+02
(PID.TID 0000.0001) %MON exf_atemp_min                =   2.3644390923339E+02
(PID.TID 0000.0001) %MON exf_atemp_mean               =   2.6392748149999E+02
(PID.TID 0000.0001) %MON exf_atemp_sd                 =   1.1989262748844E+01
(PID.TID 0000.0001) %MON exf_atemp_del2               =   6.4950009177509E-01
(PID.TID 0000.0001) %MON exf_aqh_max                  =   6.3203867802223E-03
(PID.TID 0000.0001) %MON exf_aqh_min                  =   1.6331633418045E-04
(PID.TID 0000.0001) %MON exf_aqh_mean                 =   2.4781214845702E-03
(PID.TID 0000.0001) %MON exf_aqh_sd                   =   1.4260952789855E-03
(PID.TID 0000.0001) %MON exf_aqh_del2                 =   6.8087110355054E-05
(PID.TID 0000.0001) %MON exf_lwflux_max               =   1.8154800702574E+02
(PID.TID 0000.0001) %MON exf_lwflux_min               =   2.7104463755682E+01
(PID.TID 0000.0001) %MON exf_lwflux_mean              =   7.5190183474556E+01
(PID.TID 0000.0001) %MON exf_lwflux_sd                =   4.2783226616351E+01
(PID.TID 0000.0001) %MON exf_lwflux_del2              =   3.2333536706417E+00
(PID.TID 0000.0001) %MON exf_precip_max               =   1.0499318877820E-07
(PID.TID 0000.0001) %MON exf_precip_min               =   2.7305928105298E-10
(PID.TID 0000.0001) %MON exf_precip_mean              =   3.6390037166947E-08
(PID.TID 0000.0001) %MON exf_precip_sd                =   2.0579953834835E-08
(PID.TID 0000.0001) %MON exf_precip_del2              =   2.5572657585019E-09
(PID.TID 0000.0001) %MON exf_snowprecip_max           =   0.0000000000000E+00
(PID.TID 0000.0001) %MON exf_snowprecip_min           =   0.0000000000000E+00
(PID.TID 0000.0001) %MON exf_snowprecip_mean          =   0.0000000000000E+00
(PID.TID 0000.0001) %MON exf_snowprecip_sd            =   0.0000000000000E+00
(PID.TID 0000.0001) %MON exf_snowprecip_del2          =   0.0000000000000E+00
(PID.TID 0000.0001) %MON exf_swflux_max               =  -8.1206886983309E-02
(PID.TID 0000.0001) %MON exf_swflux_min               =  -6.4048595415960E+01
(PID.TID 0000.0001) %MON exf_swflux_mean              =  -2.6495351886448E+01
(PID.TID 0000.0001) %MON exf_swflux_sd                =   1.9641247100083E+01
(PID.TID 0000.0001) %MON exf_swflux_del2              =   4.7944026133668E-01
(PID.TID 0000.0001) %MON exf_evap_max                 =   4.5347204057645E-08
(PID.TID 0000.0001) %MON exf_evap_min                 =  -4.2663929306065E-09
(PID.TID 0000.0001) %MON exf_evap_mean                =   1.0423065817870E-08
(PID.TID 0000.0001) %MON exf_evap_sd                  =   1.1085437770397E-08
(PID.TID 0000.0001) %MON exf_evap_del2                =   1.3323750873132E-09
(PID.TID 0000.0001) %MON exf_swdown_max               =   7.1165106017733E+01
(PID.TID 0000.0001) %MON exf_swdown_min               =   9.0229874425898E-02
(PID.TID 0000.0001) %MON exf_swdown_mean              =   2.9439279873831E+01
(PID.TID 0000.0001) %MON exf_swdown_sd                =   2.1823607888981E+01
(PID.TID 0000.0001) %MON exf_swdown_del2              =   5.3271140148521E-01
(PID.TID 0000.0001) %MON exf_lwdown_max               =   3.0564441368228E+02
(PID.TID 0000.0001) %MON exf_lwdown_min               =   1.1593726459357E+02
(PID.TID 0000.0001) %MON exf_lwdown_mean              =   2.2588648764287E+02
(PID.TID 0000.0001) %MON exf_lwdown_sd                =   4.6293313753333E+01
(PID.TID 0000.0001) %MON exf_lwdown_del2              =   3.2438678569828E+00
(PID.TID 0000.0001) %MON exf_apressure_max            =   0.0000000000000E+00
(PID.TID 0000.0001) %MON exf_apressure_min            =   0.0000000000000E+00
(PID.TID 0000.0001) %MON exf_apressure_mean           =   0.0000000000000E+00
(PID.TID 0000.0001) %MON exf_apressure_sd             =   0.0000000000000E+00
(PID.TID 0000.0001) %MON exf_apressure_del2           =   0.0000000000000E+00
(PID.TID 0000.0001) %MON exf_runoff_max               =   0.0000000000000E+00
(PID.TID 0000.0001) %MON exf_runoff_min               =   0.0000000000000E+00
(PID.TID 0000.0001) %MON exf_runoff_mean              =   0.0000000000000E+00
(PID.TID 0000.0001) %MON exf_runoff_sd                =   0.0000000000000E+00
(PID.TID 0000.0001) %MON exf_runoff_del2              =   0.0000000000000E+00
(PID.TID 0000.0001) %MON exf_climsst_max              =   0.0000000000000E+00
(PID.TID 0000.0001) %MON exf_climsst_min              =   0.0000000000000E+00
(PID.TID 0000.0001) %MON exf_climsst_mean             =   0.0000000000000E+00
(PID.TID 0000.0001) %MON exf_climsst_sd               =   0.0000000000000E+00
(PID.TID 0000.0001) %MON exf_climsst_del2             =   0.0000000000000E+00
(PID.TID 0000.0001) %MON exf_climsss_max              =   3.5041069874998E+01
(PID.TID 0000.0001) %MON exf_climsss_min              =   3.0669350483378E+01
(PID.TID 0000.0001) %MON exf_climsss_mean             =   3.3461404934907E+01
(PID.TID 0000.0001) %MON exf_climsss_sd               =   1.0316695849659E+00
(PID.TID 0000.0001) %MON exf_climsss_del2             =   1.0012504429982E-01
(PID.TID 0000.0001) // =======================================================
(PID.TID 0000.0001) // End MONITOR EXF statistics
(PID.TID 0000.0001) // =======================================================
 ph-ice B  4  0.  0.  0.
 ph-ice C  4  2.55604433E+11
 cg2d: Sum(rhs),rhsMax =   3.22655405379790E-08  1.20538351326606E+00
(PID.TID 0000.0001) // =======================================================
(PID.TID 0000.0001) // Begin MONITOR SEAICE statistics
(PID.TID 0000.0001) // =======================================================
(PID.TID 0000.0001) %MON seaice_tsnumber              =                     5
(PID.TID 0000.0001) %MON seaice_time_sec              =   1.8000000000000E+04
(PID.TID 0000.0001) %MON seaice_uice_max              =   2.1945387278073E-01
(PID.TID 0000.0001) %MON seaice_uice_min              =  -1.0939009902186E-01
(PID.TID 0000.0001) %MON seaice_uice_mean             =   8.3081274324015E-02
(PID.TID 0000.0001) %MON seaice_uice_sd               =   8.3462882724915E-02
(PID.TID 0000.0001) %MON seaice_uice_del2             =   1.0024723364688E-02
(PID.TID 0000.0001) %MON seaice_vice_max              =   1.0086664481374E-01
(PID.TID 0000.0001) %MON seaice_vice_min              =  -1.9808188880879E-01
(PID.TID 0000.0001) %MON seaice_vice_mean             =  -4.6968653010694E-02
(PID.TID 0000.0001) %MON seaice_vice_sd               =   6.7920791214941E-02
(PID.TID 0000.0001) %MON seaice_vice_del2             =   7.5957084986046E-03
(PID.TID 0000.0001) %MON seaice_area_max              =   1.0000000000000E+00
(PID.TID 0000.0001) %MON seaice_area_min              =   0.0000000000000E+00
(PID.TID 0000.0001) %MON seaice_area_mean             =   6.2430150051055E-01
(PID.TID 0000.0001) %MON seaice_area_sd               =   4.5848056987791E-01
(PID.TID 0000.0001) %MON seaice_area_del2             =   5.3615010685217E-02
(PID.TID 0000.0001) %MON seaice_heff_max              =   5.4903937822394E-01
(PID.TID 0000.0001) %MON seaice_heff_min              =   0.0000000000000E+00
(PID.TID 0000.0001) %MON seaice_heff_mean             =   1.4223694277275E-01
(PID.TID 0000.0001) %MON seaice_heff_sd               =   1.7414926032458E-01
(PID.TID 0000.0001) %MON seaice_heff_del2             =   1.3251391165383E-02
(PID.TID 0000.0001) %MON seaice_hsnow_max             =   2.0392476353420E-01
(PID.TID 0000.0001) %MON seaice_hsnow_min             =   0.0000000000000E+00
(PID.TID 0000.0001) %MON seaice_hsnow_mean            =   1.1825099134585E-01
(PID.TID 0000.0001) %MON seaice_hsnow_sd              =   9.7044356048364E-02
(PID.TID 0000.0001) %MON seaice_hsnow_del2            =   6.4762509698941E-03
(PID.TID 0000.0001) // =======================================================
(PID.TID 0000.0001) // End MONITOR SEAICE statistics
(PID.TID 0000.0001) // =======================================================
(PID.TID 0000.0001) // =======================================================
(PID.TID 0000.0001) // Begin MONITOR EXF statistics
(PID.TID 0000.0001) // =======================================================
(PID.TID 0000.0001) %MON exf_tsnumber                 =                     5
(PID.TID 0000.0001) %MON exf_time_sec                 =   1.8000000000000E+04
(PID.TID 0000.0001) %MON exf_ustress_max              =   5.2230884117586E-02
(PID.TID 0000.0001) %MON exf_ustress_min              =  -9.3792692313509E-02
(PID.TID 0000.0001) %MON exf_ustress_mean             =   1.7944940093883E-02
(PID.TID 0000.0001) %MON exf_ustress_sd               =   2.3713963571757E-02
(PID.TID 0000.0001) %MON exf_ustress_del2             =   2.8173052338397E-03
(PID.TID 0000.0001) %MON exf_vstress_max              =   5.3831073859948E-02
(PID.TID 0000.0001) %MON exf_vstress_min              =  -5.8456785540535E-02
(PID.TID 0000.0001) %MON exf_vstress_mean             =  -5.4464512858083E-03
(PID.TID 0000.0001) %MON exf_vstress_sd               =   1.4444944996378E-02
(PID.TID 0000.0001) %MON exf_vstress_del2             =   1.6932729733754E-03
(PID.TID 0000.0001) %MON exf_hflux_max                =   6.2503361232607E+02
(PID.TID 0000.0001) %MON exf_hflux_min                =  -5.1451597527523E+01
(PID.TID 0000.0001) %MON exf_hflux_mean               =   1.4623261715618E+02
(PID.TID 0000.0001) %MON exf_hflux_sd                 =   1.8002328682026E+02
(PID.TID 0000.0001) %MON exf_hflux_del2               =   1.6301004651153E+01
(PID.TID 0000.0001) %MON exf_sflux_max                =   3.9028023656348E-08
(PID.TID 0000.0001) %MON exf_sflux_min                =  -8.8915527500586E-08
(PID.TID 0000.0001) %MON exf_sflux_mean               =  -2.5958891680597E-08
(PID.TID 0000.0001) %MON exf_sflux_sd                 =   3.0357858270478E-08
(PID.TID 0000.0001) %MON exf_sflux_del2               =   3.1625237172645E-09
(PID.TID 0000.0001) %MON exf_uwind_max                =   6.4669118044806E+00
(PID.TID 0000.0001) %MON exf_uwind_min                =  -6.8373719818605E+00
(PID.TID 0000.0001) %MON exf_uwind_mean               =   2.7703104953252E+00
(PID.TID 0000.0001) %MON exf_uwind_sd                 =   2.9914204817202E+00
(PID.TID 0000.0001) %MON exf_uwind_del2               =   3.1574946850541E-01
(PID.TID 0000.0001) %MON exf_vwind_max                =   3.9242191164871E+00
(PID.TID 0000.0001) %MON exf_vwind_min                =  -6.0151738390896E+00
(PID.TID 0000.0001) %MON exf_vwind_mean               =  -7.5780981579906E-01
(PID.TID 0000.0001) %MON exf_vwind_sd                 =   1.7298850990135E+00
(PID.TID 0000.0001) %MON exf_vwind_del2               =   1.9329828211469E-01
(PID.TID 0000.0001) %MON exf_wspeed_max               =   7.8834733013142E+00
(PID.TID 0000.0001) %MON exf_wspeed_min               =   4.5913801314248E-01
(PID.TID 0000.0001) %MON exf_wspeed_mean              =   4.1986352194932E+00
(PID.TID 0000.0001) %MON exf_wspeed_sd                =   1.6004553118739E+00
(PID.TID 0000.0001) %MON exf_wspeed_del2              =   3.7720325813743E-01
(PID.TID 0000.0001) %MON exf_atemp_max                =   2.8187425173567E+02
(PID.TID 0000.0001) %MON exf_atemp_min                =   2.3643944426573E+02
(PID.TID 0000.0001) %MON exf_atemp_mean               =   2.6392283741463E+02
(PID.TID 0000.0001) %MON exf_atemp_sd                 =   1.1990725231039E+01
(PID.TID 0000.0001) %MON exf_atemp_del2               =   6.4951942471641E-01
(PID.TID 0000.0001) %MON exf_aqh_max                  =   6.3196902393613E-03
(PID.TID 0000.0001) %MON exf_aqh_min                  =   1.6322223068205E-04
(PID.TID 0000.0001) %MON exf_aqh_mean                 =   2.4775611281656E-03
(PID.TID 0000.0001) %MON exf_aqh_sd                   =   1.4259923191659E-03
(PID.TID 0000.0001) %MON exf_aqh_del2                 =   6.8073442793907E-05
(PID.TID 0000.0001) %MON exf_lwflux_max               =   1.8156112611884E+02
(PID.TID 0000.0001) %MON exf_lwflux_min               =   2.7075633019266E+01
(PID.TID 0000.0001) %MON exf_lwflux_mean              =   7.5214634577009E+01
(PID.TID 0000.0001) %MON exf_lwflux_sd                =   4.2777639113310E+01
(PID.TID 0000.0001) %MON exf_lwflux_del2              =   3.2323857667016E+00
(PID.TID 0000.0001) %MON exf_precip_max               =   1.0499457022082E-07
(PID.TID 0000.0001) %MON exf_precip_min               =   2.7292535458031E-10
(PID.TID 0000.0001) %MON exf_precip_mean              =   3.6390026322913E-08
(PID.TID 0000.0001) %MON exf_precip_sd                =   2.0580406889746E-08
(PID.TID 0000.0001) %MON exf_precip_del2              =   2.5577934516916E-09
(PID.TID 0000.0001) %MON exf_snowprecip_max           =   0.0000000000000E+00
(PID.TID 0000.0001) %MON exf_snowprecip_min           =   0.0000000000000E+00
(PID.TID 0000.0001) %MON exf_snowprecip_mean          =   0.0000000000000E+00
(PID.TID 0000.0001) %MON exf_snowprecip_sd            =   0.0000000000000E+00
(PID.TID 0000.0001) %MON exf_snowprecip_del2          =   0.0000000000000E+00
(PID.TID 0000.0001) %MON exf_swflux_max               =  -8.1207169861090E-02
(PID.TID 0000.0001) %MON exf_swflux_min               =  -6.4067465766532E+01
(PID.TID 0000.0001) %MON exf_swflux_mean              =  -2.6505884102323E+01
(PID.TID 0000.0001) %MON exf_swflux_sd                =   1.9645085084315E+01
(PID.TID 0000.0001) %MON exf_swflux_del2              =   4.7954713528264E-01
(PID.TID 0000.0001) %MON exf_evap_max                 =   4.5348917925789E-08
(PID.TID 0000.0001) %MON exf_evap_min                 =  -4.2424751719378E-09
(PID.TID 0000.0001) %MON exf_evap_mean                =   1.0431134642317E-08
(PID.TID 0000.0001) %MON exf_evap_sd                  =   1.1081500529049E-08
(PID.TID 0000.0001) %MON exf_evap_del2                =   1.3323469958802E-09
(PID.TID 0000.0001) %MON exf_swdown_max               =   7.1186073073924E+01
(PID.TID 0000.0001) %MON exf_swdown_min               =   9.0230188734544E-02
(PID.TID 0000.0001) %MON exf_swdown_mean              =   2.9450982335914E+01
(PID.TID 0000.0001) %MON exf_swdown_sd                =   2.1827872315905E+01
(PID.TID 0000.0001) %MON exf_swdown_del2              =   5.3283015031405E-01
(PID.TID 0000.0001) %MON exf_lwdown_max               =   3.0563558759846E+02
(PID.TID 0000.0001) %MON exf_lwdown_min               =   1.1592215771493E+02
(PID.TID 0000.0001) %MON exf_lwdown_mean              =   2.2587078031381E+02
(PID.TID 0000.0001) %MON exf_lwdown_sd                =   4.6297287802066E+01
(PID.TID 0000.0001) %MON exf_lwdown_del2              =   3.2438794970556E+00
(PID.TID 0000.0001) %MON exf_apressure_max            =   0.0000000000000E+00
(PID.TID 0000.0001) %MON exf_apressure_min            =   0.0000000000000E+00
(PID.TID 0000.0001) %MON exf_apressure_mean           =   0.0000000000000E+00
(PID.TID 0000.0001) %MON exf_apressure_sd             =   0.0000000000000E+00
(PID.TID 0000.0001) %MON exf_apressure_del2           =   0.0000000000000E+00
(PID.TID 0000.0001) %MON exf_runoff_max               =   0.0000000000000E+00
(PID.TID 0000.0001) %MON exf_runoff_min               =   0.0000000000000E+00
(PID.TID 0000.0001) %MON exf_runoff_mean              =   0.0000000000000E+00
(PID.TID 0000.0001) %MON exf_runoff_sd                =   0.0000000000000E+00
(PID.TID 0000.0001) %MON exf_runoff_del2              =   0.0000000000000E+00
(PID.TID 0000.0001) %MON exf_climsst_max              =   0.0000000000000E+00
(PID.TID 0000.0001) %MON exf_climsst_min              =   0.0000000000000E+00
(PID.TID 0000.0001) %MON exf_climsst_mean             =   0.0000000000000E+00
(PID.TID 0000.0001) %MON exf_climsst_sd               =   0.0000000000000E+00
(PID.TID 0000.0001) %MON exf_climsst_del2             =   0.0000000000000E+00
(PID.TID 0000.0001) %MON exf_climsss_max              =   3.5041254622037E+01
(PID.TID 0000.0001) %MON exf_climsss_min              =   3.0670109811376E+01
(PID.TID 0000.0001) %MON exf_climsss_mean             =   3.3461926268386E+01
(PID.TID 0000.0001) %MON exf_climsss_sd               =   1.0315988331065E+00
(PID.TID 0000.0001) %MON exf_climsss_del2             =   1.0010781500943E-01
(PID.TID 0000.0001) // =======================================================
(PID.TID 0000.0001) // End MONITOR EXF statistics
(PID.TID 0000.0001) // =======================================================
 ph-ice B  5  0.  0.  0.
 ph-ice C  5  3.06281465E+11
 cg2d: Sum(rhs),rhsMax =   3.20073197390691E-08  1.19996672315758E+00
(PID.TID 0000.0001) // =======================================================
(PID.TID 0000.0001) // Begin MONITOR SEAICE statistics
(PID.TID 0000.0001) // =======================================================
(PID.TID 0000.0001) %MON seaice_tsnumber              =                     6
(PID.TID 0000.0001) %MON seaice_time_sec              =   2.1600000000000E+04
(PID.TID 0000.0001) %MON seaice_uice_max              =   2.3992745109673E-01
(PID.TID 0000.0001) %MON seaice_uice_min              =  -1.0534849502405E-01
(PID.TID 0000.0001) %MON seaice_uice_mean             =   8.0979127444357E-02
(PID.TID 0000.0001) %MON seaice_uice_sd               =   8.5693593471125E-02
(PID.TID 0000.0001) %MON seaice_uice_del2             =   1.0079077521867E-02
(PID.TID 0000.0001) %MON seaice_vice_max              =   9.8351447679097E-02
(PID.TID 0000.0001) %MON seaice_vice_min              =  -2.1228924533081E-01
(PID.TID 0000.0001) %MON seaice_vice_mean             =  -5.4937412936197E-02
(PID.TID 0000.0001) %MON seaice_vice_sd               =   7.2061963501574E-02
(PID.TID 0000.0001) %MON seaice_vice_del2             =   8.0226433245267E-03
(PID.TID 0000.0001) %MON seaice_area_max              =   1.0000000000000E+00
(PID.TID 0000.0001) %MON seaice_area_min              =   0.0000000000000E+00
(PID.TID 0000.0001) %MON seaice_area_mean             =   6.2417688265085E-01
(PID.TID 0000.0001) %MON seaice_area_sd               =   4.5808407403965E-01
(PID.TID 0000.0001) %MON seaice_area_del2             =   5.3631206810950E-02
(PID.TID 0000.0001) %MON seaice_heff_max              =   5.4790358803121E-01
(PID.TID 0000.0001) %MON seaice_heff_min              =   0.0000000000000E+00
(PID.TID 0000.0001) %MON seaice_heff_mean             =   1.4225414452692E-01
(PID.TID 0000.0001) %MON seaice_heff_sd               =   1.7422581482589E-01
(PID.TID 0000.0001) %MON seaice_heff_del2             =   1.3240855338383E-02
(PID.TID 0000.0001) %MON seaice_hsnow_max             =   2.0470995401277E-01
(PID.TID 0000.0001) %MON seaice_hsnow_min             =   0.0000000000000E+00
(PID.TID 0000.0001) %MON seaice_hsnow_mean            =   1.1841143347447E-01
(PID.TID 0000.0001) %MON seaice_hsnow_sd              =   9.7165681939073E-02
(PID.TID 0000.0001) %MON seaice_hsnow_del2            =   6.5148328833595E-03
(PID.TID 0000.0001) // =======================================================
(PID.TID 0000.0001) // End MONITOR SEAICE statistics
(PID.TID 0000.0001) // =======================================================
(PID.TID 0000.0001) // =======================================================
(PID.TID 0000.0001) // Begin MONITOR EXF statistics
(PID.TID 0000.0001) // =======================================================
(PID.TID 0000.0001) %MON exf_tsnumber                 =                     6
(PID.TID 0000.0001) %MON exf_time_sec                 =   2.1600000000000E+04
(PID.TID 0000.0001) %MON exf_ustress_max              =   5.2237984457504E-02
(PID.TID 0000.0001) %MON exf_ustress_min              =  -9.3794680426842E-02
(PID.TID 0000.0001) %MON exf_ustress_mean             =   1.7953013032227E-02
(PID.TID 0000.0001) %MON exf_ustress_sd               =   2.3720087063703E-02
(PID.TID 0000.0001) %MON exf_ustress_del2             =   2.8182307603703E-03
(PID.TID 0000.0001) %MON exf_vstress_max              =   5.3832418070363E-02
(PID.TID 0000.0001) %MON exf_vstress_min              =  -5.8451170700580E-02
(PID.TID 0000.0001) %MON exf_vstress_mean             =  -5.4433701237543E-03
(PID.TID 0000.0001) %MON exf_vstress_sd               =   1.4447187483995E-02
(PID.TID 0000.0001) %MON exf_vstress_del2             =   1.6932777054093E-03
(PID.TID 0000.0001) %MON exf_hflux_max                =   6.2507220073316E+02
(PID.TID 0000.0001) %MON exf_hflux_min                =  -5.1351197178493E+01
(PID.TID 0000.0001) %MON exf_hflux_mean               =   1.4630892808431E+02
(PID.TID 0000.0001) %MON exf_hflux_sd                 =   1.8003246493433E+02
(PID.TID 0000.0001) %MON exf_hflux_del2               =   1.6303871614930E+01
(PID.TID 0000.0001) %MON exf_sflux_max                =   3.9026275524023E-08
(PID.TID 0000.0001) %MON exf_sflux_min                =  -8.8868954898915E-08
(PID.TID 0000.0001) %MON exf_sflux_mean               =  -2.5950943772104E-08
(PID.TID 0000.0001) %MON exf_sflux_sd                 =   3.0354687237536E-08
(PID.TID 0000.0001) %MON exf_sflux_del2               =   3.1631199542450E-09
(PID.TID 0000.0001) %MON exf_uwind_max                =   6.4674192569295E+00
(PID.TID 0000.0001) %MON exf_uwind_min                =  -6.8373987635628E+00
(PID.TID 0000.0001) %MON exf_uwind_mean               =   2.7704180476696E+00
(PID.TID 0000.0001) %MON exf_uwind_sd                 =   2.9916966488382E+00
(PID.TID 0000.0001) %MON exf_uwind_del2               =   3.1575737272796E-01
(PID.TID 0000.0001) %MON exf_vwind_max                =   3.9242492972827E+00
(PID.TID 0000.0001) %MON exf_vwind_min                =  -6.0142679292648E+00
(PID.TID 0000.0001) %MON exf_vwind_mean               =  -7.5719204270894E-01
(PID.TID 0000.0001) %MON exf_vwind_sd                 =   1.7299937065642E+00
(PID.TID 0000.0001) %MON exf_vwind_del2               =   1.9329141077275E-01
(PID.TID 0000.0001) %MON exf_wspeed_max               =   7.8835115525503E+00
(PID.TID 0000.0001) %MON exf_wspeed_min               =   4.5889518386928E-01
(PID.TID 0000.0001) %MON exf_wspeed_mean              =   4.1987383082859E+00
(PID.TID 0000.0001) %MON exf_wspeed_sd                =   1.6007122259633E+00
(PID.TID 0000.0001) %MON exf_wspeed_del2              =   3.7725655435875E-01
(PID.TID 0000.0001) %MON exf_atemp_max                =   2.8187253958280E+02
(PID.TID 0000.0001) %MON exf_atemp_min                =   2.3643497929808E+02
(PID.TID 0000.0001) %MON exf_atemp_mean               =   2.6391819332927E+02
(PID.TID 0000.0001) %MON exf_atemp_sd                 =   1.1992188200331E+01
(PID.TID 0000.0001) %MON exf_atemp_del2               =   6.4953875765774E-01
(PID.TID 0000.0001) %MON exf_aqh_max                  =   6.3189936985002E-03
(PID.TID 0000.0001) %MON exf_aqh_min                  =   1.6312812718364E-04
(PID.TID 0000.0001) %MON exf_aqh_mean                 =   2.4770007717611E-03
(PID.TID 0000.0001) %MON exf_aqh_sd                   =   1.4258893952382E-03
(PID.TID 0000.0001) %MON exf_aqh_del2                 =   6.8059775232760E-05
(PID.TID 0000.0001) %MON exf_lwflux_max               =   1.8157457967829E+02
(PID.TID 0000.0001) %MON exf_lwflux_min               =   2.7062314429986E+01
(PID.TID 0000.0001) %MON exf_lwflux_mean              =   7.5238119154130E+01
(PID.TID 0000.0001) %MON exf_lwflux_sd                =   4.2774667059390E+01
(PID.TID 0000.0001) %MON exf_lwflux_del2              =   3.2322338899284E+00
(PID.TID 0000.0001) %MON exf_precip_max               =   1.0499595166344E-07
(PID.TID 0000.0001) %MON exf_precip_min               =   2.7279142810763E-10
(PID.TID 0000.0001) %MON exf_precip_mean              =   3.6390015478879E-08
(PID.TID 0000.0001) %MON exf_precip_sd                =   2.0580860600171E-08
(PID.TID 0000.0001) %MON exf_precip_del2              =   2.5583211448813E-09
(PID.TID 0000.0001) %MON exf_snowprecip_max           =   0.0000000000000E+00
(PID.TID 0000.0001) %MON exf_snowprecip_min           =   0.0000000000000E+00
(PID.TID 0000.0001) %MON exf_snowprecip_mean          =   0.0000000000000E+00
(PID.TID 0000.0001) %MON exf_snowprecip_sd            =   0.0000000000000E+00
(PID.TID 0000.0001) %MON exf_snowprecip_del2          =   0.0000000000000E+00
(PID.TID 0000.0001) %MON exf_swflux_max               =  -8.1207452738871E-02
(PID.TID 0000.0001) %MON exf_swflux_min               =  -6.4086336117103E+01
(PID.TID 0000.0001) %MON exf_swflux_mean              =  -2.6516416318198E+01
(PID.TID 0000.0001) %MON exf_swflux_sd                =   1.9648923659484E+01
(PID.TID 0000.0001) %MON exf_swflux_del2              =   4.7965400922860E-01
(PID.TID 0000.0001) %MON exf_evap_max                 =   4.5346507082534E-08
(PID.TID 0000.0001) %MON exf_evap_min                 =  -4.2210682151331E-09
(PID.TID 0000.0001) %MON exf_evap_mean                =   1.0439071706775E-08
(PID.TID 0000.0001) %MON exf_evap_sd                  =   1.1078855231968E-08
(PID.TID 0000.0001) %MON exf_evap_del2                =   1.3326508040011E-09
(PID.TID 0000.0001) %MON exf_swdown_max               =   7.1207040130115E+01
(PID.TID 0000.0001) %MON exf_swdown_min               =   9.0230503043190E-02
(PID.TID 0000.0001) %MON exf_swdown_mean              =   2.9462684797997E+01
(PID.TID 0000.0001) %MON exf_swdown_sd                =   2.1832137399427E+01
(PID.TID 0000.0001) %MON exf_swdown_del2              =   5.3294889914289E-01
(PID.TID 0000.0001) %MON exf_lwdown_max               =   3.0562676151463E+02
(PID.TID 0000.0001) %MON exf_lwdown_min               =   1.1590705083628E+02
(PID.TID 0000.0001) %MON exf_lwdown_mean              =   2.2585507298474E+02
(PID.TID 0000.0001) %MON exf_lwdown_sd                =   4.6301263017486E+01
(PID.TID 0000.0001) %MON exf_lwdown_del2              =   3.2438911371283E+00
(PID.TID 0000.0001) %MON exf_apressure_max            =   0.0000000000000E+00
(PID.TID 0000.0001) %MON exf_apressure_min            =   0.0000000000000E+00
(PID.TID 0000.0001) %MON exf_apressure_mean           =   0.0000000000000E+00
(PID.TID 0000.0001) %MON exf_apressure_sd             =   0.0000000000000E+00
(PID.TID 0000.0001) %MON exf_apressure_del2           =   0.0000000000000E+00
(PID.TID 0000.0001) %MON exf_runoff_max               =   0.0000000000000E+00
(PID.TID 0000.0001) %MON exf_runoff_min               =   0.0000000000000E+00
(PID.TID 0000.0001) %MON exf_runoff_mean              =   0.0000000000000E+00
(PID.TID 0000.0001) %MON exf_runoff_sd                =   0.0000000000000E+00
(PID.TID 0000.0001) %MON exf_runoff_del2              =   0.0000000000000E+00
(PID.TID 0000.0001) %MON exf_climsst_max              =   0.0000000000000E+00
(PID.TID 0000.0001) %MON exf_climsst_min              =   0.0000000000000E+00
(PID.TID 0000.0001) %MON exf_climsst_mean             =   0.0000000000000E+00
(PID.TID 0000.0001) %MON exf_climsst_sd               =   0.0000000000000E+00
(PID.TID 0000.0001) %MON exf_climsst_del2             =   0.0000000000000E+00
(PID.TID 0000.0001) %MON exf_climsss_max              =   3.5041439369077E+01
(PID.TID 0000.0001) %MON exf_climsss_min              =   3.0670869139374E+01
(PID.TID 0000.0001) %MON exf_climsss_mean             =   3.3462447601866E+01
(PID.TID 0000.0001) %MON exf_climsss_sd               =   1.0315283113566E+00
(PID.TID 0000.0001) %MON exf_climsss_del2             =   1.0009058571904E-01
(PID.TID 0000.0001) // =======================================================
(PID.TID 0000.0001) // End MONITOR EXF statistics
(PID.TID 0000.0001) // =======================================================
 ph-ice B  6  0.  0.  0.
 ph-ice C  6  3.56942995E+11
 cg2d: Sum(rhs),rhsMax =   3.26975608880287E-08  1.19247381688730E+00
(PID.TID 0000.0001) // =======================================================
(PID.TID 0000.0001) // Begin MONITOR SEAICE statistics
(PID.TID 0000.0001) // =======================================================
(PID.TID 0000.0001) %MON seaice_tsnumber              =                     7
(PID.TID 0000.0001) %MON seaice_time_sec              =   2.5200000000000E+04
(PID.TID 0000.0001) %MON seaice_uice_max              =   2.5685227045056E-01
(PID.TID 0000.0001) %MON seaice_uice_min              =  -9.7750591653197E-02
(PID.TID 0000.0001) %MON seaice_uice_mean             =   7.6052919078779E-02
(PID.TID 0000.0001) %MON seaice_uice_sd               =   8.5420339140394E-02
(PID.TID 0000.0001) %MON seaice_uice_del2             =   9.6585238964612E-03
(PID.TID 0000.0001) %MON seaice_vice_max              =   9.3826162067744E-02
(PID.TID 0000.0001) %MON seaice_vice_min              =  -2.2536421280571E-01
(PID.TID 0000.0001) %MON seaice_vice_mean             =  -6.0012495784685E-02
(PID.TID 0000.0001) %MON seaice_vice_sd               =   7.2852763525401E-02
(PID.TID 0000.0001) %MON seaice_vice_del2             =   8.1655846767214E-03
(PID.TID 0000.0001) %MON seaice_area_max              =   1.0000000000000E+00
(PID.TID 0000.0001) %MON seaice_area_min              =   0.0000000000000E+00
(PID.TID 0000.0001) %MON seaice_area_mean             =   6.2408688458691E-01
(PID.TID 0000.0001) %MON seaice_area_sd               =   4.5772399922323E-01
(PID.TID 0000.0001) %MON seaice_area_del2             =   5.3629428844417E-02
(PID.TID 0000.0001) %MON seaice_heff_max              =   5.4815057630964E-01
(PID.TID 0000.0001) %MON seaice_heff_min              =   0.0000000000000E+00
(PID.TID 0000.0001) %MON seaice_heff_mean             =   1.4221063404070E-01
(PID.TID 0000.0001) %MON seaice_heff_sd               =   1.7437182367196E-01
(PID.TID 0000.0001) %MON seaice_heff_del2             =   1.3220450137201E-02
(PID.TID 0000.0001) %MON seaice_hsnow_max             =   2.0549515084231E-01
(PID.TID 0000.0001) %MON seaice_hsnow_min             =   0.0000000000000E+00
(PID.TID 0000.0001) %MON seaice_hsnow_mean            =   1.1857184786438E-01
(PID.TID 0000.0001) %MON seaice_hsnow_sd              =   9.7287286136380E-02
(PID.TID 0000.0001) %MON seaice_hsnow_del2            =   6.5537586324299E-03
(PID.TID 0000.0001) // =======================================================
(PID.TID 0000.0001) // End MONITOR SEAICE statistics
(PID.TID 0000.0001) // =======================================================
(PID.TID 0000.0001) // =======================================================
(PID.TID 0000.0001) // Begin MONITOR EXF statistics
(PID.TID 0000.0001) // =======================================================
(PID.TID 0000.0001) %MON exf_tsnumber                 =                     7
(PID.TID 0000.0001) %MON exf_time_sec                 =   2.5200000000000E+04
(PID.TID 0000.0001) %MON exf_ustress_max              =   5.2243932821743E-02
(PID.TID 0000.0001) %MON exf_ustress_min              =  -9.3796695311269E-02
(PID.TID 0000.0001) %MON exf_ustress_mean             =   1.7960118868234E-02
(PID.TID 0000.0001) %MON exf_ustress_sd               =   2.3726167256399E-02
(PID.TID 0000.0001) %MON exf_ustress_del2             =   2.8191129276155E-03
(PID.TID 0000.0001) %MON exf_vstress_max              =   5.3833777652830E-02
(PID.TID 0000.0001) %MON exf_vstress_min              =  -5.8440994808454E-02
(PID.TID 0000.0001) %MON exf_vstress_mean             =  -5.4400590721791E-03
(PID.TID 0000.0001) %MON exf_vstress_sd               =   1.4449140152602E-02
(PID.TID 0000.0001) %MON exf_vstress_del2             =   1.6932578152941E-03
(PID.TID 0000.0001) %MON exf_hflux_max                =   6.2511249114515E+02
(PID.TID 0000.0001) %MON exf_hflux_min                =  -5.1292187886500E+01
(PID.TID 0000.0001) %MON exf_hflux_mean               =   1.4638061591974E+02
(PID.TID 0000.0001) %MON exf_hflux_sd                 =   1.8004879986784E+02
(PID.TID 0000.0001) %MON exf_hflux_del2               =   1.6307687226553E+01
(PID.TID 0000.0001) %MON exf_sflux_max                =   3.9024744508734E-08
(PID.TID 0000.0001) %MON exf_sflux_min                =  -8.8844029821014E-08
(PID.TID 0000.0001) %MON exf_sflux_mean               =  -2.5943658213728E-08
(PID.TID 0000.0001) %MON exf_sflux_sd                 =   3.0352934512066E-08
(PID.TID 0000.0001) %MON exf_sflux_del2               =   3.1638747738670E-09
(PID.TID 0000.0001) %MON exf_uwind_max                =   6.4679267093784E+00
(PID.TID 0000.0001) %MON exf_uwind_min                =  -6.8374255452651E+00
(PID.TID 0000.0001) %MON exf_uwind_mean               =   2.7705256000140E+00
(PID.TID 0000.0001) %MON exf_uwind_sd                 =   2.9919728561678E+00
(PID.TID 0000.0001) %MON exf_uwind_del2               =   3.1576527695052E-01
(PID.TID 0000.0001) %MON exf_vwind_max                =   3.9242794780783E+00
(PID.TID 0000.0001) %MON exf_vwind_min                =  -6.0133620194399E+00
(PID.TID 0000.0001) %MON exf_vwind_mean               =  -7.5657426961883E-01
(PID.TID 0000.0001) %MON exf_vwind_sd                 =   1.7301024272674E+00
(PID.TID 0000.0001) %MON exf_vwind_del2               =   1.9328456693798E-01
(PID.TID 0000.0001) %MON exf_wspeed_max               =   7.8835498038073E+00
(PID.TID 0000.0001) %MON exf_wspeed_min               =   4.5865235699732E-01
(PID.TID 0000.0001) %MON exf_wspeed_mean              =   4.1988415259832E+00
(PID.TID 0000.0001) %MON exf_wspeed_sd                =   1.6009692521540E+00
(PID.TID 0000.0001) %MON exf_wspeed_del2              =   3.7730984410389E-01
(PID.TID 0000.0001) %MON exf_atemp_max                =   2.8187082742993E+02
(PID.TID 0000.0001) %MON exf_atemp_min                =   2.3643051433042E+02
(PID.TID 0000.0001) %MON exf_atemp_mean               =   2.6391354924392E+02
(PID.TID 0000.0001) %MON exf_atemp_sd                 =   1.1993651656543E+01
(PID.TID 0000.0001) %MON exf_atemp_del2               =   6.4955809059907E-01
(PID.TID 0000.0001) %MON exf_aqh_max                  =   6.3182971576392E-03
(PID.TID 0000.0001) %MON exf_aqh_min                  =   1.6303402368524E-04
(PID.TID 0000.0001) %MON exf_aqh_mean                 =   2.4764404153565E-03
(PID.TID 0000.0001) %MON exf_aqh_sd                   =   1.4257865072101E-03
(PID.TID 0000.0001) %MON exf_aqh_del2                 =   6.8046107671613E-05
(PID.TID 0000.0001) %MON exf_lwflux_max               =   1.8159055041551E+02
(PID.TID 0000.0001) %MON exf_lwflux_min               =   2.7054912715581E+01
(PID.TID 0000.0001) %MON exf_lwflux_mean              =   7.5259489809883E+01
(PID.TID 0000.0001) %MON exf_lwflux_sd                =   4.2774121798953E+01
(PID.TID 0000.0001) %MON exf_lwflux_del2              =   3.2322946740639E+00
(PID.TID 0000.0001) %MON exf_precip_max               =   1.0499733310606E-07
(PID.TID 0000.0001) %MON exf_precip_min               =   2.7265750163496E-10
(PID.TID 0000.0001) %MON exf_precip_mean              =   3.6390004634845E-08
(PID.TID 0000.0001) %MON exf_precip_sd                =   2.0581314966068E-08
(PID.TID 0000.0001) %MON exf_precip_del2              =   2.5588488380710E-09
(PID.TID 0000.0001) %MON exf_snowprecip_max           =   0.0000000000000E+00
(PID.TID 0000.0001) %MON exf_snowprecip_min           =   0.0000000000000E+00
(PID.TID 0000.0001) %MON exf_snowprecip_mean          =   0.0000000000000E+00
(PID.TID 0000.0001) %MON exf_snowprecip_sd            =   0.0000000000000E+00
(PID.TID 0000.0001) %MON exf_snowprecip_del2          =   0.0000000000000E+00
(PID.TID 0000.0001) %MON exf_swflux_max               =  -8.1207735616653E-02
(PID.TID 0000.0001) %MON exf_swflux_min               =  -6.4105206467675E+01
(PID.TID 0000.0001) %MON exf_swflux_mean              =  -2.6526948534072E+01
(PID.TID 0000.0001) %MON exf_swflux_sd                =   1.9652762825246E+01
(PID.TID 0000.0001) %MON exf_swflux_del2              =   4.7976088317456E-01
(PID.TID 0000.0001) %MON exf_evap_max                 =   4.5344313356314E-08
(PID.TID 0000.0001) %MON exf_evap_min                 =  -4.2074596001949E-09
(PID.TID 0000.0001) %MON exf_evap_mean                =   1.0446346421117E-08
(PID.TID 0000.0001) %MON exf_evap_sd                  =   1.1077265748507E-08
(PID.TID 0000.0001) %MON exf_evap_del2                =   1.3331769268870E-09
(PID.TID 0000.0001) %MON exf_swdown_max               =   7.1228007186306E+01
(PID.TID 0000.0001) %MON exf_swdown_min               =   9.0230817351836E-02
(PID.TID 0000.0001) %MON exf_swdown_mean              =   2.9474387260081E+01
(PID.TID 0000.0001) %MON exf_swdown_sd                =   2.1836403139162E+01
(PID.TID 0000.0001) %MON exf_swdown_del2              =   5.3306764797174E-01
(PID.TID 0000.0001) %MON exf_lwdown_max               =   3.0561793543081E+02
(PID.TID 0000.0001) %MON exf_lwdown_min               =   1.1589194395764E+02
(PID.TID 0000.0001) %MON exf_lwdown_mean              =   2.2583936565568E+02
(PID.TID 0000.0001) %MON exf_lwdown_sd                =   4.6305239399294E+01
(PID.TID 0000.0001) %MON exf_lwdown_del2              =   3.2439027772011E+00
(PID.TID 0000.0001) %MON exf_apressure_max            =   0.0000000000000E+00
(PID.TID 0000.0001) %MON exf_apressure_min            =   0.0000000000000E+00
(PID.TID 0000.0001) %MON exf_apressure_mean           =   0.0000000000000E+00
(PID.TID 0000.0001) %MON exf_apressure_sd             =   0.0000000000000E+00
(PID.TID 0000.0001) %MON exf_apressure_del2           =   0.0000000000000E+00
(PID.TID 0000.0001) %MON exf_runoff_max               =   0.0000000000000E+00
(PID.TID 0000.0001) %MON exf_runoff_min               =   0.0000000000000E+00
(PID.TID 0000.0001) %MON exf_runoff_mean              =   0.0000000000000E+00
(PID.TID 0000.0001) %MON exf_runoff_sd                =   0.0000000000000E+00
(PID.TID 0000.0001) %MON exf_runoff_del2              =   0.0000000000000E+00
(PID.TID 0000.0001) %MON exf_climsst_max              =   0.0000000000000E+00
(PID.TID 0000.0001) %MON exf_climsst_min              =   0.0000000000000E+00
(PID.TID 0000.0001) %MON exf_climsst_mean             =   0.0000000000000E+00
(PID.TID 0000.0001) %MON exf_climsst_sd               =   0.0000000000000E+00
(PID.TID 0000.0001) %MON exf_climsst_del2             =   0.0000000000000E+00
(PID.TID 0000.0001) %MON exf_climsss_max              =   3.5041624116116E+01
(PID.TID 0000.0001) %MON exf_climsss_min              =   3.0671628467372E+01
(PID.TID 0000.0001) %MON exf_climsss_mean             =   3.3462968935345E+01
(PID.TID 0000.0001) %MON exf_climsss_sd               =   1.0314580197633E+00
(PID.TID 0000.0001) %MON exf_climsss_del2             =   1.0007335642865E-01
(PID.TID 0000.0001) // =======================================================
(PID.TID 0000.0001) // End MONITOR EXF statistics
(PID.TID 0000.0001) // =======================================================
 ph-ice B  7  0.  0.  0.
 ph-ice C  7  4.07568388E+11
 cg2d: Sum(rhs),rhsMax =   3.08544946224509E-08  1.18167591176059E+00
(PID.TID 0000.0001) // =======================================================
(PID.TID 0000.0001) // Begin MONITOR SEAICE statistics
(PID.TID 0000.0001) // =======================================================
(PID.TID 0000.0001) %MON seaice_tsnumber              =                     8
(PID.TID 0000.0001) %MON seaice_time_sec              =   2.8800000000000E+04
(PID.TID 0000.0001) %MON seaice_uice_max              =   2.6752956373033E-01
(PID.TID 0000.0001) %MON seaice_uice_min              =  -8.8502450662207E-02
(PID.TID 0000.0001) %MON seaice_uice_mean             =   6.9613024766212E-02
(PID.TID 0000.0001) %MON seaice_uice_sd               =   8.3091311185039E-02
(PID.TID 0000.0001) %MON seaice_uice_del2             =   8.8606511909184E-03
(PID.TID 0000.0001) %MON seaice_vice_max              =   8.6568020768166E-02
(PID.TID 0000.0001) %MON seaice_vice_min              =  -2.2434575858616E-01
(PID.TID 0000.0001) %MON seaice_vice_mean             =  -6.1223752109161E-02
(PID.TID 0000.0001) %MON seaice_vice_sd               =   7.0132225581223E-02
(PID.TID 0000.0001) %MON seaice_vice_del2             =   8.0005821962568E-03
(PID.TID 0000.0001) %MON seaice_area_max              =   1.0000000000000E+00
(PID.TID 0000.0001) %MON seaice_area_min              =   0.0000000000000E+00
(PID.TID 0000.0001) %MON seaice_area_mean             =   6.2402840595208E-01
(PID.TID 0000.0001) %MON seaice_area_sd               =   4.5740422452438E-01
(PID.TID 0000.0001) %MON seaice_area_del2             =   5.3616903054160E-02
(PID.TID 0000.0001) %MON seaice_heff_max              =   5.4845941034800E-01
(PID.TID 0000.0001) %MON seaice_heff_min              =   0.0000000000000E+00
(PID.TID 0000.0001) %MON seaice_heff_mean             =   1.4210919265671E-01
(PID.TID 0000.0001) %MON seaice_heff_sd               =   1.7454232422185E-01
(PID.TID 0000.0001) %MON seaice_heff_del2             =   1.3200108914835E-02
(PID.TID 0000.0001) %MON seaice_hsnow_max             =   2.0628031960974E-01
(PID.TID 0000.0001) %MON seaice_hsnow_min             =   0.0000000000000E+00
(PID.TID 0000.0001) %MON seaice_hsnow_mean            =   1.1873224112862E-01
(PID.TID 0000.0001) %MON seaice_hsnow_sd              =   9.7409172567973E-02
(PID.TID 0000.0001) %MON seaice_hsnow_del2            =   6.5932180713433E-03
(PID.TID 0000.0001) // =======================================================
(PID.TID 0000.0001) // End MONITOR SEAICE statistics
(PID.TID 0000.0001) // =======================================================
(PID.TID 0000.0001) // =======================================================
(PID.TID 0000.0001) // Begin MONITOR EXF statistics
(PID.TID 0000.0001) // =======================================================
(PID.TID 0000.0001) %MON exf_tsnumber                 =                     8
(PID.TID 0000.0001) %MON exf_time_sec                 =   2.8800000000000E+04
(PID.TID 0000.0001) %MON exf_ustress_max              =   5.2249214879362E-02
(PID.TID 0000.0001) %MON exf_ustress_min              =  -9.3798929022903E-02
(PID.TID 0000.0001) %MON exf_ustress_mean             =   1.7966529287965E-02
(PID.TID 0000.0001) %MON exf_ustress_sd               =   2.3731957560627E-02
(PID.TID 0000.0001) %MON exf_ustress_del2             =   2.8199337877605E-03
(PID.TID 0000.0001) %MON exf_vstress_max              =   5.3835262836833E-02
(PID.TID 0000.0001) %MON exf_vstress_min              =  -5.8423863261754E-02
(PID.TID 0000.0001) %MON exf_vstress_mean             =  -5.4366061402555E-03
(PID.TID 0000.0001) %MON exf_vstress_sd               =   1.4450709478647E-02
(PID.TID 0000.0001) %MON exf_vstress_del2             =   1.6932443852647E-03
(PID.TID 0000.0001) %MON exf_hflux_max                =   6.2516667571601E+02
(PID.TID 0000.0001) %MON exf_hflux_min                =  -5.1290005256042E+01
(PID.TID 0000.0001) %MON exf_hflux_mean               =   1.4644490061509E+02
(PID.TID 0000.0001) %MON exf_hflux_sd                 =   1.8007068103613E+02
(PID.TID 0000.0001) %MON exf_hflux_del2               =   1.6310945621959E+01
(PID.TID 0000.0001) %MON exf_sflux_max                =   3.9024984842035E-08
(PID.TID 0000.0001) %MON exf_sflux_min                =  -8.8852274113664E-08
(PID.TID 0000.0001) %MON exf_sflux_mean               =  -2.5937377388229E-08
(PID.TID 0000.0001) %MON exf_sflux_sd                 =   3.0352649171946E-08
(PID.TID 0000.0001) %MON exf_sflux_del2               =   3.1646078554429E-09
(PID.TID 0000.0001) %MON exf_uwind_max                =   6.4684341618272E+00
(PID.TID 0000.0001) %MON exf_uwind_min                =  -6.8374523269674E+00
(PID.TID 0000.0001) %MON exf_uwind_mean               =   2.7706331523584E+00
(PID.TID 0000.0001) %MON exf_uwind_sd                 =   2.9922491036980E+00
(PID.TID 0000.0001) %MON exf_uwind_del2               =   3.1577589455021E-01
(PID.TID 0000.0001) %MON exf_vwind_max                =   3.9243096588739E+00
(PID.TID 0000.0001) %MON exf_vwind_min                =  -6.0124561096150E+00
(PID.TID 0000.0001) %MON exf_vwind_mean               =  -7.5595649652871E-01
(PID.TID 0000.0001) %MON exf_vwind_sd                 =   1.7302112611019E+00
(PID.TID 0000.0001) %MON exf_vwind_del2               =   1.9327792057372E-01
(PID.TID 0000.0001) %MON exf_wspeed_max               =   7.8835880550853E+00
(PID.TID 0000.0001) %MON exf_wspeed_min               =   4.5840953253040E-01
(PID.TID 0000.0001) %MON exf_wspeed_mean              =   4.1989448725728E+00
(PID.TID 0000.0001) %MON exf_wspeed_sd                =   1.6012263903992E+00
(PID.TID 0000.0001) %MON exf_wspeed_del2              =   3.7736312737620E-01
(PID.TID 0000.0001) %MON exf_atemp_max                =   2.8186911527707E+02
(PID.TID 0000.0001) %MON exf_atemp_min                =   2.3642604936277E+02
(PID.TID 0000.0001) %MON exf_atemp_mean               =   2.6390890515856E+02
(PID.TID 0000.0001) %MON exf_atemp_sd                 =   1.1995115599497E+01
(PID.TID 0000.0001) %MON exf_atemp_del2               =   6.4957742354040E-01
(PID.TID 0000.0001) %MON exf_aqh_max                  =   6.3176006167781E-03
(PID.TID 0000.0001) %MON exf_aqh_min                  =   1.6293992018683E-04
(PID.TID 0000.0001) %MON exf_aqh_mean                 =   2.4758800589519E-03
(PID.TID 0000.0001) %MON exf_aqh_sd                   =   1.4256836550895E-03
(PID.TID 0000.0001) %MON exf_aqh_del2                 =   6.8032440110466E-05
(PID.TID 0000.0001) %MON exf_lwflux_max               =   1.8160657786431E+02
(PID.TID 0000.0001) %MON exf_lwflux_min               =   2.7042773776827E+01
(PID.TID 0000.0001) %MON exf_lwflux_mean              =   7.5278586524193E+01
(PID.TID 0000.0001) %MON exf_lwflux_sd                =   4.2775412241966E+01
(PID.TID 0000.0001) %MON exf_lwflux_del2              =   3.2322566706845E+00
(PID.TID 0000.0001) %MON exf_precip_max               =   1.0499871454869E-07
(PID.TID 0000.0001) %MON exf_precip_min               =   2.7252357516229E-10
(PID.TID 0000.0001) %MON exf_precip_mean              =   3.6389993790810E-08
(PID.TID 0000.0001) %MON exf_precip_sd                =   2.0581769987393E-08
(PID.TID 0000.0001) %MON exf_precip_del2              =   2.5593765312607E-09
(PID.TID 0000.0001) %MON exf_snowprecip_max           =   0.0000000000000E+00
(PID.TID 0000.0001) %MON exf_snowprecip_min           =   0.0000000000000E+00
(PID.TID 0000.0001) %MON exf_snowprecip_mean          =   0.0000000000000E+00
(PID.TID 0000.0001) %MON exf_snowprecip_sd            =   0.0000000000000E+00
(PID.TID 0000.0001) %MON exf_snowprecip_del2          =   0.0000000000000E+00
(PID.TID 0000.0001) %MON exf_swflux_max               =  -8.1208018494434E-02
(PID.TID 0000.0001) %MON exf_swflux_min               =  -6.4124076818247E+01
(PID.TID 0000.0001) %MON exf_swflux_mean              =  -2.6537480749947E+01
(PID.TID 0000.0001) %MON exf_swflux_sd                =   1.9656602581253E+01
(PID.TID 0000.0001) %MON exf_swflux_del2              =   4.7986775712052E-01
(PID.TID 0000.0001) %MON exf_evap_max                 =   4.5343890978685E-08
(PID.TID 0000.0001) %MON exf_evap_min                 =  -4.2045649083408E-09
(PID.TID 0000.0001) %MON exf_evap_mean                =   1.0452616402581E-08
(PID.TID 0000.0001) %MON exf_evap_sd                  =   1.1076424482655E-08
(PID.TID 0000.0001) %MON exf_evap_del2                =   1.3336014262461E-09
(PID.TID 0000.0001) %MON exf_swdown_max               =   7.1248974242497E+01
(PID.TID 0000.0001) %MON exf_swdown_min               =   9.0231131660482E-02
(PID.TID 0000.0001) %MON exf_swdown_mean              =   2.9486089722164E+01
(PID.TID 0000.0001) %MON exf_swdown_sd                =   2.1840669534725E+01
(PID.TID 0000.0001) %MON exf_swdown_del2              =   5.3318639680058E-01
(PID.TID 0000.0001) %MON exf_lwdown_max               =   3.0560910934698E+02
(PID.TID 0000.0001) %MON exf_lwdown_min               =   1.1587683707899E+02
(PID.TID 0000.0001) %MON exf_lwdown_mean              =   2.2582365832661E+02
(PID.TID 0000.0001) %MON exf_lwdown_sd                =   4.6309216947189E+01
(PID.TID 0000.0001) %MON exf_lwdown_del2              =   3.2439144172738E+00
(PID.TID 0000.0001) %MON exf_apressure_max            =   0.0000000000000E+00
(PID.TID 0000.0001) %MON exf_apressure_min            =   0.0000000000000E+00
(PID.TID 0000.0001) %MON exf_apressure_mean           =   0.0000000000000E+00
(PID.TID 0000.0001) %MON exf_apressure_sd             =   0.0000000000000E+00
(PID.TID 0000.0001) %MON exf_apressure_del2           =   0.0000000000000E+00
(PID.TID 0000.0001) %MON exf_runoff_max               =   0.0000000000000E+00
(PID.TID 0000.0001) %MON exf_runoff_min               =   0.0000000000000E+00
(PID.TID 0000.0001) %MON exf_runoff_mean              =   0.0000000000000E+00
(PID.TID 0000.0001) %MON exf_runoff_sd                =   0.0000000000000E+00
(PID.TID 0000.0001) %MON exf_runoff_del2              =   0.0000000000000E+00
(PID.TID 0000.0001) %MON exf_climsst_max              =   0.0000000000000E+00
(PID.TID 0000.0001) %MON exf_climsst_min              =   0.0000000000000E+00
(PID.TID 0000.0001) %MON exf_climsst_mean             =   0.0000000000000E+00
(PID.TID 0000.0001) %MON exf_climsst_sd               =   0.0000000000000E+00
(PID.TID 0000.0001) %MON exf_climsst_del2             =   0.0000000000000E+00
(PID.TID 0000.0001) %MON exf_climsss_max              =   3.5041808863155E+01
(PID.TID 0000.0001) %MON exf_climsss_min              =   3.0672387795370E+01
(PID.TID 0000.0001) %MON exf_climsss_mean             =   3.3463490268825E+01
(PID.TID 0000.0001) %MON exf_climsss_sd               =   1.0313879583737E+00
(PID.TID 0000.0001) %MON exf_climsss_del2             =   1.0005612713826E-01
(PID.TID 0000.0001) // =======================================================
(PID.TID 0000.0001) // End MONITOR EXF statistics
(PID.TID 0000.0001) // =======================================================
 ph-ice B  8  0.  0.  0.
 ph-ice C  8  4.5814499E+11
 cg2d: Sum(rhs),rhsMax =   2.95457445974312E-08  1.16732732344648E+00
(PID.TID 0000.0001) // =======================================================
(PID.TID 0000.0001) // Begin MONITOR SEAICE statistics
(PID.TID 0000.0001) // =======================================================
(PID.TID 0000.0001) %MON seaice_tsnumber              =                     9
(PID.TID 0000.0001) %MON seaice_time_sec              =   3.2400000000000E+04
(PID.TID 0000.0001) %MON seaice_uice_max              =   2.6896759841883E-01
(PID.TID 0000.0001) %MON seaice_uice_min              =  -8.0042763880867E-02
(PID.TID 0000.0001) %MON seaice_uice_mean             =   6.2853308646504E-02
(PID.TID 0000.0001) %MON seaice_uice_sd               =   7.9023133712961E-02
(PID.TID 0000.0001) %MON seaice_uice_del2             =   7.8428669868333E-03
(PID.TID 0000.0001) %MON seaice_vice_max              =   7.8808436811740E-02
(PID.TID 0000.0001) %MON seaice_vice_min              =  -2.0876036218558E-01
(PID.TID 0000.0001) %MON seaice_vice_mean             =  -5.8595992573888E-02
(PID.TID 0000.0001) %MON seaice_vice_sd               =   6.4348765927069E-02
(PID.TID 0000.0001) %MON seaice_vice_del2             =   7.5771863093975E-03
(PID.TID 0000.0001) %MON seaice_area_max              =   1.0000000000000E+00
(PID.TID 0000.0001) %MON seaice_area_min              =   0.0000000000000E+00
(PID.TID 0000.0001) %MON seaice_area_mean             =   6.2385269763214E-01
(PID.TID 0000.0001) %MON seaice_area_sd               =   4.5701603320194E-01
(PID.TID 0000.0001) %MON seaice_area_del2             =   5.3473206875540E-02
(PID.TID 0000.0001) %MON seaice_heff_max              =   5.4880172478731E-01
(PID.TID 0000.0001) %MON seaice_heff_min              =   0.0000000000000E+00
(PID.TID 0000.0001) %MON seaice_heff_mean             =   1.4197223214735E-01
(PID.TID 0000.0001) %MON seaice_heff_sd               =   1.7470066407891E-01
(PID.TID 0000.0001) %MON seaice_heff_del2             =   1.3179487165135E-02
(PID.TID 0000.0001) %MON seaice_hsnow_max             =   2.0706544703537E-01
(PID.TID 0000.0001) %MON seaice_hsnow_min             =   0.0000000000000E+00
(PID.TID 0000.0001) %MON seaice_hsnow_mean            =   1.1888097080041E-01
(PID.TID 0000.0001) %MON seaice_hsnow_sd              =   9.7521343281969E-02
(PID.TID 0000.0001) %MON seaice_hsnow_del2            =   6.6252286451806E-03
(PID.TID 0000.0001) // =======================================================
(PID.TID 0000.0001) // End MONITOR SEAICE statistics
(PID.TID 0000.0001) // =======================================================
(PID.TID 0000.0001) // =======================================================
(PID.TID 0000.0001) // Begin MONITOR EXF statistics
(PID.TID 0000.0001) // =======================================================
(PID.TID 0000.0001) %MON exf_tsnumber                 =                     9
(PID.TID 0000.0001) %MON exf_time_sec                 =   3.2400000000000E+04
(PID.TID 0000.0001) %MON exf_ustress_max              =   5.2253931426656E-02
(PID.TID 0000.0001) %MON exf_ustress_min              =  -9.3801402378650E-02
(PID.TID 0000.0001) %MON exf_ustress_mean             =   1.7972509819802E-02
(PID.TID 0000.0001) %MON exf_ustress_sd               =   2.3737460831347E-02
(PID.TID 0000.0001) %MON exf_ustress_del2             =   2.8207100162461E-03
(PID.TID 0000.0001) %MON exf_vstress_max              =   5.3836885571564E-02
(PID.TID 0000.0001) %MON exf_vstress_min              =  -5.8402245568698E-02
(PID.TID 0000.0001) %MON exf_vstress_mean             =  -5.4330601493508E-03
(PID.TID 0000.0001) %MON exf_vstress_sd               =   1.4451995382009E-02
(PID.TID 0000.0001) %MON exf_vstress_del2             =   1.6932502865535E-03
(PID.TID 0000.0001) %MON exf_hflux_max                =   6.2523607820799E+02
(PID.TID 0000.0001) %MON exf_hflux_min                =  -5.1341825210305E+01
(PID.TID 0000.0001) %MON exf_hflux_mean               =   1.4650265831129E+02
(PID.TID 0000.0001) %MON exf_hflux_sd                 =   1.8009640838027E+02
(PID.TID 0000.0001) %MON exf_hflux_del2               =   1.6313497634125E+01
(PID.TID 0000.0001) %MON exf_sflux_max                =   3.9027165063396E-08
(PID.TID 0000.0001) %MON exf_sflux_min                =  -8.8881916005779E-08
(PID.TID 0000.0001) %MON exf_sflux_mean               =  -2.5931971276170E-08
(PID.TID 0000.0001) %MON exf_sflux_sd                 =   3.0353384751389E-08
(PID.TID 0000.0001) %MON exf_sflux_del2               =   3.1652755341735E-09
(PID.TID 0000.0001) %MON exf_uwind_max                =   6.4689416142761E+00
(PID.TID 0000.0001) %MON exf_uwind_min                =  -6.8374791086697E+00
(PID.TID 0000.0001) %MON exf_uwind_mean               =   2.7707407047028E+00
(PID.TID 0000.0001) %MON exf_uwind_sd                 =   2.9925253914175E+00
(PID.TID 0000.0001) %MON exf_uwind_del2               =   3.1578823099586E-01
(PID.TID 0000.0001) %MON exf_vwind_max                =   3.9243398396695E+00
(PID.TID 0000.0001) %MON exf_vwind_min                =  -6.0115501997901E+00
(PID.TID 0000.0001) %MON exf_vwind_mean               =  -7.5533872343860E-01
(PID.TID 0000.0001) %MON exf_vwind_sd                 =   1.7303202080462E+00
(PID.TID 0000.0001) %MON exf_vwind_del2               =   1.9327127420947E-01
(PID.TID 0000.0001) %MON exf_wspeed_max               =   7.8836263063842E+00
(PID.TID 0000.0001) %MON exf_wspeed_min               =   4.5816671047235E-01
(PID.TID 0000.0001) %MON exf_wspeed_mean              =   4.1990483480424E+00
(PID.TID 0000.0001) %MON exf_wspeed_sd                =   1.6014836406520E+00
(PID.TID 0000.0001) %MON exf_wspeed_del2              =   3.7741640417905E-01
(PID.TID 0000.0001) %MON exf_atemp_max                =   2.8186740312420E+02
(PID.TID 0000.0001) %MON exf_atemp_min                =   2.3642158439511E+02
(PID.TID 0000.0001) %MON exf_atemp_mean               =   2.6390426107320E+02
(PID.TID 0000.0001) %MON exf_atemp_sd                 =   1.1996580029013E+01
(PID.TID 0000.0001) %MON exf_atemp_del2               =   6.4959675648173E-01
(PID.TID 0000.0001) %MON exf_aqh_max                  =   6.3169040759170E-03
(PID.TID 0000.0001) %MON exf_aqh_min                  =   1.6284581668843E-04
(PID.TID 0000.0001) %MON exf_aqh_mean                 =   2.4753197025473E-03
(PID.TID 0000.0001) %MON exf_aqh_sd                   =   1.4255808388841E-03
(PID.TID 0000.0001) %MON exf_aqh_del2                 =   6.8018772549319E-05
(PID.TID 0000.0001) %MON exf_lwflux_max               =   1.8162256096872E+02
(PID.TID 0000.0001) %MON exf_lwflux_min               =   2.7024547891760E+01
(PID.TID 0000.0001) %MON exf_lwflux_mean              =   7.5295926111001E+01
(PID.TID 0000.0001) %MON exf_lwflux_sd                =   4.2777917184375E+01
(PID.TID 0000.0001) %MON exf_lwflux_del2              =   3.2320854098633E+00
(PID.TID 0000.0001) %MON exf_precip_max               =   1.0500009599131E-07
(PID.TID 0000.0001) %MON exf_precip_min               =   2.7238964868961E-10
(PID.TID 0000.0001) %MON exf_precip_mean              =   3.6389982946776E-08
(PID.TID 0000.0001) %MON exf_precip_sd                =   2.0582225664103E-08
(PID.TID 0000.0001) %MON exf_precip_del2              =   2.5599042244504E-09
(PID.TID 0000.0001) %MON exf_snowprecip_max           =   0.0000000000000E+00
(PID.TID 0000.0001) %MON exf_snowprecip_min           =   0.0000000000000E+00
(PID.TID 0000.0001) %MON exf_snowprecip_mean          =   0.0000000000000E+00
(PID.TID 0000.0001) %MON exf_snowprecip_sd            =   0.0000000000000E+00
(PID.TID 0000.0001) %MON exf_snowprecip_del2          =   0.0000000000000E+00
(PID.TID 0000.0001) %MON exf_swflux_max               =  -8.1208301372215E-02
(PID.TID 0000.0001) %MON exf_swflux_min               =  -6.4142947168819E+01
(PID.TID 0000.0001) %MON exf_swflux_mean              =  -2.6548012965822E+01
(PID.TID 0000.0001) %MON exf_swflux_sd                =   1.9660442927159E+01
(PID.TID 0000.0001) %MON exf_swflux_del2              =   4.7997463106648E-01
(PID.TID 0000.0001) %MON exf_evap_max                 =   4.5345408489115E-08
(PID.TID 0000.0001) %MON exf_evap_min                 =  -4.2118523685383E-09
(PID.TID 0000.0001) %MON exf_evap_mean                =   1.0458011670606E-08
(PID.TID 0000.0001) %MON exf_evap_sd                  =   1.1076056305706E-08
(PID.TID 0000.0001) %MON exf_evap_del2                =   1.3338843841358E-09
(PID.TID 0000.0001) %MON exf_swdown_max               =   7.1269941298688E+01
(PID.TID 0000.0001) %MON exf_swdown_min               =   9.0231445969128E-02
(PID.TID 0000.0001) %MON exf_swdown_mean              =   2.9497792184247E+01
(PID.TID 0000.0001) %MON exf_swdown_sd                =   2.1844936585733E+01
(PID.TID 0000.0001) %MON exf_swdown_del2              =   5.3330514562942E-01
(PID.TID 0000.0001) %MON exf_lwdown_max               =   3.0560028326316E+02
(PID.TID 0000.0001) %MON exf_lwdown_min               =   1.1586173020035E+02
(PID.TID 0000.0001) %MON exf_lwdown_mean              =   2.2580795099755E+02
(PID.TID 0000.0001) %MON exf_lwdown_sd                =   4.6313195660870E+01
(PID.TID 0000.0001) %MON exf_lwdown_del2              =   3.2439260573465E+00
(PID.TID 0000.0001) %MON exf_apressure_max            =   0.0000000000000E+00
(PID.TID 0000.0001) %MON exf_apressure_min            =   0.0000000000000E+00
(PID.TID 0000.0001) %MON exf_apressure_mean           =   0.0000000000000E+00
(PID.TID 0000.0001) %MON exf_apressure_sd             =   0.0000000000000E+00
(PID.TID 0000.0001) %MON exf_apressure_del2           =   0.0000000000000E+00
(PID.TID 0000.0001) %MON exf_runoff_max               =   0.0000000000000E+00
(PID.TID 0000.0001) %MON exf_runoff_min               =   0.0000000000000E+00
(PID.TID 0000.0001) %MON exf_runoff_mean              =   0.0000000000000E+00
(PID.TID 0000.0001) %MON exf_runoff_sd                =   0.0000000000000E+00
(PID.TID 0000.0001) %MON exf_runoff_del2              =   0.0000000000000E+00
(PID.TID 0000.0001) %MON exf_climsst_max              =   0.0000000000000E+00
(PID.TID 0000.0001) %MON exf_climsst_min              =   0.0000000000000E+00
(PID.TID 0000.0001) %MON exf_climsst_mean             =   0.0000000000000E+00
(PID.TID 0000.0001) %MON exf_climsst_sd               =   0.0000000000000E+00
(PID.TID 0000.0001) %MON exf_climsst_del2             =   0.0000000000000E+00
(PID.TID 0000.0001) %MON exf_climsss_max              =   3.5041993610194E+01
(PID.TID 0000.0001) %MON exf_climsss_min              =   3.0673147123368E+01
(PID.TID 0000.0001) %MON exf_climsss_mean             =   3.3464011602304E+01
(PID.TID 0000.0001) %MON exf_climsss_sd               =   1.0313181272348E+00
(PID.TID 0000.0001) %MON exf_climsss_del2             =   1.0003889784787E-01
(PID.TID 0000.0001) // =======================================================
(PID.TID 0000.0001) // End MONITOR EXF statistics
(PID.TID 0000.0001) // =======================================================
 ph-ice B  9  0.  0.  0.
 ph-ice C  9  5.08667305E+11
 cg2d: Sum(rhs),rhsMax =   2.90788550079413E-08  1.15038865804170E+00
(PID.TID 0000.0001) // =======================================================
(PID.TID 0000.0001) // Begin MONITOR SEAICE statistics
(PID.TID 0000.0001) // =======================================================
(PID.TID 0000.0001) %MON seaice_tsnumber              =                    10
(PID.TID 0000.0001) %MON seaice_time_sec              =   3.6000000000000E+04
(PID.TID 0000.0001) %MON seaice_uice_max              =   2.6070781925070E-01
(PID.TID 0000.0001) %MON seaice_uice_min              =  -7.4569485540672E-02
(PID.TID 0000.0001) %MON seaice_uice_mean             =   5.6948249269227E-02
(PID.TID 0000.0001) %MON seaice_uice_sd               =   7.3694371234930E-02
(PID.TID 0000.0001) %MON seaice_uice_del2             =   6.9822815058424E-03
(PID.TID 0000.0001) %MON seaice_vice_max              =   7.2855153888681E-02
(PID.TID 0000.0001) %MON seaice_vice_min              =  -1.8167527187536E-01
(PID.TID 0000.0001) %MON seaice_vice_mean             =  -5.2953435545987E-02
(PID.TID 0000.0001) %MON seaice_vice_sd               =   5.6405662132294E-02
(PID.TID 0000.0001) %MON seaice_vice_del2             =   6.8591576938443E-03
(PID.TID 0000.0001) %MON seaice_area_max              =   1.0000000000000E+00
(PID.TID 0000.0001) %MON seaice_area_min              =   0.0000000000000E+00
(PID.TID 0000.0001) %MON seaice_area_mean             =   6.2310743740094E-01
(PID.TID 0000.0001) %MON seaice_area_sd               =   4.5675715897628E-01
(PID.TID 0000.0001) %MON seaice_area_del2             =   5.3102396661567E-02
(PID.TID 0000.0001) %MON seaice_heff_max              =   5.4914440244121E-01
(PID.TID 0000.0001) %MON seaice_heff_min              =   0.0000000000000E+00
(PID.TID 0000.0001) %MON seaice_heff_mean             =   1.4181984498598E-01
(PID.TID 0000.0001) %MON seaice_heff_sd               =   1.7482874985307E-01
(PID.TID 0000.0001) %MON seaice_heff_del2             =   1.3169867851140E-02
(PID.TID 0000.0001) %MON seaice_hsnow_max             =   2.0785054838239E-01
(PID.TID 0000.0001) %MON seaice_hsnow_min             =   0.0000000000000E+00
(PID.TID 0000.0001) %MON seaice_hsnow_mean            =   1.1901259282146E-01
(PID.TID 0000.0001) %MON seaice_hsnow_sd              =   9.7627028725843E-02
(PID.TID 0000.0001) %MON seaice_hsnow_del2            =   6.6467676522871E-03
(PID.TID 0000.0001) // =======================================================
(PID.TID 0000.0001) // End MONITOR SEAICE statistics
(PID.TID 0000.0001) // =======================================================
(PID.TID 0000.0001)  MDS_READ_FIELD: opening file: xx_atemp.0000000000.001.001.data
(PID.TID 0000.0001)  MDS_READ_FIELD: opening file: xx_atemp.0000000000.001.001.data
(PID.TID 0000.0001)  MDS_READ_FIELD: opening file: xx_aqh.0000000000.001.001.data
(PID.TID 0000.0001)  MDS_READ_FIELD: opening file: xx_aqh.0000000000.001.001.data
(PID.TID 0000.0001)  MDS_READ_FIELD: opening file: xx_precip.0000000000.001.001.data
(PID.TID 0000.0001)  MDS_READ_FIELD: opening file: xx_precip.0000000000.001.001.data
(PID.TID 0000.0001)  MDS_READ_FIELD: opening file: xx_swdown.0000000000.001.001.data
(PID.TID 0000.0001)  MDS_READ_FIELD: opening file: xx_swdown.0000000000.001.001.data
(PID.TID 0000.0001)  MDS_READ_FIELD: opening file: xx_lwdown.0000000000.001.001.data
(PID.TID 0000.0001)  MDS_READ_FIELD: opening file: xx_lwdown.0000000000.001.001.data
(PID.TID 0000.0001)  MDS_READ_FIELD: opening file: xx_snowprecip.0000000000.001.001.data
(PID.TID 0000.0001)  MDS_READ_FIELD: opening file: xx_snowprecip.0000000000.001.001.data
(PID.TID 0000.0001)  MDS_READ_FIELD: opening file: xx_apressure.0000000000.001.001.data
(PID.TID 0000.0001)  MDS_READ_FIELD: opening file: xx_apressure.0000000000.001.001.data
(PID.TID 0000.0001)  MDS_READ_FIELD: opening file: xx_uwind.0000000000.001.001.data
(PID.TID 0000.0001)  MDS_READ_FIELD: opening file: xx_uwind.0000000000.001.001.data
(PID.TID 0000.0001)  MDS_READ_FIELD: opening file: xx_vwind.0000000000.001.001.data
(PID.TID 0000.0001)  MDS_READ_FIELD: opening file: xx_vwind.0000000000.001.001.data
 ph-ice B  0  0.  0.  0.
 ph-ice C  0  5.30354909E+10
 cg2d: Sum(rhs),rhsMax =   1.05818132034585E-15  9.93037467350620E-01
(PID.TID 0000.0001) // =======================================================
(PID.TID 0000.0001) // Begin MONITOR SEAICE statistics
(PID.TID 0000.0001) // =======================================================
(PID.TID 0000.0001) %MON seaice_tsnumber              =                     1
(PID.TID 0000.0001) %MON seaice_time_sec              =   3.6000000000000E+03
(PID.TID 0000.0001) %MON seaice_uice_max              =   1.1830188588838E-01
(PID.TID 0000.0001) %MON seaice_uice_min              =  -3.6947667601810E-02
(PID.TID 0000.0001) %MON seaice_uice_mean             =   4.6351011395841E-02
(PID.TID 0000.0001) %MON seaice_uice_sd               =   4.4551623876367E-02
(PID.TID 0000.0001) %MON seaice_uice_del2             =   2.6893939150909E-03
(PID.TID 0000.0001) %MON seaice_vice_max              =   3.8048078875392E-02
(PID.TID 0000.0001) %MON seaice_vice_min              =  -7.2208311040469E-02
(PID.TID 0000.0001) %MON seaice_vice_mean             =  -1.7212953413442E-02
(PID.TID 0000.0001) %MON seaice_vice_sd               =   2.7498420195410E-02
(PID.TID 0000.0001) %MON seaice_vice_del2             =   2.2712992187913E-03
(PID.TID 0000.0001) %MON seaice_area_max              =   1.0000000000000E+00
(PID.TID 0000.0001) %MON seaice_area_min              =   0.0000000000000E+00
(PID.TID 0000.0001) %MON seaice_area_mean             =   6.3240418008182E-01
(PID.TID 0000.0001) %MON seaice_area_sd               =   4.5166862134438E-01
(PID.TID 0000.0001) %MON seaice_area_del2             =   4.7454801422287E-02
(PID.TID 0000.0001) %MON seaice_heff_max              =   6.0076635272005E-01
(PID.TID 0000.0001) %MON seaice_heff_min              =   0.0000000000000E+00
(PID.TID 0000.0001) %MON seaice_heff_mean             =   1.4887451421175E-01
(PID.TID 0000.0001) %MON seaice_heff_sd               =   1.8287366826742E-01
(PID.TID 0000.0001) %MON seaice_heff_del2             =   1.0146605918607E-02
(PID.TID 0000.0001) %MON seaice_hsnow_max             =   2.0078474686707E-01
(PID.TID 0000.0001) %MON seaice_hsnow_min             =   0.0000000000000E+00
(PID.TID 0000.0001) %MON seaice_hsnow_mean            =   1.1848697056338E-01
(PID.TID 0000.0001) %MON seaice_hsnow_sd              =   9.6623972770983E-02
(PID.TID 0000.0001) %MON seaice_hsnow_del2            =   6.2688952170602E-03
(PID.TID 0000.0001) // =======================================================
(PID.TID 0000.0001) // End MONITOR SEAICE statistics
(PID.TID 0000.0001) // =======================================================
 ph-ice B  1  0.  0.  0.
 ph-ice C  1  1.03662085E+11
 cg2d: Sum(rhs),rhsMax =   9.71447922104574E-10  1.19254195625089E+00
(PID.TID 0000.0001) // =======================================================
(PID.TID 0000.0001) // Begin MONITOR SEAICE statistics
(PID.TID 0000.0001) // =======================================================
(PID.TID 0000.0001) %MON seaice_tsnumber              =                     2
(PID.TID 0000.0001) %MON seaice_time_sec              =   7.2000000000000E+03
(PID.TID 0000.0001) %MON seaice_uice_max              =   1.5575757117815E-01
(PID.TID 0000.0001) %MON seaice_uice_min              =  -8.0942741430966E-02
(PID.TID 0000.0001) %MON seaice_uice_mean             =   6.5168649829382E-02
(PID.TID 0000.0001) %MON seaice_uice_sd               =   6.1631643089350E-02
(PID.TID 0000.0001) %MON seaice_uice_del2             =   6.8706904523403E-03
(PID.TID 0000.0001) %MON seaice_vice_max              =   7.0616929390505E-02
(PID.TID 0000.0001) %MON seaice_vice_min              =  -1.3662299947234E-01
(PID.TID 0000.0001) %MON seaice_vice_mean             =  -2.1829812692631E-02
(PID.TID 0000.0001) %MON seaice_vice_sd               =   4.1312329526262E-02
(PID.TID 0000.0001) %MON seaice_vice_del2             =   5.3521934566396E-03
(PID.TID 0000.0001) %MON seaice_area_max              =   1.0000000000000E+00
(PID.TID 0000.0001) %MON seaice_area_min              =   0.0000000000000E+00
(PID.TID 0000.0001) %MON seaice_area_mean             =   6.2511455210173E-01
(PID.TID 0000.0001) %MON seaice_area_sd               =   4.5918073702415E-01
(PID.TID 0000.0001) %MON seaice_area_del2             =   5.3309150568192E-02
(PID.TID 0000.0001) %MON seaice_heff_max              =   5.5572638142240E-01
(PID.TID 0000.0001) %MON seaice_heff_min              =   0.0000000000000E+00
(PID.TID 0000.0001) %MON seaice_heff_mean             =   1.4211256278540E-01
(PID.TID 0000.0001) %MON seaice_heff_sd               =   1.7471336181798E-01
(PID.TID 0000.0001) %MON seaice_heff_del2             =   1.3300800072063E-02
(PID.TID 0000.0001) %MON seaice_hsnow_max             =   2.0156957952176E-01
(PID.TID 0000.0001) %MON seaice_hsnow_min             =   0.0000000000000E+00
(PID.TID 0000.0001) %MON seaice_hsnow_mean            =   1.1798259565184E-01
(PID.TID 0000.0001) %MON seaice_hsnow_sd              =   9.6675387962263E-02
(PID.TID 0000.0001) %MON seaice_hsnow_del2            =   6.3372971187471E-03
(PID.TID 0000.0001) // =======================================================
(PID.TID 0000.0001) // End MONITOR SEAICE statistics
(PID.TID 0000.0001) // =======================================================
 ph-ice B  2  0.  0.  0.
 ph-ice C  2  1.54286126E+11
 cg2d: Sum(rhs),rhsMax =  -4.69103086236933E-10  1.21345933320236E+00
(PID.TID 0000.0001) // =======================================================
(PID.TID 0000.0001) // Begin MONITOR SEAICE statistics
(PID.TID 0000.0001) // =======================================================
(PID.TID 0000.0001) %MON seaice_tsnumber              =                     3
(PID.TID 0000.0001) %MON seaice_time_sec              =   1.0800000000000E+04
(PID.TID 0000.0001) %MON seaice_uice_max              =   1.7677554873066E-01
(PID.TID 0000.0001) %MON seaice_uice_min              =  -9.9473388719801E-02
(PID.TID 0000.0001) %MON seaice_uice_mean             =   7.5385002134152E-02
(PID.TID 0000.0001) %MON seaice_uice_sd               =   7.1157132925500E-02
(PID.TID 0000.0001) %MON seaice_uice_del2             =   8.3170550197997E-03
(PID.TID 0000.0001) %MON seaice_vice_max              =   8.9019951763650E-02
(PID.TID 0000.0001) %MON seaice_vice_min              =  -1.7696029803923E-01
(PID.TID 0000.0001) %MON seaice_vice_mean             =  -2.9256776467238E-02
(PID.TID 0000.0001) %MON seaice_vice_sd               =   5.2264404142872E-02
(PID.TID 0000.0001) %MON seaice_vice_del2             =   6.1178194889854E-03
(PID.TID 0000.0001) %MON seaice_area_max              =   1.0000000000000E+00
(PID.TID 0000.0001) %MON seaice_area_min              =   0.0000000000000E+00
(PID.TID 0000.0001) %MON seaice_area_mean             =   6.2473165128378E-01
(PID.TID 0000.0001) %MON seaice_area_sd               =   4.5913418284737E-01
(PID.TID 0000.0001) %MON seaice_area_del2             =   5.3480662075854E-02
(PID.TID 0000.0001) %MON seaice_heff_max              =   5.5368221576291E-01
(PID.TID 0000.0001) %MON seaice_heff_min              =   0.0000000000000E+00
(PID.TID 0000.0001) %MON seaice_heff_mean             =   1.4210539863367E-01
(PID.TID 0000.0001) %MON seaice_heff_sd               =   1.7434508667247E-01
(PID.TID 0000.0001) %MON seaice_heff_del2             =   1.3231250044035E-02
(PID.TID 0000.0001) %MON seaice_hsnow_max             =   2.0235454638389E-01
(PID.TID 0000.0001) %MON seaice_hsnow_min             =   0.0000000000000E+00
(PID.TID 0000.0001) %MON seaice_hsnow_mean            =   1.1801725658723E-01
(PID.TID 0000.0001) %MON seaice_hsnow_sd              =   9.6786605530350E-02
(PID.TID 0000.0001) %MON seaice_hsnow_del2            =   6.3531464967009E-03
(PID.TID 0000.0001) // =======================================================
(PID.TID 0000.0001) // End MONITOR SEAICE statistics
(PID.TID 0000.0001) // =======================================================
 ph-ice B  3  0.  0.  0.
 ph-ice C  3  2.0493353E+11
 cg2d: Sum(rhs),rhsMax =   3.25075245229123E-08  1.21053584963592E+00
(PID.TID 0000.0001) // =======================================================
(PID.TID 0000.0001) // Begin MONITOR SEAICE statistics
(PID.TID 0000.0001) // =======================================================
(PID.TID 0000.0001) %MON seaice_tsnumber              =                     4
(PID.TID 0000.0001) %MON seaice_time_sec              =   1.4400000000000E+04
(PID.TID 0000.0001) %MON seaice_uice_max              =   2.0410589049012E-01
(PID.TID 0000.0001) %MON seaice_uice_min              =  -1.0820664027344E-01
(PID.TID 0000.0001) %MON seaice_uice_mean             =   8.1218833503216E-02
(PID.TID 0000.0001) %MON seaice_uice_sd               =   7.8521023636248E-02
(PID.TID 0000.0001) %MON seaice_uice_del2             =   9.4129548163229E-03
(PID.TID 0000.0001) %MON seaice_vice_max              =   9.9288343326873E-02
(PID.TID 0000.0001) %MON seaice_vice_min              =  -1.9612309364105E-01
(PID.TID 0000.0001) %MON seaice_vice_mean             =  -3.7794416141245E-02
(PID.TID 0000.0001) %MON seaice_vice_sd               =   6.1057438101180E-02
(PID.TID 0000.0001) %MON seaice_vice_del2             =   6.9481562975607E-03
(PID.TID 0000.0001) %MON seaice_area_max              =   1.0000000000000E+00
(PID.TID 0000.0001) %MON seaice_area_min              =   0.0000000000000E+00
(PID.TID 0000.0001) %MON seaice_area_mean             =   6.2448964133970E-01
(PID.TID 0000.0001) %MON seaice_area_sd               =   4.5884276157094E-01
(PID.TID 0000.0001) %MON seaice_area_del2             =   5.3567607319525E-02
(PID.TID 0000.0001) %MON seaice_heff_max              =   5.5146835059086E-01
(PID.TID 0000.0001) %MON seaice_heff_min              =   0.0000000000000E+00
(PID.TID 0000.0001) %MON seaice_heff_mean             =   1.4217098028130E-01
(PID.TID 0000.0001) %MON seaice_heff_sd               =   1.7417998529713E-01
(PID.TID 0000.0001) %MON seaice_heff_del2             =   1.3240081984540E-02
(PID.TID 0000.0001) %MON seaice_hsnow_max             =   2.0313961711978E-01
(PID.TID 0000.0001) %MON seaice_hsnow_min             =   0.0000000000000E+00
(PID.TID 0000.0001) %MON seaice_hsnow_mean            =   1.1810788894706E-01
(PID.TID 0000.0001) %MON seaice_hsnow_sd              =   9.6917239052165E-02
(PID.TID 0000.0001) %MON seaice_hsnow_del2            =   6.4249667980587E-03
(PID.TID 0000.0001) // =======================================================
(PID.TID 0000.0001) // End MONITOR SEAICE statistics
(PID.TID 0000.0001) // =======================================================
 ph-ice B  4  0.  0.  0.
 ph-ice C  4  2.55604433E+11
 cg2d: Sum(rhs),rhsMax =   3.22655387095805E-08  1.20538351326606E+00
(PID.TID 0000.0001) // =======================================================
(PID.TID 0000.0001) // Begin MONITOR SEAICE statistics
(PID.TID 0000.0001) // =======================================================
(PID.TID 0000.0001) %MON seaice_tsnumber              =                     5
(PID.TID 0000.0001) %MON seaice_time_sec              =   1.8000000000000E+04
(PID.TID 0000.0001) %MON seaice_uice_max              =   2.1945387278073E-01
(PID.TID 0000.0001) %MON seaice_uice_min              =  -1.0939009902186E-01
(PID.TID 0000.0001) %MON seaice_uice_mean             =   8.3081274324015E-02
(PID.TID 0000.0001) %MON seaice_uice_sd               =   8.3462882724915E-02
(PID.TID 0000.0001) %MON seaice_uice_del2             =   1.0024723364688E-02
(PID.TID 0000.0001) %MON seaice_vice_max              =   1.0086664481374E-01
(PID.TID 0000.0001) %MON seaice_vice_min              =  -1.9808188880879E-01
(PID.TID 0000.0001) %MON seaice_vice_mean             =  -4.6968653010694E-02
(PID.TID 0000.0001) %MON seaice_vice_sd               =   6.7920791214941E-02
(PID.TID 0000.0001) %MON seaice_vice_del2             =   7.5957084986046E-03
(PID.TID 0000.0001) %MON seaice_area_max              =   1.0000000000000E+00
(PID.TID 0000.0001) %MON seaice_area_min              =   0.0000000000000E+00
(PID.TID 0000.0001) %MON seaice_area_mean             =   6.2430150051055E-01
(PID.TID 0000.0001) %MON seaice_area_sd               =   4.5848056987791E-01
(PID.TID 0000.0001) %MON seaice_area_del2             =   5.3615010685217E-02
(PID.TID 0000.0001) %MON seaice_heff_max              =   5.4903937822394E-01
(PID.TID 0000.0001) %MON seaice_heff_min              =   0.0000000000000E+00
(PID.TID 0000.0001) %MON seaice_heff_mean             =   1.4223694277275E-01
(PID.TID 0000.0001) %MON seaice_heff_sd               =   1.7414926032458E-01
(PID.TID 0000.0001) %MON seaice_heff_del2             =   1.3251391165383E-02
(PID.TID 0000.0001) %MON seaice_hsnow_max             =   2.0392476353420E-01
(PID.TID 0000.0001) %MON seaice_hsnow_min             =   0.0000000000000E+00
(PID.TID 0000.0001) %MON seaice_hsnow_mean            =   1.1825099134585E-01
(PID.TID 0000.0001) %MON seaice_hsnow_sd              =   9.7044356048364E-02
(PID.TID 0000.0001) %MON seaice_hsnow_del2            =   6.4762509698941E-03
(PID.TID 0000.0001) // =======================================================
(PID.TID 0000.0001) // End MONITOR SEAICE statistics
(PID.TID 0000.0001) // =======================================================
 ph-ice B  5  0.  0.  0.
 ph-ice C  5  3.06281465E+11
 cg2d: Sum(rhs),rhsMax =   3.20073144412236E-08  1.19996672315758E+00
(PID.TID 0000.0001) // =======================================================
(PID.TID 0000.0001) // Begin MONITOR SEAICE statistics
(PID.TID 0000.0001) // =======================================================
(PID.TID 0000.0001) %MON seaice_tsnumber              =                     6
(PID.TID 0000.0001) %MON seaice_time_sec              =   2.1600000000000E+04
(PID.TID 0000.0001) %MON seaice_uice_max              =   2.3992745109673E-01
(PID.TID 0000.0001) %MON seaice_uice_min              =  -1.0534849502405E-01
(PID.TID 0000.0001) %MON seaice_uice_mean             =   8.0979127444357E-02
(PID.TID 0000.0001) %MON seaice_uice_sd               =   8.5693593471125E-02
(PID.TID 0000.0001) %MON seaice_uice_del2             =   1.0079077521867E-02
(PID.TID 0000.0001) %MON seaice_vice_max              =   9.8351447679097E-02
(PID.TID 0000.0001) %MON seaice_vice_min              =  -2.1228924533081E-01
(PID.TID 0000.0001) %MON seaice_vice_mean             =  -5.4937412936197E-02
(PID.TID 0000.0001) %MON seaice_vice_sd               =   7.2061963501574E-02
(PID.TID 0000.0001) %MON seaice_vice_del2             =   8.0226433245267E-03
(PID.TID 0000.0001) %MON seaice_area_max              =   1.0000000000000E+00
(PID.TID 0000.0001) %MON seaice_area_min              =   0.0000000000000E+00
(PID.TID 0000.0001) %MON seaice_area_mean             =   6.2417688265085E-01
(PID.TID 0000.0001) %MON seaice_area_sd               =   4.5808407403965E-01
(PID.TID 0000.0001) %MON seaice_area_del2             =   5.3631206810951E-02
(PID.TID 0000.0001) %MON seaice_heff_max              =   5.4790358803121E-01
(PID.TID 0000.0001) %MON seaice_heff_min              =   0.0000000000000E+00
(PID.TID 0000.0001) %MON seaice_heff_mean             =   1.4225414452692E-01
(PID.TID 0000.0001) %MON seaice_heff_sd               =   1.7422581482589E-01
(PID.TID 0000.0001) %MON seaice_heff_del2             =   1.3240855338383E-02
(PID.TID 0000.0001) %MON seaice_hsnow_max             =   2.0470995401277E-01
(PID.TID 0000.0001) %MON seaice_hsnow_min             =   0.0000000000000E+00
(PID.TID 0000.0001) %MON seaice_hsnow_mean            =   1.1841143347447E-01
(PID.TID 0000.0001) %MON seaice_hsnow_sd              =   9.7165681939073E-02
(PID.TID 0000.0001) %MON seaice_hsnow_del2            =   6.5148328833595E-03
(PID.TID 0000.0001) // =======================================================
(PID.TID 0000.0001) // End MONITOR SEAICE statistics
(PID.TID 0000.0001) // =======================================================
 ph-ice B  6  0.  0.  0.
 ph-ice C  6  3.56942995E+11
 cg2d: Sum(rhs),rhsMax =   3.26975544175101E-08  1.19247381688730E+00
(PID.TID 0000.0001) // =======================================================
(PID.TID 0000.0001) // Begin MONITOR SEAICE statistics
(PID.TID 0000.0001) // =======================================================
(PID.TID 0000.0001) %MON seaice_tsnumber              =                     7
(PID.TID 0000.0001) %MON seaice_time_sec              =   2.5200000000000E+04
(PID.TID 0000.0001) %MON seaice_uice_max              =   2.5685227045056E-01
(PID.TID 0000.0001) %MON seaice_uice_min              =  -9.7750591653197E-02
(PID.TID 0000.0001) %MON seaice_uice_mean             =   7.6052919078779E-02
(PID.TID 0000.0001) %MON seaice_uice_sd               =   8.5420339140394E-02
(PID.TID 0000.0001) %MON seaice_uice_del2             =   9.6585238964612E-03
(PID.TID 0000.0001) %MON seaice_vice_max              =   9.3826162067744E-02
(PID.TID 0000.0001) %MON seaice_vice_min              =  -2.2536421280571E-01
(PID.TID 0000.0001) %MON seaice_vice_mean             =  -6.0012495784685E-02
(PID.TID 0000.0001) %MON seaice_vice_sd               =   7.2852763525401E-02
(PID.TID 0000.0001) %MON seaice_vice_del2             =   8.1655846767214E-03
(PID.TID 0000.0001) %MON seaice_area_max              =   1.0000000000000E+00
(PID.TID 0000.0001) %MON seaice_area_min              =   0.0000000000000E+00
(PID.TID 0000.0001) %MON seaice_area_mean             =   6.2408688458691E-01
(PID.TID 0000.0001) %MON seaice_area_sd               =   4.5772399922323E-01
(PID.TID 0000.0001) %MON seaice_area_del2             =   5.3629428844417E-02
(PID.TID 0000.0001) %MON seaice_heff_max              =   5.4815057630964E-01
(PID.TID 0000.0001) %MON seaice_heff_min              =   0.0000000000000E+00
(PID.TID 0000.0001) %MON seaice_heff_mean             =   1.4221063404070E-01
(PID.TID 0000.0001) %MON seaice_heff_sd               =   1.7437182367196E-01
(PID.TID 0000.0001) %MON seaice_heff_del2             =   1.3220450137201E-02
(PID.TID 0000.0001) %MON seaice_hsnow_max             =   2.0549515084231E-01
(PID.TID 0000.0001) %MON seaice_hsnow_min             =   0.0000000000000E+00
(PID.TID 0000.0001) %MON seaice_hsnow_mean            =   1.1857184786438E-01
(PID.TID 0000.0001) %MON seaice_hsnow_sd              =   9.7287286136380E-02
(PID.TID 0000.0001) %MON seaice_hsnow_del2            =   6.5537586324299E-03
(PID.TID 0000.0001) // =======================================================
(PID.TID 0000.0001) // End MONITOR SEAICE statistics
(PID.TID 0000.0001) // =======================================================
 ph-ice B  7  0.  0.  0.
 ph-ice C  7  4.07568388E+11
 cg2d: Sum(rhs),rhsMax =   3.08544878743766E-08  1.18167591176059E+00
(PID.TID 0000.0001) // =======================================================
(PID.TID 0000.0001) // Begin MONITOR SEAICE statistics
(PID.TID 0000.0001) // =======================================================
(PID.TID 0000.0001) %MON seaice_tsnumber              =                     8
(PID.TID 0000.0001) %MON seaice_time_sec              =   2.8800000000000E+04
(PID.TID 0000.0001) %MON seaice_uice_max              =   2.6752956373033E-01
(PID.TID 0000.0001) %MON seaice_uice_min              =  -8.8502450662207E-02
(PID.TID 0000.0001) %MON seaice_uice_mean             =   6.9613024766212E-02
(PID.TID 0000.0001) %MON seaice_uice_sd               =   8.3091311185039E-02
(PID.TID 0000.0001) %MON seaice_uice_del2             =   8.8606511909184E-03
(PID.TID 0000.0001) %MON seaice_vice_max              =   8.6568020768166E-02
(PID.TID 0000.0001) %MON seaice_vice_min              =  -2.2434575858616E-01
(PID.TID 0000.0001) %MON seaice_vice_mean             =  -6.1223752109161E-02
(PID.TID 0000.0001) %MON seaice_vice_sd               =   7.0132225581223E-02
(PID.TID 0000.0001) %MON seaice_vice_del2             =   8.0005821962568E-03
(PID.TID 0000.0001) %MON seaice_area_max              =   1.0000000000000E+00
(PID.TID 0000.0001) %MON seaice_area_min              =   0.0000000000000E+00
(PID.TID 0000.0001) %MON seaice_area_mean             =   6.2402840595208E-01
(PID.TID 0000.0001) %MON seaice_area_sd               =   4.5740422452438E-01
(PID.TID 0000.0001) %MON seaice_area_del2             =   5.3616903054160E-02
(PID.TID 0000.0001) %MON seaice_heff_max              =   5.4845941034800E-01
(PID.TID 0000.0001) %MON seaice_heff_min              =   0.0000000000000E+00
(PID.TID 0000.0001) %MON seaice_heff_mean             =   1.4210919265671E-01
(PID.TID 0000.0001) %MON seaice_heff_sd               =   1.7454232422185E-01
(PID.TID 0000.0001) %MON seaice_heff_del2             =   1.3200108914835E-02
(PID.TID 0000.0001) %MON seaice_hsnow_max             =   2.0628031960974E-01
(PID.TID 0000.0001) %MON seaice_hsnow_min             =   0.0000000000000E+00
(PID.TID 0000.0001) %MON seaice_hsnow_mean            =   1.1873224112862E-01
(PID.TID 0000.0001) %MON seaice_hsnow_sd              =   9.7409172567973E-02
(PID.TID 0000.0001) %MON seaice_hsnow_del2            =   6.5932180713433E-03
(PID.TID 0000.0001) // =======================================================
(PID.TID 0000.0001) // End MONITOR SEAICE statistics
(PID.TID 0000.0001) // =======================================================
 ph-ice B  8  0.  0.  0.
 ph-ice C  8  4.5814502E+11
 cg2d: Sum(rhs),rhsMax =   2.95457403438892E-08  1.16732732344646E+00
(PID.TID 0000.0001) // =======================================================
(PID.TID 0000.0001) // Begin MONITOR SEAICE statistics
(PID.TID 0000.0001) // =======================================================
(PID.TID 0000.0001) %MON seaice_tsnumber              =                     9
(PID.TID 0000.0001) %MON seaice_time_sec              =   3.2400000000000E+04
(PID.TID 0000.0001) %MON seaice_uice_max              =   2.6896759841883E-01
(PID.TID 0000.0001) %MON seaice_uice_min              =  -8.0042763880867E-02
(PID.TID 0000.0001) %MON seaice_uice_mean             =   6.2853308646504E-02
(PID.TID 0000.0001) %MON seaice_uice_sd               =   7.9023133712961E-02
(PID.TID 0000.0001) %MON seaice_uice_del2             =   7.8428669868333E-03
(PID.TID 0000.0001) %MON seaice_vice_max              =   7.8808436811740E-02
(PID.TID 0000.0001) %MON seaice_vice_min              =  -2.0876036218558E-01
(PID.TID 0000.0001) %MON seaice_vice_mean             =  -5.8595992573888E-02
(PID.TID 0000.0001) %MON seaice_vice_sd               =   6.4348765927069E-02
(PID.TID 0000.0001) %MON seaice_vice_del2             =   7.5771863093975E-03
(PID.TID 0000.0001) %MON seaice_area_max              =   1.0000000000000E+00
(PID.TID 0000.0001) %MON seaice_area_min              =   0.0000000000000E+00
(PID.TID 0000.0001) %MON seaice_area_mean             =   6.2385269763214E-01
(PID.TID 0000.0001) %MON seaice_area_sd               =   4.5701603320194E-01
(PID.TID 0000.0001) %MON seaice_area_del2             =   5.3473206875540E-02
(PID.TID 0000.0001) %MON seaice_heff_max              =   5.4880172478731E-01
(PID.TID 0000.0001) %MON seaice_heff_min              =   0.0000000000000E+00
(PID.TID 0000.0001) %MON seaice_heff_mean             =   1.4197231537048E-01
(PID.TID 0000.0001) %MON seaice_heff_sd               =   1.7470059648726E-01
(PID.TID 0000.0001) %MON seaice_heff_del2             =   1.3179457863634E-02
(PID.TID 0000.0001) %MON seaice_hsnow_max             =   2.0706544703537E-01
(PID.TID 0000.0001) %MON seaice_hsnow_min             =   0.0000000000000E+00
(PID.TID 0000.0001) %MON seaice_hsnow_mean            =   1.1888097080041E-01
(PID.TID 0000.0001) %MON seaice_hsnow_sd              =   9.7521343281969E-02
(PID.TID 0000.0001) %MON seaice_hsnow_del2            =   6.6252286451806E-03
(PID.TID 0000.0001) // =======================================================
(PID.TID 0000.0001) // End MONITOR SEAICE statistics
(PID.TID 0000.0001) // =======================================================
 ph-ice B  9  0.  0.  0.
 ph-ice C  9  5.08667365E+11
 cg2d: Sum(rhs),rhsMax =   2.90788489468174E-08  1.15038865804172E+00
(PID.TID 0000.0001) // =======================================================
(PID.TID 0000.0001) // Begin MONITOR SEAICE statistics
(PID.TID 0000.0001) // =======================================================
(PID.TID 0000.0001) %MON seaice_tsnumber              =                    10
(PID.TID 0000.0001) %MON seaice_time_sec              =   3.6000000000000E+04
(PID.TID 0000.0001) %MON seaice_uice_max              =   2.6070746379821E-01
(PID.TID 0000.0001) %MON seaice_uice_min              =  -7.4569485540672E-02
(PID.TID 0000.0001) %MON seaice_uice_mean             =   5.6947287121805E-02
(PID.TID 0000.0001) %MON seaice_uice_sd               =   7.3693799603266E-02
(PID.TID 0000.0001) %MON seaice_uice_del2             =   6.9822398092981E-03
(PID.TID 0000.0001) %MON seaice_vice_max              =   7.2855153888681E-02
(PID.TID 0000.0001) %MON seaice_vice_min              =  -1.8167527187535E-01
(PID.TID 0000.0001) %MON seaice_vice_mean             =  -5.2953398524739E-02
(PID.TID 0000.0001) %MON seaice_vice_sd               =   5.6405650969271E-02
(PID.TID 0000.0001) %MON seaice_vice_del2             =   6.8591466661556E-03
(PID.TID 0000.0001) %MON seaice_area_max              =   1.0000000000000E+00
(PID.TID 0000.0001) %MON seaice_area_min              =   0.0000000000000E+00
(PID.TID 0000.0001) %MON seaice_area_mean             =   6.2310743739028E-01
(PID.TID 0000.0001) %MON seaice_area_sd               =   4.5675716042649E-01
(PID.TID 0000.0001) %MON seaice_area_del2             =   5.3102396710603E-02
(PID.TID 0000.0001) %MON seaice_heff_max              =   5.4914440244121E-01
(PID.TID 0000.0001) %MON seaice_heff_min              =   0.0000000000000E+00
(PID.TID 0000.0001) %MON seaice_heff_mean             =   1.4181992875578E-01
(PID.TID 0000.0001) %MON seaice_heff_sd               =   1.7482868194062E-01
(PID.TID 0000.0001) %MON seaice_heff_del2             =   1.3169838357088E-02
(PID.TID 0000.0001) %MON seaice_hsnow_max             =   2.0785054838239E-01
(PID.TID 0000.0001) %MON seaice_hsnow_min             =   0.0000000000000E+00
(PID.TID 0000.0001) %MON seaice_hsnow_mean            =   1.1901259282146E-01
(PID.TID 0000.0001) %MON seaice_hsnow_sd              =   9.7627028725843E-02
(PID.TID 0000.0001) %MON seaice_hsnow_del2            =   6.6467676522871E-03
(PID.TID 0000.0001) // =======================================================
(PID.TID 0000.0001) // End MONITOR SEAICE statistics
(PID.TID 0000.0001) // =======================================================
(PID.TID 0000.0001) // =======================================================
(PID.TID 0000.0001) // Begin MONITOR EXF statistics
(PID.TID 0000.0001) // =======================================================
(PID.TID 0000.0001) %MON exf_tsnumber                 =                     9
(PID.TID 0000.0001) %MON exf_time_sec                 =   3.2400000000000E+04
(PID.TID 0000.0001) %MON exf_ustress_max              =   5.2253931426656E-02
(PID.TID 0000.0001) %MON exf_ustress_min              =  -9.3801402378650E-02
(PID.TID 0000.0001) %MON exf_ustress_mean             =   1.7972509683253E-02
(PID.TID 0000.0001) %MON exf_ustress_sd               =   2.3737460786541E-02
(PID.TID 0000.0001) %MON exf_ustress_del2             =   2.8207099200926E-03
(PID.TID 0000.0001) %MON exf_vstress_max              =   5.3836885571564E-02
(PID.TID 0000.0001) %MON exf_vstress_min              =  -5.8402245568698E-02
(PID.TID 0000.0001) %MON exf_vstress_mean             =  -5.4330601332893E-03
(PID.TID 0000.0001) %MON exf_vstress_sd               =   1.4451995384637E-02
(PID.TID 0000.0001) %MON exf_vstress_del2             =   1.6932502980039E-03
(PID.TID 0000.0001) %MON exf_hflux_max                =   6.2523607820799E+02
(PID.TID 0000.0001) %MON exf_hflux_min                =  -5.1341825210305E+01
(PID.TID 0000.0001) %MON exf_hflux_mean               =   1.4650265473447E+02
(PID.TID 0000.0001) %MON exf_hflux_sd                 =   1.8009641065308E+02
(PID.TID 0000.0001) %MON exf_hflux_del2               =   1.6313500152802E+01
(PID.TID 0000.0001) %MON exf_sflux_max                =   3.9027165063396E-08
(PID.TID 0000.0001) %MON exf_sflux_min                =  -8.8881916005779E-08
(PID.TID 0000.0001) %MON exf_sflux_mean               =  -2.5931971730406E-08
(PID.TID 0000.0001) %MON exf_sflux_sd                 =   3.0353384822151E-08
(PID.TID 0000.0001) %MON exf_sflux_del2               =   3.1652753742444E-09
(PID.TID 0000.0001) %MON exf_uwind_max                =   6.4689416142761E+00
(PID.TID 0000.0001) %MON exf_uwind_min                =  -6.8374791086697E+00
(PID.TID 0000.0001) %MON exf_uwind_mean               =   2.7707407047028E+00
(PID.TID 0000.0001) %MON exf_uwind_sd                 =   2.9925253914175E+00
(PID.TID 0000.0001) %MON exf_uwind_del2               =   3.1578823099586E-01
(PID.TID 0000.0001) %MON exf_vwind_max                =   3.9243398396695E+00
(PID.TID 0000.0001) %MON exf_vwind_min                =  -6.0115501997901E+00
(PID.TID 0000.0001) %MON exf_vwind_mean               =  -7.5533872343860E-01
(PID.TID 0000.0001) %MON exf_vwind_sd                 =   1.7303202080462E+00
(PID.TID 0000.0001) %MON exf_vwind_del2               =   1.9327127420947E-01
(PID.TID 0000.0001) %MON exf_wspeed_max               =   7.8836263063842E+00
(PID.TID 0000.0001) %MON exf_wspeed_min               =   4.5816671047235E-01
(PID.TID 0000.0001) %MON exf_wspeed_mean              =   4.1990483480424E+00
(PID.TID 0000.0001) %MON exf_wspeed_sd                =   1.6014836406520E+00
(PID.TID 0000.0001) %MON exf_wspeed_del2              =   3.7741640417905E-01
(PID.TID 0000.0001) %MON exf_atemp_max                =   2.8186740312420E+02
(PID.TID 0000.0001) %MON exf_atemp_min                =   2.3642158439511E+02
(PID.TID 0000.0001) %MON exf_atemp_mean               =   2.6390426107320E+02
(PID.TID 0000.0001) %MON exf_atemp_sd                 =   1.1996580029013E+01
(PID.TID 0000.0001) %MON exf_atemp_del2               =   6.4959675648173E-01
(PID.TID 0000.0001) %MON exf_aqh_max                  =   6.3169040759170E-03
(PID.TID 0000.0001) %MON exf_aqh_min                  =   1.6284581668843E-04
(PID.TID 0000.0001) %MON exf_aqh_mean                 =   2.4753197025473E-03
(PID.TID 0000.0001) %MON exf_aqh_sd                   =   1.4255808388841E-03
(PID.TID 0000.0001) %MON exf_aqh_del2                 =   6.8018772549319E-05
(PID.TID 0000.0001) %MON exf_lwflux_max               =   1.8162256096872E+02
(PID.TID 0000.0001) %MON exf_lwflux_min               =   2.7024547891760E+01
(PID.TID 0000.0001) %MON exf_lwflux_mean              =   7.5295925223546E+01
(PID.TID 0000.0001) %MON exf_lwflux_sd                =   4.2777917676981E+01
(PID.TID 0000.0001) %MON exf_lwflux_del2              =   3.2320860347798E+00
(PID.TID 0000.0001) %MON exf_precip_max               =   1.0500009599131E-07
(PID.TID 0000.0001) %MON exf_precip_min               =   2.7238964868961E-10
(PID.TID 0000.0001) %MON exf_precip_mean              =   3.6389982946776E-08
(PID.TID 0000.0001) %MON exf_precip_sd                =   2.0582225664103E-08
(PID.TID 0000.0001) %MON exf_precip_del2              =   2.5599042244504E-09
(PID.TID 0000.0001) %MON exf_snowprecip_max           =   0.0000000000000E+00
(PID.TID 0000.0001) %MON exf_snowprecip_min           =   0.0000000000000E+00
(PID.TID 0000.0001) %MON exf_snowprecip_mean          =   0.0000000000000E+00
(PID.TID 0000.0001) %MON exf_snowprecip_sd            =   0.0000000000000E+00
(PID.TID 0000.0001) %MON exf_snowprecip_del2          =   0.0000000000000E+00
(PID.TID 0000.0001) %MON exf_swflux_max               =  -8.1208301372215E-02
(PID.TID 0000.0001) %MON exf_swflux_min               =  -6.4142947168819E+01
(PID.TID 0000.0001) %MON exf_swflux_mean              =  -2.6548012965822E+01
(PID.TID 0000.0001) %MON exf_swflux_sd                =   1.9660442927159E+01
(PID.TID 0000.0001) %MON exf_swflux_del2              =   4.7997463106648E-01
(PID.TID 0000.0001) %MON exf_evap_max                 =   4.5345408489115E-08
(PID.TID 0000.0001) %MON exf_evap_min                 =  -4.2118523685383E-09
(PID.TID 0000.0001) %MON exf_evap_mean                =   1.0458011216370E-08
(PID.TID 0000.0001) %MON exf_evap_sd                  =   1.1076056420178E-08
(PID.TID 0000.0001) %MON exf_evap_del2                =   1.3338845440649E-09
(PID.TID 0000.0001) %MON exf_swdown_max               =   7.1269941298688E+01
(PID.TID 0000.0001) %MON exf_swdown_min               =   9.0231445969128E-02
(PID.TID 0000.0001) %MON exf_swdown_mean              =   2.9497792184247E+01
(PID.TID 0000.0001) %MON exf_swdown_sd                =   2.1844936585733E+01
(PID.TID 0000.0001) %MON exf_swdown_del2              =   5.3330514562942E-01
(PID.TID 0000.0001) %MON exf_lwdown_max               =   3.0560028326316E+02
(PID.TID 0000.0001) %MON exf_lwdown_min               =   1.1586173020035E+02
(PID.TID 0000.0001) %MON exf_lwdown_mean              =   2.2580795099755E+02
(PID.TID 0000.0001) %MON exf_lwdown_sd                =   4.6313195660870E+01
(PID.TID 0000.0001) %MON exf_lwdown_del2              =   3.2439260573465E+00
(PID.TID 0000.0001) %MON exf_apressure_max            =   0.0000000000000E+00
(PID.TID 0000.0001) %MON exf_apressure_min            =   0.0000000000000E+00
(PID.TID 0000.0001) %MON exf_apressure_mean           =   0.0000000000000E+00
(PID.TID 0000.0001) %MON exf_apressure_sd             =   0.0000000000000E+00
(PID.TID 0000.0001) %MON exf_apressure_del2           =   0.0000000000000E+00
(PID.TID 0000.0001) %MON exf_runoff_max               =   0.0000000000000E+00
(PID.TID 0000.0001) %MON exf_runoff_min               =   0.0000000000000E+00
(PID.TID 0000.0001) %MON exf_runoff_mean              =   0.0000000000000E+00
(PID.TID 0000.0001) %MON exf_runoff_sd                =   0.0000000000000E+00
(PID.TID 0000.0001) %MON exf_runoff_del2              =   0.0000000000000E+00
(PID.TID 0000.0001) %MON exf_climsst_max              =   0.0000000000000E+00
(PID.TID 0000.0001) %MON exf_climsst_min              =   0.0000000000000E+00
(PID.TID 0000.0001) %MON exf_climsst_mean             =   0.0000000000000E+00
(PID.TID 0000.0001) %MON exf_climsst_sd               =   0.0000000000000E+00
(PID.TID 0000.0001) %MON exf_climsst_del2             =   0.0000000000000E+00
(PID.TID 0000.0001) %MON exf_climsss_max              =   3.5041993610194E+01
(PID.TID 0000.0001) %MON exf_climsss_min              =   3.0673147123368E+01
(PID.TID 0000.0001) %MON exf_climsss_mean             =   3.3464011602304E+01
(PID.TID 0000.0001) %MON exf_climsss_sd               =   1.0313181272348E+00
(PID.TID 0000.0001) %MON exf_climsss_del2             =   1.0003889784787E-01
(PID.TID 0000.0001) // =======================================================
(PID.TID 0000.0001) // End MONITOR EXF statistics
(PID.TID 0000.0001) // =======================================================
 ph-ice B  9  0.  0.  0.
 ph-ice C  9  5.08667365E+11
(PID.TID 0000.0001) // =======================================================
(PID.TID 0000.0001) // Begin MONITOR dynamic field statistics
(PID.TID 0000.0001) // =======================================================
(PID.TID 0000.0001) %MON ad_time_tsnumber             =                    10
(PID.TID 0000.0001) %MON ad_time_secondsf             =   3.6000000000000E+04
(PID.TID 0000.0001) %MON ad_dynstat_adeta_max         =   0.0000000000000E+00
(PID.TID 0000.0001) %MON ad_dynstat_adeta_min         =   0.0000000000000E+00
(PID.TID 0000.0001) %MON ad_dynstat_adeta_mean        =   0.0000000000000E+00
(PID.TID 0000.0001) %MON ad_dynstat_adeta_sd          =   0.0000000000000E+00
(PID.TID 0000.0001) %MON ad_dynstat_adeta_del2        =   0.0000000000000E+00
(PID.TID 0000.0001) %MON ad_dynstat_aduvel_max        =   0.0000000000000E+00
(PID.TID 0000.0001) %MON ad_dynstat_aduvel_min        =   0.0000000000000E+00
(PID.TID 0000.0001) %MON ad_dynstat_aduvel_mean       =   0.0000000000000E+00
(PID.TID 0000.0001) %MON ad_dynstat_aduvel_sd         =   0.0000000000000E+00
(PID.TID 0000.0001) %MON ad_dynstat_aduvel_del2       =   0.0000000000000E+00
(PID.TID 0000.0001) %MON ad_dynstat_advvel_max        =   0.0000000000000E+00
(PID.TID 0000.0001) %MON ad_dynstat_advvel_min        =   0.0000000000000E+00
(PID.TID 0000.0001) %MON ad_dynstat_advvel_mean       =   0.0000000000000E+00
(PID.TID 0000.0001) %MON ad_dynstat_advvel_sd         =   0.0000000000000E+00
(PID.TID 0000.0001) %MON ad_dynstat_advvel_del2       =   0.0000000000000E+00
(PID.TID 0000.0001) %MON ad_dynstat_adwvel_max        =   0.0000000000000E+00
(PID.TID 0000.0001) %MON ad_dynstat_adwvel_min        =   0.0000000000000E+00
(PID.TID 0000.0001) %MON ad_dynstat_adwvel_mean       =   0.0000000000000E+00
(PID.TID 0000.0001) %MON ad_dynstat_adwvel_sd         =   0.0000000000000E+00
(PID.TID 0000.0001) %MON ad_dynstat_adwvel_del2       =   0.0000000000000E+00
(PID.TID 0000.0001) %MON ad_dynstat_adtheta_max       =   0.0000000000000E+00
(PID.TID 0000.0001) %MON ad_dynstat_adtheta_min       =  -1.1850579115663E+00
(PID.TID 0000.0001) %MON ad_dynstat_adtheta_mean      =  -6.4550317134285E-03
(PID.TID 0000.0001) %MON ad_dynstat_adtheta_sd        =   8.0629319273676E-02
(PID.TID 0000.0001) %MON ad_dynstat_adtheta_del2      =   1.3039824488535E-03
(PID.TID 0000.0001) %MON ad_dynstat_adsalt_max        =   0.0000000000000E+00
(PID.TID 0000.0001) %MON ad_dynstat_adsalt_min        =   0.0000000000000E+00
(PID.TID 0000.0001) %MON ad_dynstat_adsalt_mean       =   0.0000000000000E+00
(PID.TID 0000.0001) %MON ad_dynstat_adsalt_sd         =   0.0000000000000E+00
(PID.TID 0000.0001) %MON ad_dynstat_adsalt_del2       =   0.0000000000000E+00
(PID.TID 0000.0001) %MON ad_dynstat_adsst_max         =  -4.2352730451970E-01
(PID.TID 0000.0001) %MON ad_dynstat_adsst_min         =  -1.1850579115663E+00
(PID.TID 0000.0001) %MON ad_dynstat_adsst_mean        =  -9.6097567615502E-01
(PID.TID 0000.0001) %MON ad_dynstat_adsst_sd          =   2.2485758065790E-01
(PID.TID 0000.0001) %MON ad_dynstat_adsst_del2        =   1.6169382365783E-02
(PID.TID 0000.0001) %MON ad_dynstat_adsss_max         =   0.0000000000000E+00
(PID.TID 0000.0001) %MON ad_dynstat_adsss_min         =   0.0000000000000E+00
(PID.TID 0000.0001) %MON ad_dynstat_adsss_mean        =   0.0000000000000E+00
(PID.TID 0000.0001) %MON ad_dynstat_adsss_sd          =   0.0000000000000E+00
(PID.TID 0000.0001) %MON ad_dynstat_adsss_del2        =   0.0000000000000E+00
(PID.TID 0000.0001) %MON ad_extforcing_adqnet_max     =   0.0000000000000E+00
(PID.TID 0000.0001) %MON ad_extforcing_adqnet_min     =   0.0000000000000E+00
(PID.TID 0000.0001) %MON ad_extforcing_adqnet_mean    =   0.0000000000000E+00
(PID.TID 0000.0001) %MON ad_extforcing_adqnet_sd      =   0.0000000000000E+00
(PID.TID 0000.0001) %MON ad_extforcing_adqnet_del2    =   0.0000000000000E+00
(PID.TID 0000.0001) %MON ad_extforcing_adqsw_max      =   0.0000000000000E+00
(PID.TID 0000.0001) %MON ad_extforcing_adqsw_min      =   0.0000000000000E+00
(PID.TID 0000.0001) %MON ad_extforcing_adqsw_mean     =   0.0000000000000E+00
(PID.TID 0000.0001) %MON ad_extforcing_adqsw_sd       =   0.0000000000000E+00
(PID.TID 0000.0001) %MON ad_extforcing_adqsw_del2     =   0.0000000000000E+00
(PID.TID 0000.0001) %MON ad_extforcing_adempmr_max    =   0.0000000000000E+00
(PID.TID 0000.0001) %MON ad_extforcing_adempmr_min    =   0.0000000000000E+00
(PID.TID 0000.0001) %MON ad_extforcing_adempmr_mean   =   0.0000000000000E+00
(PID.TID 0000.0001) %MON ad_extforcing_adempmr_sd     =   0.0000000000000E+00
(PID.TID 0000.0001) %MON ad_extforcing_adempmr_del2   =   0.0000000000000E+00
(PID.TID 0000.0001) %MON ad_extforcing_adfu_max       =   0.0000000000000E+00
(PID.TID 0000.0001) %MON ad_extforcing_adfu_min       =   0.0000000000000E+00
(PID.TID 0000.0001) %MON ad_extforcing_adfu_mean      =   0.0000000000000E+00
(PID.TID 0000.0001) %MON ad_extforcing_adfu_sd        =   0.0000000000000E+00
(PID.TID 0000.0001) %MON ad_extforcing_adfu_del2      =   0.0000000000000E+00
(PID.TID 0000.0001) %MON ad_extforcing_adfv_max       =   0.0000000000000E+00
(PID.TID 0000.0001) %MON ad_extforcing_adfv_min       =   0.0000000000000E+00
(PID.TID 0000.0001) %MON ad_extforcing_adfv_mean      =   0.0000000000000E+00
(PID.TID 0000.0001) %MON ad_extforcing_adfv_sd        =   0.0000000000000E+00
(PID.TID 0000.0001) %MON ad_extforcing_adfv_del2      =   0.0000000000000E+00
(PID.TID 0000.0001) %MON ad_advcfl_aduvel_max         =   0.0000000000000E+00
(PID.TID 0000.0001) %MON ad_advcfl_advvel_max         =   0.0000000000000E+00
(PID.TID 0000.0001) %MON ad_advcfl_adwvel_max         =   0.0000000000000E+00
(PID.TID 0000.0001) %MON ad_advcfl_adW_hf_max         =   0.0000000000000E+00
(PID.TID 0000.0001) // =======================================================
(PID.TID 0000.0001) // End MONITOR dynamic field statistics
(PID.TID 0000.0001) // =======================================================
 cg2d: Sum(rhs),rhsMax =   0.00000000000000E+00  0.00000000000000E+00
(PID.TID 0000.0001) // =======================================================
(PID.TID 0000.0001) // Begin MONITOR EXF statistics
(PID.TID 0000.0001) // =======================================================
(PID.TID 0000.0001) %MON exf_tsnumber                 =                     9
(PID.TID 0000.0001) %MON exf_time_sec                 =   3.2400000000000E+04
(PID.TID 0000.0001) %MON exf_ustress_max              =   5.2253931426656E-02
(PID.TID 0000.0001) %MON exf_ustress_min              =  -9.3801402378650E-02
(PID.TID 0000.0001) %MON exf_ustress_mean             =   1.7972509683253E-02
(PID.TID 0000.0001) %MON exf_ustress_sd               =   2.3737460786541E-02
(PID.TID 0000.0001) %MON exf_ustress_del2             =   2.8207099200926E-03
(PID.TID 0000.0001) %MON exf_vstress_max              =   5.3836885571564E-02
(PID.TID 0000.0001) %MON exf_vstress_min              =  -5.8402245568698E-02
(PID.TID 0000.0001) %MON exf_vstress_mean             =  -5.4330601332893E-03
(PID.TID 0000.0001) %MON exf_vstress_sd               =   1.4451995384637E-02
(PID.TID 0000.0001) %MON exf_vstress_del2             =   1.6932502980039E-03
(PID.TID 0000.0001) %MON exf_hflux_max                =   6.2523607820799E+02
(PID.TID 0000.0001) %MON exf_hflux_min                =  -5.1341825210305E+01
(PID.TID 0000.0001) %MON exf_hflux_mean               =   1.4650265473447E+02
(PID.TID 0000.0001) %MON exf_hflux_sd                 =   1.8009641065308E+02
(PID.TID 0000.0001) %MON exf_hflux_del2               =   1.6313500152802E+01
(PID.TID 0000.0001) %MON exf_sflux_max                =   3.9027165063396E-08
(PID.TID 0000.0001) %MON exf_sflux_min                =  -8.8881916005779E-08
(PID.TID 0000.0001) %MON exf_sflux_mean               =  -2.5931971730406E-08
(PID.TID 0000.0001) %MON exf_sflux_sd                 =   3.0353384822151E-08
(PID.TID 0000.0001) %MON exf_sflux_del2               =   3.1652753742444E-09
(PID.TID 0000.0001) %MON exf_uwind_max                =   6.4689416142761E+00
(PID.TID 0000.0001) %MON exf_uwind_min                =  -6.8374791086697E+00
(PID.TID 0000.0001) %MON exf_uwind_mean               =   2.7707407047028E+00
(PID.TID 0000.0001) %MON exf_uwind_sd                 =   2.9925253914175E+00
(PID.TID 0000.0001) %MON exf_uwind_del2               =   3.1578823099586E-01
(PID.TID 0000.0001) %MON exf_vwind_max                =   3.9243398396695E+00
(PID.TID 0000.0001) %MON exf_vwind_min                =  -6.0115501997901E+00
(PID.TID 0000.0001) %MON exf_vwind_mean               =  -7.5533872343860E-01
(PID.TID 0000.0001) %MON exf_vwind_sd                 =   1.7303202080462E+00
(PID.TID 0000.0001) %MON exf_vwind_del2               =   1.9327127420947E-01
(PID.TID 0000.0001) %MON exf_wspeed_max               =   7.8836263063842E+00
(PID.TID 0000.0001) %MON exf_wspeed_min               =   4.5816671047235E-01
(PID.TID 0000.0001) %MON exf_wspeed_mean              =   4.1990483480424E+00
(PID.TID 0000.0001) %MON exf_wspeed_sd                =   1.6014836406520E+00
(PID.TID 0000.0001) %MON exf_wspeed_del2              =   3.7741640417905E-01
(PID.TID 0000.0001) %MON exf_atemp_max                =   2.8186740312420E+02
(PID.TID 0000.0001) %MON exf_atemp_min                =   2.3642158439511E+02
(PID.TID 0000.0001) %MON exf_atemp_mean               =   2.6390426107320E+02
(PID.TID 0000.0001) %MON exf_atemp_sd                 =   1.1996580029013E+01
(PID.TID 0000.0001) %MON exf_atemp_del2               =   6.4959675648173E-01
(PID.TID 0000.0001) %MON exf_aqh_max                  =   6.3169040759170E-03
(PID.TID 0000.0001) %MON exf_aqh_min                  =   1.6284581668843E-04
(PID.TID 0000.0001) %MON exf_aqh_mean                 =   2.4753197025473E-03
(PID.TID 0000.0001) %MON exf_aqh_sd                   =   1.4255808388841E-03
(PID.TID 0000.0001) %MON exf_aqh_del2                 =   6.8018772549319E-05
(PID.TID 0000.0001) %MON exf_lwflux_max               =   1.8162256096872E+02
(PID.TID 0000.0001) %MON exf_lwflux_min               =   2.7024547891760E+01
(PID.TID 0000.0001) %MON exf_lwflux_mean              =   7.5295925223546E+01
(PID.TID 0000.0001) %MON exf_lwflux_sd                =   4.2777917676981E+01
(PID.TID 0000.0001) %MON exf_lwflux_del2              =   3.2320860347798E+00
(PID.TID 0000.0001) %MON exf_precip_max               =   1.0500009599131E-07
(PID.TID 0000.0001) %MON exf_precip_min               =   2.7238964868961E-10
(PID.TID 0000.0001) %MON exf_precip_mean              =   3.6389982946776E-08
(PID.TID 0000.0001) %MON exf_precip_sd                =   2.0582225664103E-08
(PID.TID 0000.0001) %MON exf_precip_del2              =   2.5599042244504E-09
(PID.TID 0000.0001) %MON exf_snowprecip_max           =   0.0000000000000E+00
(PID.TID 0000.0001) %MON exf_snowprecip_min           =   0.0000000000000E+00
(PID.TID 0000.0001) %MON exf_snowprecip_mean          =   0.0000000000000E+00
(PID.TID 0000.0001) %MON exf_snowprecip_sd            =   0.0000000000000E+00
(PID.TID 0000.0001) %MON exf_snowprecip_del2          =   0.0000000000000E+00
(PID.TID 0000.0001) %MON exf_swflux_max               =  -8.1208301372215E-02
(PID.TID 0000.0001) %MON exf_swflux_min               =  -6.4142947168819E+01
(PID.TID 0000.0001) %MON exf_swflux_mean              =  -2.6548012965822E+01
(PID.TID 0000.0001) %MON exf_swflux_sd                =   1.9660442927159E+01
(PID.TID 0000.0001) %MON exf_swflux_del2              =   4.7997463106648E-01
(PID.TID 0000.0001) %MON exf_evap_max                 =   4.5345408489115E-08
(PID.TID 0000.0001) %MON exf_evap_min                 =  -4.2118523685383E-09
(PID.TID 0000.0001) %MON exf_evap_mean                =   1.0458011216370E-08
(PID.TID 0000.0001) %MON exf_evap_sd                  =   1.1076056420178E-08
(PID.TID 0000.0001) %MON exf_evap_del2                =   1.3338845440649E-09
(PID.TID 0000.0001) %MON exf_swdown_max               =   7.1269941298688E+01
(PID.TID 0000.0001) %MON exf_swdown_min               =   9.0231445969128E-02
(PID.TID 0000.0001) %MON exf_swdown_mean              =   2.9497792184247E+01
(PID.TID 0000.0001) %MON exf_swdown_sd                =   2.1844936585733E+01
(PID.TID 0000.0001) %MON exf_swdown_del2              =   5.3330514562942E-01
(PID.TID 0000.0001) %MON exf_lwdown_max               =   3.0560028326316E+02
(PID.TID 0000.0001) %MON exf_lwdown_min               =   1.1586173020035E+02
(PID.TID 0000.0001) %MON exf_lwdown_mean              =   2.2580795099755E+02
(PID.TID 0000.0001) %MON exf_lwdown_sd                =   4.6313195660870E+01
(PID.TID 0000.0001) %MON exf_lwdown_del2              =   3.2439260573465E+00
(PID.TID 0000.0001) %MON exf_apressure_max            =   0.0000000000000E+00
(PID.TID 0000.0001) %MON exf_apressure_min            =   0.0000000000000E+00
(PID.TID 0000.0001) %MON exf_apressure_mean           =   0.0000000000000E+00
(PID.TID 0000.0001) %MON exf_apressure_sd             =   0.0000000000000E+00
(PID.TID 0000.0001) %MON exf_apressure_del2           =   0.0000000000000E+00
(PID.TID 0000.0001) %MON exf_runoff_max               =   0.0000000000000E+00
(PID.TID 0000.0001) %MON exf_runoff_min               =   0.0000000000000E+00
(PID.TID 0000.0001) %MON exf_runoff_mean              =   0.0000000000000E+00
(PID.TID 0000.0001) %MON exf_runoff_sd                =   0.0000000000000E+00
(PID.TID 0000.0001) %MON exf_runoff_del2              =   0.0000000000000E+00
(PID.TID 0000.0001) %MON exf_climsst_max              =   0.0000000000000E+00
(PID.TID 0000.0001) %MON exf_climsst_min              =   0.0000000000000E+00
(PID.TID 0000.0001) %MON exf_climsst_mean             =   0.0000000000000E+00
(PID.TID 0000.0001) %MON exf_climsst_sd               =   0.0000000000000E+00
(PID.TID 0000.0001) %MON exf_climsst_del2             =   0.0000000000000E+00
(PID.TID 0000.0001) %MON exf_climsss_max              =   3.5041993610194E+01
(PID.TID 0000.0001) %MON exf_climsss_min              =   3.0673147123368E+01
(PID.TID 0000.0001) %MON exf_climsss_mean             =   3.3464011602304E+01
(PID.TID 0000.0001) %MON exf_climsss_sd               =   1.0313181272348E+00
(PID.TID 0000.0001) %MON exf_climsss_del2             =   1.0003889784787E-01
(PID.TID 0000.0001) // =======================================================
(PID.TID 0000.0001) // End MONITOR EXF statistics
(PID.TID 0000.0001) // =======================================================
(PID.TID 0000.0001) // =======================================================
(PID.TID 0000.0001) // Begin MONITOR EXF statistics
(PID.TID 0000.0001) // =======================================================
(PID.TID 0000.0001) %MON exf_tsnumber                 =                     8
(PID.TID 0000.0001) %MON exf_time_sec                 =   2.8800000000000E+04
(PID.TID 0000.0001) %MON exf_ustress_max              =   5.2249214879362E-02
(PID.TID 0000.0001) %MON exf_ustress_min              =  -9.3798929022903E-02
(PID.TID 0000.0001) %MON exf_ustress_mean             =   1.7966529287965E-02
(PID.TID 0000.0001) %MON exf_ustress_sd               =   2.3731957560627E-02
(PID.TID 0000.0001) %MON exf_ustress_del2             =   2.8199337877605E-03
(PID.TID 0000.0001) %MON exf_vstress_max              =   5.3835262836833E-02
(PID.TID 0000.0001) %MON exf_vstress_min              =  -5.8423863261754E-02
(PID.TID 0000.0001) %MON exf_vstress_mean             =  -5.4366061402555E-03
(PID.TID 0000.0001) %MON exf_vstress_sd               =   1.4450709478647E-02
(PID.TID 0000.0001) %MON exf_vstress_del2             =   1.6932443852647E-03
(PID.TID 0000.0001) %MON exf_hflux_max                =   6.2516667571601E+02
(PID.TID 0000.0001) %MON exf_hflux_min                =  -5.1290005256042E+01
(PID.TID 0000.0001) %MON exf_hflux_mean               =   1.4644490061509E+02
(PID.TID 0000.0001) %MON exf_hflux_sd                 =   1.8007068103613E+02
(PID.TID 0000.0001) %MON exf_hflux_del2               =   1.6310945621959E+01
(PID.TID 0000.0001) %MON exf_sflux_max                =   3.9024984842035E-08
(PID.TID 0000.0001) %MON exf_sflux_min                =  -8.8852274113664E-08
(PID.TID 0000.0001) %MON exf_sflux_mean               =  -2.5937377388229E-08
(PID.TID 0000.0001) %MON exf_sflux_sd                 =   3.0352649171946E-08
(PID.TID 0000.0001) %MON exf_sflux_del2               =   3.1646078554429E-09
(PID.TID 0000.0001) %MON exf_uwind_max                =   6.4684341618272E+00
(PID.TID 0000.0001) %MON exf_uwind_min                =  -6.8374523269674E+00
(PID.TID 0000.0001) %MON exf_uwind_mean               =   2.7706331523584E+00
(PID.TID 0000.0001) %MON exf_uwind_sd                 =   2.9922491036980E+00
(PID.TID 0000.0001) %MON exf_uwind_del2               =   3.1577589455021E-01
(PID.TID 0000.0001) %MON exf_vwind_max                =   3.9243096588739E+00
(PID.TID 0000.0001) %MON exf_vwind_min                =  -6.0124561096150E+00
(PID.TID 0000.0001) %MON exf_vwind_mean               =  -7.5595649652871E-01
(PID.TID 0000.0001) %MON exf_vwind_sd                 =   1.7302112611019E+00
(PID.TID 0000.0001) %MON exf_vwind_del2               =   1.9327792057372E-01
(PID.TID 0000.0001) %MON exf_wspeed_max               =   7.8835880550853E+00
(PID.TID 0000.0001) %MON exf_wspeed_min               =   4.5840953253040E-01
(PID.TID 0000.0001) %MON exf_wspeed_mean              =   4.1989448725728E+00
(PID.TID 0000.0001) %MON exf_wspeed_sd                =   1.6012263903992E+00
(PID.TID 0000.0001) %MON exf_wspeed_del2              =   3.7736312737620E-01
(PID.TID 0000.0001) %MON exf_atemp_max                =   2.8186911527707E+02
(PID.TID 0000.0001) %MON exf_atemp_min                =   2.3642604936277E+02
(PID.TID 0000.0001) %MON exf_atemp_mean               =   2.6390890515856E+02
(PID.TID 0000.0001) %MON exf_atemp_sd                 =   1.1995115599497E+01
(PID.TID 0000.0001) %MON exf_atemp_del2               =   6.4957742354040E-01
(PID.TID 0000.0001) %MON exf_aqh_max                  =   6.3176006167781E-03
(PID.TID 0000.0001) %MON exf_aqh_min                  =   1.6293992018683E-04
(PID.TID 0000.0001) %MON exf_aqh_mean                 =   2.4758800589519E-03
(PID.TID 0000.0001) %MON exf_aqh_sd                   =   1.4256836550895E-03
(PID.TID 0000.0001) %MON exf_aqh_del2                 =   6.8032440110466E-05
(PID.TID 0000.0001) %MON exf_lwflux_max               =   1.8160657786431E+02
(PID.TID 0000.0001) %MON exf_lwflux_min               =   2.7042773776827E+01
(PID.TID 0000.0001) %MON exf_lwflux_mean              =   7.5278586524193E+01
(PID.TID 0000.0001) %MON exf_lwflux_sd                =   4.2775412241966E+01
(PID.TID 0000.0001) %MON exf_lwflux_del2              =   3.2322566706845E+00
(PID.TID 0000.0001) %MON exf_precip_max               =   1.0499871454869E-07
(PID.TID 0000.0001) %MON exf_precip_min               =   2.7252357516229E-10
(PID.TID 0000.0001) %MON exf_precip_mean              =   3.6389993790810E-08
(PID.TID 0000.0001) %MON exf_precip_sd                =   2.0581769987393E-08
(PID.TID 0000.0001) %MON exf_precip_del2              =   2.5593765312607E-09
(PID.TID 0000.0001) %MON exf_snowprecip_max           =   0.0000000000000E+00
(PID.TID 0000.0001) %MON exf_snowprecip_min           =   0.0000000000000E+00
(PID.TID 0000.0001) %MON exf_snowprecip_mean          =   0.0000000000000E+00
(PID.TID 0000.0001) %MON exf_snowprecip_sd            =   0.0000000000000E+00
(PID.TID 0000.0001) %MON exf_snowprecip_del2          =   0.0000000000000E+00
(PID.TID 0000.0001) %MON exf_swflux_max               =  -8.1208018494434E-02
(PID.TID 0000.0001) %MON exf_swflux_min               =  -6.4124076818247E+01
(PID.TID 0000.0001) %MON exf_swflux_mean              =  -2.6537480749947E+01
(PID.TID 0000.0001) %MON exf_swflux_sd                =   1.9656602581253E+01
(PID.TID 0000.0001) %MON exf_swflux_del2              =   4.7986775712052E-01
(PID.TID 0000.0001) %MON exf_evap_max                 =   4.5343890978685E-08
(PID.TID 0000.0001) %MON exf_evap_min                 =  -4.2045649083408E-09
(PID.TID 0000.0001) %MON exf_evap_mean                =   1.0452616402581E-08
(PID.TID 0000.0001) %MON exf_evap_sd                  =   1.1076424482655E-08
(PID.TID 0000.0001) %MON exf_evap_del2                =   1.3336014262461E-09
(PID.TID 0000.0001) %MON exf_swdown_max               =   7.1248974242497E+01
(PID.TID 0000.0001) %MON exf_swdown_min               =   9.0231131660482E-02
(PID.TID 0000.0001) %MON exf_swdown_mean              =   2.9486089722164E+01
(PID.TID 0000.0001) %MON exf_swdown_sd                =   2.1840669534725E+01
(PID.TID 0000.0001) %MON exf_swdown_del2              =   5.3318639680058E-01
(PID.TID 0000.0001) %MON exf_lwdown_max               =   3.0560910934698E+02
(PID.TID 0000.0001) %MON exf_lwdown_min               =   1.1587683707899E+02
(PID.TID 0000.0001) %MON exf_lwdown_mean              =   2.2582365832661E+02
(PID.TID 0000.0001) %MON exf_lwdown_sd                =   4.6309216947189E+01
(PID.TID 0000.0001) %MON exf_lwdown_del2              =   3.2439144172738E+00
(PID.TID 0000.0001) %MON exf_apressure_max            =   0.0000000000000E+00
(PID.TID 0000.0001) %MON exf_apressure_min            =   0.0000000000000E+00
(PID.TID 0000.0001) %MON exf_apressure_mean           =   0.0000000000000E+00
(PID.TID 0000.0001) %MON exf_apressure_sd             =   0.0000000000000E+00
(PID.TID 0000.0001) %MON exf_apressure_del2           =   0.0000000000000E+00
(PID.TID 0000.0001) %MON exf_runoff_max               =   0.0000000000000E+00
(PID.TID 0000.0001) %MON exf_runoff_min               =   0.0000000000000E+00
(PID.TID 0000.0001) %MON exf_runoff_mean              =   0.0000000000000E+00
(PID.TID 0000.0001) %MON exf_runoff_sd                =   0.0000000000000E+00
(PID.TID 0000.0001) %MON exf_runoff_del2              =   0.0000000000000E+00
(PID.TID 0000.0001) %MON exf_climsst_max              =   0.0000000000000E+00
(PID.TID 0000.0001) %MON exf_climsst_min              =   0.0000000000000E+00
(PID.TID 0000.0001) %MON exf_climsst_mean             =   0.0000000000000E+00
(PID.TID 0000.0001) %MON exf_climsst_sd               =   0.0000000000000E+00
(PID.TID 0000.0001) %MON exf_climsst_del2             =   0.0000000000000E+00
(PID.TID 0000.0001) %MON exf_climsss_max              =   3.5041808863155E+01
(PID.TID 0000.0001) %MON exf_climsss_min              =   3.0672387795370E+01
(PID.TID 0000.0001) %MON exf_climsss_mean             =   3.3463490268825E+01
(PID.TID 0000.0001) %MON exf_climsss_sd               =   1.0313879583737E+00
(PID.TID 0000.0001) %MON exf_climsss_del2             =   1.0005612713826E-01
(PID.TID 0000.0001) // =======================================================
(PID.TID 0000.0001) // End MONITOR EXF statistics
(PID.TID 0000.0001) // =======================================================
 ph-ice B  8  0.  0.  0.
 ph-ice C  8  4.5814502E+11
(PID.TID 0000.0001) // =======================================================
(PID.TID 0000.0001) // Begin MONITOR dynamic field statistics
(PID.TID 0000.0001) // =======================================================
(PID.TID 0000.0001) %MON ad_time_tsnumber             =                     9
(PID.TID 0000.0001) %MON ad_time_secondsf             =   3.2400000000000E+04
(PID.TID 0000.0001) %MON ad_dynstat_adeta_max         =   2.5320146257872E+05
(PID.TID 0000.0001) %MON ad_dynstat_adeta_min         =  -1.8142320020611E+05
(PID.TID 0000.0001) %MON ad_dynstat_adeta_mean        =   1.1067719122906E+02
(PID.TID 0000.0001) %MON ad_dynstat_adeta_sd          =   2.6458830622711E+04
(PID.TID 0000.0001) %MON ad_dynstat_adeta_del2        =   5.6799764010899E+03
(PID.TID 0000.0001) %MON ad_dynstat_aduvel_max        =   1.4314866008843E+06
(PID.TID 0000.0001) %MON ad_dynstat_aduvel_min        =  -5.8535715364103E+07
(PID.TID 0000.0001) %MON ad_dynstat_aduvel_mean       =  -8.2427851654851E+03
(PID.TID 0000.0001) %MON ad_dynstat_aduvel_sd         =   5.6934668852254E+05
(PID.TID 0000.0001) %MON ad_dynstat_aduvel_del2       =   1.1745326216027E+05
(PID.TID 0000.0001) %MON ad_dynstat_advvel_max        =   2.6345846706029E+07
(PID.TID 0000.0001) %MON ad_dynstat_advvel_min        =  -1.1803923287530E+06
(PID.TID 0000.0001) %MON ad_dynstat_advvel_mean       =   5.7391251509725E+03
(PID.TID 0000.0001) %MON ad_dynstat_advvel_sd         =   3.6824257323101E+05
(PID.TID 0000.0001) %MON ad_dynstat_advvel_del2       =   5.1894857756862E+04
(PID.TID 0000.0001) %MON ad_dynstat_adwvel_max        =   5.1414287048842E-01
(PID.TID 0000.0001) %MON ad_dynstat_adwvel_min        =  -2.6233965957808E+03
(PID.TID 0000.0001) %MON ad_dynstat_adwvel_mean       =  -1.2438608977473E+01
(PID.TID 0000.0001) %MON ad_dynstat_adwvel_sd         =   1.5789255805801E+02
(PID.TID 0000.0001) %MON ad_dynstat_adwvel_del2       =   4.9838147658888E+00
(PID.TID 0000.0001) %MON ad_dynstat_adtheta_max       =   2.2326416480430E-03
(PID.TID 0000.0001) %MON ad_dynstat_adtheta_min       =  -4.5013797722274E+08
(PID.TID 0000.0001) %MON ad_dynstat_adtheta_mean      =  -1.2596366830410E+06
(PID.TID 0000.0001) %MON ad_dynstat_adtheta_sd        =   2.0341363727316E+07
(PID.TID 0000.0001) %MON ad_dynstat_adtheta_del2      =   1.2675541924593E+06
(PID.TID 0000.0001) %MON ad_dynstat_adsalt_max        =   1.3904750035689E-03
(PID.TID 0000.0001) %MON ad_dynstat_adsalt_min        =  -1.5666483540309E-03
(PID.TID 0000.0001) %MON ad_dynstat_adsalt_mean       =   6.6136457260858E-08
(PID.TID 0000.0001) %MON ad_dynstat_adsalt_sd         =   2.0053305311251E-05
(PID.TID 0000.0001) %MON ad_dynstat_adsalt_del2       =   7.0200673368324E-06
(PID.TID 0000.0001) %MON ad_dynstat_adsst_max         =  -1.0984277122467E+00
(PID.TID 0000.0001) %MON ad_dynstat_adsst_min         =  -4.5013797722274E+08
(PID.TID 0000.0001) %MON ad_dynstat_adsst_mean        =  -1.8752506059317E+08
(PID.TID 0000.0001) %MON ad_dynstat_adsst_sd          =   1.6330840075372E+08
(PID.TID 0000.0001) %MON ad_dynstat_adsst_del2        =   1.5717671986311E+07
(PID.TID 0000.0001) %MON ad_dynstat_adsss_max         =   2.3845719854240E-04
(PID.TID 0000.0001) %MON ad_dynstat_adsss_min         =  -1.5666483540309E-03
(PID.TID 0000.0001) %MON ad_dynstat_adsss_mean        =  -5.6241794196001E-05
(PID.TID 0000.0001) %MON ad_dynstat_adsss_sd          =   1.4463411636961E-04
(PID.TID 0000.0001) %MON ad_dynstat_adsss_del2        =   3.9375688643162E-05
(PID.TID 0000.0001) %MON ad_extforcing_adqnet_max     =   0.0000000000000E+00
(PID.TID 0000.0001) %MON ad_extforcing_adqnet_min     =   0.0000000000000E+00
(PID.TID 0000.0001) %MON ad_extforcing_adqnet_mean    =   0.0000000000000E+00
(PID.TID 0000.0001) %MON ad_extforcing_adqnet_sd      =   0.0000000000000E+00
(PID.TID 0000.0001) %MON ad_extforcing_adqnet_del2    =   0.0000000000000E+00
(PID.TID 0000.0001) %MON ad_extforcing_adqsw_max      =   0.0000000000000E+00
(PID.TID 0000.0001) %MON ad_extforcing_adqsw_min      =   0.0000000000000E+00
(PID.TID 0000.0001) %MON ad_extforcing_adqsw_mean     =   0.0000000000000E+00
(PID.TID 0000.0001) %MON ad_extforcing_adqsw_sd       =   0.0000000000000E+00
(PID.TID 0000.0001) %MON ad_extforcing_adqsw_del2     =   0.0000000000000E+00
(PID.TID 0000.0001) %MON ad_extforcing_adempmr_max    =   0.0000000000000E+00
(PID.TID 0000.0001) %MON ad_extforcing_adempmr_min    =   0.0000000000000E+00
(PID.TID 0000.0001) %MON ad_extforcing_adempmr_mean   =   0.0000000000000E+00
(PID.TID 0000.0001) %MON ad_extforcing_adempmr_sd     =   0.0000000000000E+00
(PID.TID 0000.0001) %MON ad_extforcing_adempmr_del2   =   0.0000000000000E+00
(PID.TID 0000.0001) %MON ad_extforcing_adfu_max       =   0.0000000000000E+00
(PID.TID 0000.0001) %MON ad_extforcing_adfu_min       =   0.0000000000000E+00
(PID.TID 0000.0001) %MON ad_extforcing_adfu_mean      =   0.0000000000000E+00
(PID.TID 0000.0001) %MON ad_extforcing_adfu_sd        =   0.0000000000000E+00
(PID.TID 0000.0001) %MON ad_extforcing_adfu_del2      =   0.0000000000000E+00
(PID.TID 0000.0001) %MON ad_extforcing_adfv_max       =   0.0000000000000E+00
(PID.TID 0000.0001) %MON ad_extforcing_adfv_min       =   0.0000000000000E+00
(PID.TID 0000.0001) %MON ad_extforcing_adfv_mean      =   0.0000000000000E+00
(PID.TID 0000.0001) %MON ad_extforcing_adfv_sd        =   0.0000000000000E+00
(PID.TID 0000.0001) %MON ad_extforcing_adfv_del2      =   0.0000000000000E+00
(PID.TID 0000.0001) %MON ad_advcfl_aduvel_max         =   1.8397936967529E+06
(PID.TID 0000.0001) %MON ad_advcfl_advvel_max         =   4.2648100504119E+05
(PID.TID 0000.0001) %MON ad_advcfl_adwvel_max         =   9.4442277448109E+05
(PID.TID 0000.0001) %MON ad_advcfl_adW_hf_max         =   1.8888455489622E+06
(PID.TID 0000.0001) // =======================================================
(PID.TID 0000.0001) // End MONITOR dynamic field statistics
(PID.TID 0000.0001) // =======================================================
 cg2d: Sum(rhs),rhsMax =   3.56234417374990E-16  3.41188971308831E+02
(PID.TID 0000.0001) // =======================================================
(PID.TID 0000.0001) // Begin MONITOR EXF statistics
(PID.TID 0000.0001) // =======================================================
(PID.TID 0000.0001) %MON exf_tsnumber                 =                     8
(PID.TID 0000.0001) %MON exf_time_sec                 =   2.8800000000000E+04
(PID.TID 0000.0001) %MON exf_ustress_max              =   5.2249214879362E-02
(PID.TID 0000.0001) %MON exf_ustress_min              =  -9.3798929022903E-02
(PID.TID 0000.0001) %MON exf_ustress_mean             =   1.7966529287965E-02
(PID.TID 0000.0001) %MON exf_ustress_sd               =   2.3731957560627E-02
(PID.TID 0000.0001) %MON exf_ustress_del2             =   2.8199337877605E-03
(PID.TID 0000.0001) %MON exf_vstress_max              =   5.3835262836833E-02
(PID.TID 0000.0001) %MON exf_vstress_min              =  -5.8423863261754E-02
(PID.TID 0000.0001) %MON exf_vstress_mean             =  -5.4366061402555E-03
(PID.TID 0000.0001) %MON exf_vstress_sd               =   1.4450709478647E-02
(PID.TID 0000.0001) %MON exf_vstress_del2             =   1.6932443852647E-03
(PID.TID 0000.0001) %MON exf_hflux_max                =   6.2516667571601E+02
(PID.TID 0000.0001) %MON exf_hflux_min                =  -5.1290005256042E+01
(PID.TID 0000.0001) %MON exf_hflux_mean               =   1.4644490061509E+02
(PID.TID 0000.0001) %MON exf_hflux_sd                 =   1.8007068103613E+02
(PID.TID 0000.0001) %MON exf_hflux_del2               =   1.6310945621959E+01
(PID.TID 0000.0001) %MON exf_sflux_max                =   3.9024984842035E-08
(PID.TID 0000.0001) %MON exf_sflux_min                =  -8.8852274113664E-08
(PID.TID 0000.0001) %MON exf_sflux_mean               =  -2.5937377388229E-08
(PID.TID 0000.0001) %MON exf_sflux_sd                 =   3.0352649171946E-08
(PID.TID 0000.0001) %MON exf_sflux_del2               =   3.1646078554429E-09
(PID.TID 0000.0001) %MON exf_uwind_max                =   6.4684341618272E+00
(PID.TID 0000.0001) %MON exf_uwind_min                =  -6.8374523269674E+00
(PID.TID 0000.0001) %MON exf_uwind_mean               =   2.7706331523584E+00
(PID.TID 0000.0001) %MON exf_uwind_sd                 =   2.9922491036980E+00
(PID.TID 0000.0001) %MON exf_uwind_del2               =   3.1577589455021E-01
(PID.TID 0000.0001) %MON exf_vwind_max                =   3.9243096588739E+00
(PID.TID 0000.0001) %MON exf_vwind_min                =  -6.0124561096150E+00
(PID.TID 0000.0001) %MON exf_vwind_mean               =  -7.5595649652871E-01
(PID.TID 0000.0001) %MON exf_vwind_sd                 =   1.7302112611019E+00
(PID.TID 0000.0001) %MON exf_vwind_del2               =   1.9327792057372E-01
(PID.TID 0000.0001) %MON exf_wspeed_max               =   7.8835880550853E+00
(PID.TID 0000.0001) %MON exf_wspeed_min               =   4.5840953253040E-01
(PID.TID 0000.0001) %MON exf_wspeed_mean              =   4.1989448725728E+00
(PID.TID 0000.0001) %MON exf_wspeed_sd                =   1.6012263903992E+00
(PID.TID 0000.0001) %MON exf_wspeed_del2              =   3.7736312737620E-01
(PID.TID 0000.0001) %MON exf_atemp_max                =   2.8186911527707E+02
(PID.TID 0000.0001) %MON exf_atemp_min                =   2.3642604936277E+02
(PID.TID 0000.0001) %MON exf_atemp_mean               =   2.6390890515856E+02
(PID.TID 0000.0001) %MON exf_atemp_sd                 =   1.1995115599497E+01
(PID.TID 0000.0001) %MON exf_atemp_del2               =   6.4957742354040E-01
(PID.TID 0000.0001) %MON exf_aqh_max                  =   6.3176006167781E-03
(PID.TID 0000.0001) %MON exf_aqh_min                  =   1.6293992018683E-04
(PID.TID 0000.0001) %MON exf_aqh_mean                 =   2.4758800589519E-03
(PID.TID 0000.0001) %MON exf_aqh_sd                   =   1.4256836550895E-03
(PID.TID 0000.0001) %MON exf_aqh_del2                 =   6.8032440110466E-05
(PID.TID 0000.0001) %MON exf_lwflux_max               =   1.8160657786431E+02
(PID.TID 0000.0001) %MON exf_lwflux_min               =   2.7042773776827E+01
(PID.TID 0000.0001) %MON exf_lwflux_mean              =   7.5278586524193E+01
(PID.TID 0000.0001) %MON exf_lwflux_sd                =   4.2775412241966E+01
(PID.TID 0000.0001) %MON exf_lwflux_del2              =   3.2322566706845E+00
(PID.TID 0000.0001) %MON exf_precip_max               =   1.0499871454869E-07
(PID.TID 0000.0001) %MON exf_precip_min               =   2.7252357516229E-10
(PID.TID 0000.0001) %MON exf_precip_mean              =   3.6389993790810E-08
(PID.TID 0000.0001) %MON exf_precip_sd                =   2.0581769987393E-08
(PID.TID 0000.0001) %MON exf_precip_del2              =   2.5593765312607E-09
(PID.TID 0000.0001) %MON exf_snowprecip_max           =   0.0000000000000E+00
(PID.TID 0000.0001) %MON exf_snowprecip_min           =   0.0000000000000E+00
(PID.TID 0000.0001) %MON exf_snowprecip_mean          =   0.0000000000000E+00
(PID.TID 0000.0001) %MON exf_snowprecip_sd            =   0.0000000000000E+00
(PID.TID 0000.0001) %MON exf_snowprecip_del2          =   0.0000000000000E+00
(PID.TID 0000.0001) %MON exf_swflux_max               =  -8.1208018494434E-02
(PID.TID 0000.0001) %MON exf_swflux_min               =  -6.4124076818247E+01
(PID.TID 0000.0001) %MON exf_swflux_mean              =  -2.6537480749947E+01
(PID.TID 0000.0001) %MON exf_swflux_sd                =   1.9656602581253E+01
(PID.TID 0000.0001) %MON exf_swflux_del2              =   4.7986775712052E-01
(PID.TID 0000.0001) %MON exf_evap_max                 =   4.5343890978685E-08
(PID.TID 0000.0001) %MON exf_evap_min                 =  -4.2045649083408E-09
(PID.TID 0000.0001) %MON exf_evap_mean                =   1.0452616402581E-08
(PID.TID 0000.0001) %MON exf_evap_sd                  =   1.1076424482655E-08
(PID.TID 0000.0001) %MON exf_evap_del2                =   1.3336014262461E-09
(PID.TID 0000.0001) %MON exf_swdown_max               =   7.1248974242497E+01
(PID.TID 0000.0001) %MON exf_swdown_min               =   9.0231131660482E-02
(PID.TID 0000.0001) %MON exf_swdown_mean              =   2.9486089722164E+01
(PID.TID 0000.0001) %MON exf_swdown_sd                =   2.1840669534725E+01
(PID.TID 0000.0001) %MON exf_swdown_del2              =   5.3318639680058E-01
(PID.TID 0000.0001) %MON exf_lwdown_max               =   3.0560910934698E+02
(PID.TID 0000.0001) %MON exf_lwdown_min               =   1.1587683707899E+02
(PID.TID 0000.0001) %MON exf_lwdown_mean              =   2.2582365832661E+02
(PID.TID 0000.0001) %MON exf_lwdown_sd                =   4.6309216947189E+01
(PID.TID 0000.0001) %MON exf_lwdown_del2              =   3.2439144172738E+00
(PID.TID 0000.0001) %MON exf_apressure_max            =   0.0000000000000E+00
(PID.TID 0000.0001) %MON exf_apressure_min            =   0.0000000000000E+00
(PID.TID 0000.0001) %MON exf_apressure_mean           =   0.0000000000000E+00
(PID.TID 0000.0001) %MON exf_apressure_sd             =   0.0000000000000E+00
(PID.TID 0000.0001) %MON exf_apressure_del2           =   0.0000000000000E+00
(PID.TID 0000.0001) %MON exf_runoff_max               =   0.0000000000000E+00
(PID.TID 0000.0001) %MON exf_runoff_min               =   0.0000000000000E+00
(PID.TID 0000.0001) %MON exf_runoff_mean              =   0.0000000000000E+00
(PID.TID 0000.0001) %MON exf_runoff_sd                =   0.0000000000000E+00
(PID.TID 0000.0001) %MON exf_runoff_del2              =   0.0000000000000E+00
(PID.TID 0000.0001) %MON exf_climsst_max              =   0.0000000000000E+00
(PID.TID 0000.0001) %MON exf_climsst_min              =   0.0000000000000E+00
(PID.TID 0000.0001) %MON exf_climsst_mean             =   0.0000000000000E+00
(PID.TID 0000.0001) %MON exf_climsst_sd               =   0.0000000000000E+00
(PID.TID 0000.0001) %MON exf_climsst_del2             =   0.0000000000000E+00
(PID.TID 0000.0001) %MON exf_climsss_max              =   3.5041808863155E+01
(PID.TID 0000.0001) %MON exf_climsss_min              =   3.0672387795370E+01
(PID.TID 0000.0001) %MON exf_climsss_mean             =   3.3463490268825E+01
(PID.TID 0000.0001) %MON exf_climsss_sd               =   1.0313879583737E+00
(PID.TID 0000.0001) %MON exf_climsss_del2             =   1.0005612713826E-01
(PID.TID 0000.0001) // =======================================================
(PID.TID 0000.0001) // End MONITOR EXF statistics
(PID.TID 0000.0001) // =======================================================
(PID.TID 0000.0001) // =======================================================
(PID.TID 0000.0001) // Begin MONITOR EXF statistics
(PID.TID 0000.0001) // =======================================================
(PID.TID 0000.0001) %MON exf_tsnumber                 =                     7
(PID.TID 0000.0001) %MON exf_time_sec                 =   2.5200000000000E+04
(PID.TID 0000.0001) %MON exf_ustress_max              =   5.2243932821743E-02
(PID.TID 0000.0001) %MON exf_ustress_min              =  -9.3796695311269E-02
(PID.TID 0000.0001) %MON exf_ustress_mean             =   1.7960118868234E-02
(PID.TID 0000.0001) %MON exf_ustress_sd               =   2.3726167256399E-02
(PID.TID 0000.0001) %MON exf_ustress_del2             =   2.8191129276155E-03
(PID.TID 0000.0001) %MON exf_vstress_max              =   5.3833777652830E-02
(PID.TID 0000.0001) %MON exf_vstress_min              =  -5.8440994808454E-02
(PID.TID 0000.0001) %MON exf_vstress_mean             =  -5.4400590721791E-03
(PID.TID 0000.0001) %MON exf_vstress_sd               =   1.4449140152602E-02
(PID.TID 0000.0001) %MON exf_vstress_del2             =   1.6932578152941E-03
(PID.TID 0000.0001) %MON exf_hflux_max                =   6.2511249114515E+02
(PID.TID 0000.0001) %MON exf_hflux_min                =  -5.1292187886500E+01
(PID.TID 0000.0001) %MON exf_hflux_mean               =   1.4638061591974E+02
(PID.TID 0000.0001) %MON exf_hflux_sd                 =   1.8004879986784E+02
(PID.TID 0000.0001) %MON exf_hflux_del2               =   1.6307687226553E+01
(PID.TID 0000.0001) %MON exf_sflux_max                =   3.9024744508734E-08
(PID.TID 0000.0001) %MON exf_sflux_min                =  -8.8844029821014E-08
(PID.TID 0000.0001) %MON exf_sflux_mean               =  -2.5943658213728E-08
(PID.TID 0000.0001) %MON exf_sflux_sd                 =   3.0352934512066E-08
(PID.TID 0000.0001) %MON exf_sflux_del2               =   3.1638747738670E-09
(PID.TID 0000.0001) %MON exf_uwind_max                =   6.4679267093784E+00
(PID.TID 0000.0001) %MON exf_uwind_min                =  -6.8374255452651E+00
(PID.TID 0000.0001) %MON exf_uwind_mean               =   2.7705256000140E+00
(PID.TID 0000.0001) %MON exf_uwind_sd                 =   2.9919728561678E+00
(PID.TID 0000.0001) %MON exf_uwind_del2               =   3.1576527695052E-01
(PID.TID 0000.0001) %MON exf_vwind_max                =   3.9242794780783E+00
(PID.TID 0000.0001) %MON exf_vwind_min                =  -6.0133620194399E+00
(PID.TID 0000.0001) %MON exf_vwind_mean               =  -7.5657426961883E-01
(PID.TID 0000.0001) %MON exf_vwind_sd                 =   1.7301024272674E+00
(PID.TID 0000.0001) %MON exf_vwind_del2               =   1.9328456693798E-01
(PID.TID 0000.0001) %MON exf_wspeed_max               =   7.8835498038073E+00
(PID.TID 0000.0001) %MON exf_wspeed_min               =   4.5865235699732E-01
(PID.TID 0000.0001) %MON exf_wspeed_mean              =   4.1988415259832E+00
(PID.TID 0000.0001) %MON exf_wspeed_sd                =   1.6009692521540E+00
(PID.TID 0000.0001) %MON exf_wspeed_del2              =   3.7730984410389E-01
(PID.TID 0000.0001) %MON exf_atemp_max                =   2.8187082742993E+02
(PID.TID 0000.0001) %MON exf_atemp_min                =   2.3643051433042E+02
(PID.TID 0000.0001) %MON exf_atemp_mean               =   2.6391354924392E+02
(PID.TID 0000.0001) %MON exf_atemp_sd                 =   1.1993651656543E+01
(PID.TID 0000.0001) %MON exf_atemp_del2               =   6.4955809059907E-01
(PID.TID 0000.0001) %MON exf_aqh_max                  =   6.3182971576392E-03
(PID.TID 0000.0001) %MON exf_aqh_min                  =   1.6303402368524E-04
(PID.TID 0000.0001) %MON exf_aqh_mean                 =   2.4764404153565E-03
(PID.TID 0000.0001) %MON exf_aqh_sd                   =   1.4257865072101E-03
(PID.TID 0000.0001) %MON exf_aqh_del2                 =   6.8046107671613E-05
(PID.TID 0000.0001) %MON exf_lwflux_max               =   1.8159055041551E+02
(PID.TID 0000.0001) %MON exf_lwflux_min               =   2.7054912715581E+01
(PID.TID 0000.0001) %MON exf_lwflux_mean              =   7.5259489809883E+01
(PID.TID 0000.0001) %MON exf_lwflux_sd                =   4.2774121798953E+01
(PID.TID 0000.0001) %MON exf_lwflux_del2              =   3.2322946740639E+00
(PID.TID 0000.0001) %MON exf_precip_max               =   1.0499733310606E-07
(PID.TID 0000.0001) %MON exf_precip_min               =   2.7265750163496E-10
(PID.TID 0000.0001) %MON exf_precip_mean              =   3.6390004634845E-08
(PID.TID 0000.0001) %MON exf_precip_sd                =   2.0581314966068E-08
(PID.TID 0000.0001) %MON exf_precip_del2              =   2.5588488380710E-09
(PID.TID 0000.0001) %MON exf_snowprecip_max           =   0.0000000000000E+00
(PID.TID 0000.0001) %MON exf_snowprecip_min           =   0.0000000000000E+00
(PID.TID 0000.0001) %MON exf_snowprecip_mean          =   0.0000000000000E+00
(PID.TID 0000.0001) %MON exf_snowprecip_sd            =   0.0000000000000E+00
(PID.TID 0000.0001) %MON exf_snowprecip_del2          =   0.0000000000000E+00
(PID.TID 0000.0001) %MON exf_swflux_max               =  -8.1207735616653E-02
(PID.TID 0000.0001) %MON exf_swflux_min               =  -6.4105206467675E+01
(PID.TID 0000.0001) %MON exf_swflux_mean              =  -2.6526948534072E+01
(PID.TID 0000.0001) %MON exf_swflux_sd                =   1.9652762825246E+01
(PID.TID 0000.0001) %MON exf_swflux_del2              =   4.7976088317456E-01
(PID.TID 0000.0001) %MON exf_evap_max                 =   4.5344313356314E-08
(PID.TID 0000.0001) %MON exf_evap_min                 =  -4.2074596001949E-09
(PID.TID 0000.0001) %MON exf_evap_mean                =   1.0446346421117E-08
(PID.TID 0000.0001) %MON exf_evap_sd                  =   1.1077265748507E-08
(PID.TID 0000.0001) %MON exf_evap_del2                =   1.3331769268870E-09
(PID.TID 0000.0001) %MON exf_swdown_max               =   7.1228007186306E+01
(PID.TID 0000.0001) %MON exf_swdown_min               =   9.0230817351836E-02
(PID.TID 0000.0001) %MON exf_swdown_mean              =   2.9474387260081E+01
(PID.TID 0000.0001) %MON exf_swdown_sd                =   2.1836403139162E+01
(PID.TID 0000.0001) %MON exf_swdown_del2              =   5.3306764797174E-01
(PID.TID 0000.0001) %MON exf_lwdown_max               =   3.0561793543081E+02
(PID.TID 0000.0001) %MON exf_lwdown_min               =   1.1589194395764E+02
(PID.TID 0000.0001) %MON exf_lwdown_mean              =   2.2583936565568E+02
(PID.TID 0000.0001) %MON exf_lwdown_sd                =   4.6305239399294E+01
(PID.TID 0000.0001) %MON exf_lwdown_del2              =   3.2439027772011E+00
(PID.TID 0000.0001) %MON exf_apressure_max            =   0.0000000000000E+00
(PID.TID 0000.0001) %MON exf_apressure_min            =   0.0000000000000E+00
(PID.TID 0000.0001) %MON exf_apressure_mean           =   0.0000000000000E+00
(PID.TID 0000.0001) %MON exf_apressure_sd             =   0.0000000000000E+00
(PID.TID 0000.0001) %MON exf_apressure_del2           =   0.0000000000000E+00
(PID.TID 0000.0001) %MON exf_runoff_max               =   0.0000000000000E+00
(PID.TID 0000.0001) %MON exf_runoff_min               =   0.0000000000000E+00
(PID.TID 0000.0001) %MON exf_runoff_mean              =   0.0000000000000E+00
(PID.TID 0000.0001) %MON exf_runoff_sd                =   0.0000000000000E+00
(PID.TID 0000.0001) %MON exf_runoff_del2              =   0.0000000000000E+00
(PID.TID 0000.0001) %MON exf_climsst_max              =   0.0000000000000E+00
(PID.TID 0000.0001) %MON exf_climsst_min              =   0.0000000000000E+00
(PID.TID 0000.0001) %MON exf_climsst_mean             =   0.0000000000000E+00
(PID.TID 0000.0001) %MON exf_climsst_sd               =   0.0000000000000E+00
(PID.TID 0000.0001) %MON exf_climsst_del2             =   0.0000000000000E+00
(PID.TID 0000.0001) %MON exf_climsss_max              =   3.5041624116116E+01
(PID.TID 0000.0001) %MON exf_climsss_min              =   3.0671628467372E+01
(PID.TID 0000.0001) %MON exf_climsss_mean             =   3.3462968935345E+01
(PID.TID 0000.0001) %MON exf_climsss_sd               =   1.0314580197633E+00
(PID.TID 0000.0001) %MON exf_climsss_del2             =   1.0007335642865E-01
(PID.TID 0000.0001) // =======================================================
(PID.TID 0000.0001) // End MONITOR EXF statistics
(PID.TID 0000.0001) // =======================================================
 ph-ice B  7  0.  0.  0.
 ph-ice C  7  4.07568388E+11
(PID.TID 0000.0001) // =======================================================
(PID.TID 0000.0001) // Begin MONITOR dynamic field statistics
(PID.TID 0000.0001) // =======================================================
(PID.TID 0000.0001) %MON ad_time_tsnumber             =                     8
(PID.TID 0000.0001) %MON ad_time_secondsf             =   2.8800000000000E+04
(PID.TID 0000.0001) %MON ad_dynstat_adeta_max         =   2.2683114135729E+06
(PID.TID 0000.0001) %MON ad_dynstat_adeta_min         =  -4.1662106209715E+06
(PID.TID 0000.0001) %MON ad_dynstat_adeta_mean        =   6.3622336192074E+03
(PID.TID 0000.0001) %MON ad_dynstat_adeta_sd          =   6.5723269749196E+05
(PID.TID 0000.0001) %MON ad_dynstat_adeta_del2        =   1.8475509744216E+05
(PID.TID 0000.0001) %MON ad_dynstat_aduvel_max        =   4.6267935732707E+07
(PID.TID 0000.0001) %MON ad_dynstat_aduvel_min        =  -1.5783519463379E+08
(PID.TID 0000.0001) %MON ad_dynstat_aduvel_mean       =   1.5529591027703E+05
(PID.TID 0000.0001) %MON ad_dynstat_aduvel_sd         =   1.8007525782714E+06
(PID.TID 0000.0001) %MON ad_dynstat_aduvel_del2       =   4.6303971012989E+05
(PID.TID 0000.0001) %MON ad_dynstat_advvel_max        =   7.2861105502222E+07
(PID.TID 0000.0001) %MON ad_dynstat_advvel_min        =  -4.9261718537576E+06
(PID.TID 0000.0001) %MON ad_dynstat_advvel_mean       =   1.2554892030888E+05
(PID.TID 0000.0001) %MON ad_dynstat_advvel_sd         =   1.0829112248307E+06
(PID.TID 0000.0001) %MON ad_dynstat_advvel_del2       =   2.0860387396251E+05
(PID.TID 0000.0001) %MON ad_dynstat_adwvel_max        =   3.9198479073473E+08
(PID.TID 0000.0001) %MON ad_dynstat_adwvel_min        =  -8.8720433571547E+11
(PID.TID 0000.0001) %MON ad_dynstat_adwvel_mean       =  -2.0826807823824E+09
(PID.TID 0000.0001) %MON ad_dynstat_adwvel_sd         =   3.4750578206554E+10
(PID.TID 0000.0001) %MON ad_dynstat_adwvel_del2       =   2.9712907500460E+09
(PID.TID 0000.0001) %MON ad_dynstat_adtheta_max       =   7.6353222258207E+05
(PID.TID 0000.0001) %MON ad_dynstat_adtheta_min       =  -8.8875667951691E+08
(PID.TID 0000.0001) %MON ad_dynstat_adtheta_mean      =  -2.5132901132679E+06
(PID.TID 0000.0001) %MON ad_dynstat_adtheta_sd        =   4.0388727045785E+07
(PID.TID 0000.0001) %MON ad_dynstat_adtheta_del2      =   2.8507697148150E+06
(PID.TID 0000.0001) %MON ad_dynstat_adsalt_max        =   3.3929085931031E+06
(PID.TID 0000.0001) %MON ad_dynstat_adsalt_min        =  -4.6815979138200E+06
(PID.TID 0000.0001) %MON ad_dynstat_adsalt_mean       =   1.3070354060096E+03
(PID.TID 0000.0001) %MON ad_dynstat_adsalt_sd         =   5.3238584457854E+05
(PID.TID 0000.0001) %MON ad_dynstat_adsalt_del2       =   7.1914860280065E+04
(PID.TID 0000.0001) %MON ad_dynstat_adsst_max         =   3.3587315116626E+05
(PID.TID 0000.0001) %MON ad_dynstat_adsst_min         =  -8.8875667951691E+08
(PID.TID 0000.0001) %MON ad_dynstat_adsst_mean        =  -3.7399802285142E+08
(PID.TID 0000.0001) %MON ad_dynstat_adsst_sd          =   3.2235463329288E+08
(PID.TID 0000.0001) %MON ad_dynstat_adsst_del2        =   3.5164882228329E+07
(PID.TID 0000.0001) %MON ad_dynstat_adsss_max         =   7.9134186674513E+04
(PID.TID 0000.0001) %MON ad_dynstat_adsss_min         =  -5.5218152697666E+05
(PID.TID 0000.0001) %MON ad_dynstat_adsss_mean        =  -1.6595552073585E+04
(PID.TID 0000.0001) %MON ad_dynstat_adsss_sd          =   5.2408581941772E+04
(PID.TID 0000.0001) %MON ad_dynstat_adsss_del2        =   1.8075166808386E+04
(PID.TID 0000.0001) %MON ad_extforcing_adqnet_max     =   0.0000000000000E+00
(PID.TID 0000.0001) %MON ad_extforcing_adqnet_min     =   0.0000000000000E+00
(PID.TID 0000.0001) %MON ad_extforcing_adqnet_mean    =   0.0000000000000E+00
(PID.TID 0000.0001) %MON ad_extforcing_adqnet_sd      =   0.0000000000000E+00
(PID.TID 0000.0001) %MON ad_extforcing_adqnet_del2    =   0.0000000000000E+00
(PID.TID 0000.0001) %MON ad_extforcing_adqsw_max      =   0.0000000000000E+00
(PID.TID 0000.0001) %MON ad_extforcing_adqsw_min      =   0.0000000000000E+00
(PID.TID 0000.0001) %MON ad_extforcing_adqsw_mean     =   0.0000000000000E+00
(PID.TID 0000.0001) %MON ad_extforcing_adqsw_sd       =   0.0000000000000E+00
(PID.TID 0000.0001) %MON ad_extforcing_adqsw_del2     =   0.0000000000000E+00
(PID.TID 0000.0001) %MON ad_extforcing_adempmr_max    =   0.0000000000000E+00
(PID.TID 0000.0001) %MON ad_extforcing_adempmr_min    =   0.0000000000000E+00
(PID.TID 0000.0001) %MON ad_extforcing_adempmr_mean   =   0.0000000000000E+00
(PID.TID 0000.0001) %MON ad_extforcing_adempmr_sd     =   0.0000000000000E+00
(PID.TID 0000.0001) %MON ad_extforcing_adempmr_del2   =   0.0000000000000E+00
(PID.TID 0000.0001) %MON ad_extforcing_adfu_max       =   0.0000000000000E+00
(PID.TID 0000.0001) %MON ad_extforcing_adfu_min       =   0.0000000000000E+00
(PID.TID 0000.0001) %MON ad_extforcing_adfu_mean      =   0.0000000000000E+00
(PID.TID 0000.0001) %MON ad_extforcing_adfu_sd        =   0.0000000000000E+00
(PID.TID 0000.0001) %MON ad_extforcing_adfu_del2      =   0.0000000000000E+00
(PID.TID 0000.0001) %MON ad_extforcing_adfv_max       =   0.0000000000000E+00
(PID.TID 0000.0001) %MON ad_extforcing_adfv_min       =   0.0000000000000E+00
(PID.TID 0000.0001) %MON ad_extforcing_adfv_mean      =   0.0000000000000E+00
(PID.TID 0000.0001) %MON ad_extforcing_adfv_sd        =   0.0000000000000E+00
(PID.TID 0000.0001) %MON ad_extforcing_adfv_del2      =   0.0000000000000E+00
(PID.TID 0000.0001) %MON ad_advcfl_aduvel_max         =   4.9608037487329E+06
(PID.TID 0000.0001) %MON ad_advcfl_advvel_max         =   1.1794601953669E+06
(PID.TID 0000.0001) %MON ad_advcfl_adwvel_max         =   3.1939356085757E+14
(PID.TID 0000.0001) %MON ad_advcfl_adW_hf_max         =   6.3878712171514E+14
(PID.TID 0000.0001) // =======================================================
(PID.TID 0000.0001) // End MONITOR dynamic field statistics
(PID.TID 0000.0001) // =======================================================
 cg2d: Sum(rhs),rhsMax =   4.44567646584737E-12  1.38496765348207E+05
(PID.TID 0000.0001) // =======================================================
(PID.TID 0000.0001) // Begin MONITOR EXF statistics
(PID.TID 0000.0001) // =======================================================
(PID.TID 0000.0001) %MON exf_tsnumber                 =                     7
(PID.TID 0000.0001) %MON exf_time_sec                 =   2.5200000000000E+04
(PID.TID 0000.0001) %MON exf_ustress_max              =   5.2243932821743E-02
(PID.TID 0000.0001) %MON exf_ustress_min              =  -9.3796695311269E-02
(PID.TID 0000.0001) %MON exf_ustress_mean             =   1.7960118868234E-02
(PID.TID 0000.0001) %MON exf_ustress_sd               =   2.3726167256399E-02
(PID.TID 0000.0001) %MON exf_ustress_del2             =   2.8191129276155E-03
(PID.TID 0000.0001) %MON exf_vstress_max              =   5.3833777652830E-02
(PID.TID 0000.0001) %MON exf_vstress_min              =  -5.8440994808454E-02
(PID.TID 0000.0001) %MON exf_vstress_mean             =  -5.4400590721791E-03
(PID.TID 0000.0001) %MON exf_vstress_sd               =   1.4449140152602E-02
(PID.TID 0000.0001) %MON exf_vstress_del2             =   1.6932578152941E-03
(PID.TID 0000.0001) %MON exf_hflux_max                =   6.2511249114515E+02
(PID.TID 0000.0001) %MON exf_hflux_min                =  -5.1292187886500E+01
(PID.TID 0000.0001) %MON exf_hflux_mean               =   1.4638061591974E+02
(PID.TID 0000.0001) %MON exf_hflux_sd                 =   1.8004879986784E+02
(PID.TID 0000.0001) %MON exf_hflux_del2               =   1.6307687226553E+01
(PID.TID 0000.0001) %MON exf_sflux_max                =   3.9024744508734E-08
(PID.TID 0000.0001) %MON exf_sflux_min                =  -8.8844029821014E-08
(PID.TID 0000.0001) %MON exf_sflux_mean               =  -2.5943658213728E-08
(PID.TID 0000.0001) %MON exf_sflux_sd                 =   3.0352934512066E-08
(PID.TID 0000.0001) %MON exf_sflux_del2               =   3.1638747738670E-09
(PID.TID 0000.0001) %MON exf_uwind_max                =   6.4679267093784E+00
(PID.TID 0000.0001) %MON exf_uwind_min                =  -6.8374255452651E+00
(PID.TID 0000.0001) %MON exf_uwind_mean               =   2.7705256000140E+00
(PID.TID 0000.0001) %MON exf_uwind_sd                 =   2.9919728561678E+00
(PID.TID 0000.0001) %MON exf_uwind_del2               =   3.1576527695052E-01
(PID.TID 0000.0001) %MON exf_vwind_max                =   3.9242794780783E+00
(PID.TID 0000.0001) %MON exf_vwind_min                =  -6.0133620194399E+00
(PID.TID 0000.0001) %MON exf_vwind_mean               =  -7.5657426961883E-01
(PID.TID 0000.0001) %MON exf_vwind_sd                 =   1.7301024272674E+00
(PID.TID 0000.0001) %MON exf_vwind_del2               =   1.9328456693798E-01
(PID.TID 0000.0001) %MON exf_wspeed_max               =   7.8835498038073E+00
(PID.TID 0000.0001) %MON exf_wspeed_min               =   4.5865235699732E-01
(PID.TID 0000.0001) %MON exf_wspeed_mean              =   4.1988415259832E+00
(PID.TID 0000.0001) %MON exf_wspeed_sd                =   1.6009692521540E+00
(PID.TID 0000.0001) %MON exf_wspeed_del2              =   3.7730984410389E-01
(PID.TID 0000.0001) %MON exf_atemp_max                =   2.8187082742993E+02
(PID.TID 0000.0001) %MON exf_atemp_min                =   2.3643051433042E+02
(PID.TID 0000.0001) %MON exf_atemp_mean               =   2.6391354924392E+02
(PID.TID 0000.0001) %MON exf_atemp_sd                 =   1.1993651656543E+01
(PID.TID 0000.0001) %MON exf_atemp_del2               =   6.4955809059907E-01
(PID.TID 0000.0001) %MON exf_aqh_max                  =   6.3182971576392E-03
(PID.TID 0000.0001) %MON exf_aqh_min                  =   1.6303402368524E-04
(PID.TID 0000.0001) %MON exf_aqh_mean                 =   2.4764404153565E-03
(PID.TID 0000.0001) %MON exf_aqh_sd                   =   1.4257865072101E-03
(PID.TID 0000.0001) %MON exf_aqh_del2                 =   6.8046107671613E-05
(PID.TID 0000.0001) %MON exf_lwflux_max               =   1.8159055041551E+02
(PID.TID 0000.0001) %MON exf_lwflux_min               =   2.7054912715581E+01
(PID.TID 0000.0001) %MON exf_lwflux_mean              =   7.5259489809883E+01
(PID.TID 0000.0001) %MON exf_lwflux_sd                =   4.2774121798953E+01
(PID.TID 0000.0001) %MON exf_lwflux_del2              =   3.2322946740639E+00
(PID.TID 0000.0001) %MON exf_precip_max               =   1.0499733310606E-07
(PID.TID 0000.0001) %MON exf_precip_min               =   2.7265750163496E-10
(PID.TID 0000.0001) %MON exf_precip_mean              =   3.6390004634845E-08
(PID.TID 0000.0001) %MON exf_precip_sd                =   2.0581314966068E-08
(PID.TID 0000.0001) %MON exf_precip_del2              =   2.5588488380710E-09
(PID.TID 0000.0001) %MON exf_snowprecip_max           =   0.0000000000000E+00
(PID.TID 0000.0001) %MON exf_snowprecip_min           =   0.0000000000000E+00
(PID.TID 0000.0001) %MON exf_snowprecip_mean          =   0.0000000000000E+00
(PID.TID 0000.0001) %MON exf_snowprecip_sd            =   0.0000000000000E+00
(PID.TID 0000.0001) %MON exf_snowprecip_del2          =   0.0000000000000E+00
(PID.TID 0000.0001) %MON exf_swflux_max               =  -8.1207735616653E-02
(PID.TID 0000.0001) %MON exf_swflux_min               =  -6.4105206467675E+01
(PID.TID 0000.0001) %MON exf_swflux_mean              =  -2.6526948534072E+01
(PID.TID 0000.0001) %MON exf_swflux_sd                =   1.9652762825246E+01
(PID.TID 0000.0001) %MON exf_swflux_del2              =   4.7976088317456E-01
(PID.TID 0000.0001) %MON exf_evap_max                 =   4.5344313356314E-08
(PID.TID 0000.0001) %MON exf_evap_min                 =  -4.2074596001949E-09
(PID.TID 0000.0001) %MON exf_evap_mean                =   1.0446346421117E-08
(PID.TID 0000.0001) %MON exf_evap_sd                  =   1.1077265748507E-08
(PID.TID 0000.0001) %MON exf_evap_del2                =   1.3331769268870E-09
(PID.TID 0000.0001) %MON exf_swdown_max               =   7.1228007186306E+01
(PID.TID 0000.0001) %MON exf_swdown_min               =   9.0230817351836E-02
(PID.TID 0000.0001) %MON exf_swdown_mean              =   2.9474387260081E+01
(PID.TID 0000.0001) %MON exf_swdown_sd                =   2.1836403139162E+01
(PID.TID 0000.0001) %MON exf_swdown_del2              =   5.3306764797174E-01
(PID.TID 0000.0001) %MON exf_lwdown_max               =   3.0561793543081E+02
(PID.TID 0000.0001) %MON exf_lwdown_min               =   1.1589194395764E+02
(PID.TID 0000.0001) %MON exf_lwdown_mean              =   2.2583936565568E+02
(PID.TID 0000.0001) %MON exf_lwdown_sd                =   4.6305239399294E+01
(PID.TID 0000.0001) %MON exf_lwdown_del2              =   3.2439027772011E+00
(PID.TID 0000.0001) %MON exf_apressure_max            =   0.0000000000000E+00
(PID.TID 0000.0001) %MON exf_apressure_min            =   0.0000000000000E+00
(PID.TID 0000.0001) %MON exf_apressure_mean           =   0.0000000000000E+00
(PID.TID 0000.0001) %MON exf_apressure_sd             =   0.0000000000000E+00
(PID.TID 0000.0001) %MON exf_apressure_del2           =   0.0000000000000E+00
(PID.TID 0000.0001) %MON exf_runoff_max               =   0.0000000000000E+00
(PID.TID 0000.0001) %MON exf_runoff_min               =   0.0000000000000E+00
(PID.TID 0000.0001) %MON exf_runoff_mean              =   0.0000000000000E+00
(PID.TID 0000.0001) %MON exf_runoff_sd                =   0.0000000000000E+00
(PID.TID 0000.0001) %MON exf_runoff_del2              =   0.0000000000000E+00
(PID.TID 0000.0001) %MON exf_climsst_max              =   0.0000000000000E+00
(PID.TID 0000.0001) %MON exf_climsst_min              =   0.0000000000000E+00
(PID.TID 0000.0001) %MON exf_climsst_mean             =   0.0000000000000E+00
(PID.TID 0000.0001) %MON exf_climsst_sd               =   0.0000000000000E+00
(PID.TID 0000.0001) %MON exf_climsst_del2             =   0.0000000000000E+00
(PID.TID 0000.0001) %MON exf_climsss_max              =   3.5041624116116E+01
(PID.TID 0000.0001) %MON exf_climsss_min              =   3.0671628467372E+01
(PID.TID 0000.0001) %MON exf_climsss_mean             =   3.3462968935345E+01
(PID.TID 0000.0001) %MON exf_climsss_sd               =   1.0314580197633E+00
(PID.TID 0000.0001) %MON exf_climsss_del2             =   1.0007335642865E-01
(PID.TID 0000.0001) // =======================================================
(PID.TID 0000.0001) // End MONITOR EXF statistics
(PID.TID 0000.0001) // =======================================================
(PID.TID 0000.0001) // =======================================================
(PID.TID 0000.0001) // Begin MONITOR EXF statistics
(PID.TID 0000.0001) // =======================================================
(PID.TID 0000.0001) %MON exf_tsnumber                 =                     6
(PID.TID 0000.0001) %MON exf_time_sec                 =   2.1600000000000E+04
(PID.TID 0000.0001) %MON exf_ustress_max              =   5.2237984457504E-02
(PID.TID 0000.0001) %MON exf_ustress_min              =  -9.3794680426842E-02
(PID.TID 0000.0001) %MON exf_ustress_mean             =   1.7953013032227E-02
(PID.TID 0000.0001) %MON exf_ustress_sd               =   2.3720087063703E-02
(PID.TID 0000.0001) %MON exf_ustress_del2             =   2.8182307603703E-03
(PID.TID 0000.0001) %MON exf_vstress_max              =   5.3832418070363E-02
(PID.TID 0000.0001) %MON exf_vstress_min              =  -5.8451170700580E-02
(PID.TID 0000.0001) %MON exf_vstress_mean             =  -5.4433701237543E-03
(PID.TID 0000.0001) %MON exf_vstress_sd               =   1.4447187483995E-02
(PID.TID 0000.0001) %MON exf_vstress_del2             =   1.6932777054093E-03
(PID.TID 0000.0001) %MON exf_hflux_max                =   6.2507220073316E+02
(PID.TID 0000.0001) %MON exf_hflux_min                =  -5.1351197178493E+01
(PID.TID 0000.0001) %MON exf_hflux_mean               =   1.4630892808431E+02
(PID.TID 0000.0001) %MON exf_hflux_sd                 =   1.8003246493433E+02
(PID.TID 0000.0001) %MON exf_hflux_del2               =   1.6303871614930E+01
(PID.TID 0000.0001) %MON exf_sflux_max                =   3.9026275524023E-08
(PID.TID 0000.0001) %MON exf_sflux_min                =  -8.8868954898915E-08
(PID.TID 0000.0001) %MON exf_sflux_mean               =  -2.5950943772104E-08
(PID.TID 0000.0001) %MON exf_sflux_sd                 =   3.0354687237536E-08
(PID.TID 0000.0001) %MON exf_sflux_del2               =   3.1631199542450E-09
(PID.TID 0000.0001) %MON exf_uwind_max                =   6.4674192569295E+00
(PID.TID 0000.0001) %MON exf_uwind_min                =  -6.8373987635628E+00
(PID.TID 0000.0001) %MON exf_uwind_mean               =   2.7704180476696E+00
(PID.TID 0000.0001) %MON exf_uwind_sd                 =   2.9916966488382E+00
(PID.TID 0000.0001) %MON exf_uwind_del2               =   3.1575737272796E-01
(PID.TID 0000.0001) %MON exf_vwind_max                =   3.9242492972827E+00
(PID.TID 0000.0001) %MON exf_vwind_min                =  -6.0142679292648E+00
(PID.TID 0000.0001) %MON exf_vwind_mean               =  -7.5719204270894E-01
(PID.TID 0000.0001) %MON exf_vwind_sd                 =   1.7299937065642E+00
(PID.TID 0000.0001) %MON exf_vwind_del2               =   1.9329141077275E-01
(PID.TID 0000.0001) %MON exf_wspeed_max               =   7.8835115525503E+00
(PID.TID 0000.0001) %MON exf_wspeed_min               =   4.5889518386928E-01
(PID.TID 0000.0001) %MON exf_wspeed_mean              =   4.1987383082859E+00
(PID.TID 0000.0001) %MON exf_wspeed_sd                =   1.6007122259633E+00
(PID.TID 0000.0001) %MON exf_wspeed_del2              =   3.7725655435875E-01
(PID.TID 0000.0001) %MON exf_atemp_max                =   2.8187253958280E+02
(PID.TID 0000.0001) %MON exf_atemp_min                =   2.3643497929808E+02
(PID.TID 0000.0001) %MON exf_atemp_mean               =   2.6391819332927E+02
(PID.TID 0000.0001) %MON exf_atemp_sd                 =   1.1992188200331E+01
(PID.TID 0000.0001) %MON exf_atemp_del2               =   6.4953875765774E-01
(PID.TID 0000.0001) %MON exf_aqh_max                  =   6.3189936985002E-03
(PID.TID 0000.0001) %MON exf_aqh_min                  =   1.6312812718364E-04
(PID.TID 0000.0001) %MON exf_aqh_mean                 =   2.4770007717611E-03
(PID.TID 0000.0001) %MON exf_aqh_sd                   =   1.4258893952382E-03
(PID.TID 0000.0001) %MON exf_aqh_del2                 =   6.8059775232760E-05
(PID.TID 0000.0001) %MON exf_lwflux_max               =   1.8157457967829E+02
(PID.TID 0000.0001) %MON exf_lwflux_min               =   2.7062314429986E+01
(PID.TID 0000.0001) %MON exf_lwflux_mean              =   7.5238119154130E+01
(PID.TID 0000.0001) %MON exf_lwflux_sd                =   4.2774667059390E+01
(PID.TID 0000.0001) %MON exf_lwflux_del2              =   3.2322338899284E+00
(PID.TID 0000.0001) %MON exf_precip_max               =   1.0499595166344E-07
(PID.TID 0000.0001) %MON exf_precip_min               =   2.7279142810763E-10
(PID.TID 0000.0001) %MON exf_precip_mean              =   3.6390015478879E-08
(PID.TID 0000.0001) %MON exf_precip_sd                =   2.0580860600171E-08
(PID.TID 0000.0001) %MON exf_precip_del2              =   2.5583211448813E-09
(PID.TID 0000.0001) %MON exf_snowprecip_max           =   0.0000000000000E+00
(PID.TID 0000.0001) %MON exf_snowprecip_min           =   0.0000000000000E+00
(PID.TID 0000.0001) %MON exf_snowprecip_mean          =   0.0000000000000E+00
(PID.TID 0000.0001) %MON exf_snowprecip_sd            =   0.0000000000000E+00
(PID.TID 0000.0001) %MON exf_snowprecip_del2          =   0.0000000000000E+00
(PID.TID 0000.0001) %MON exf_swflux_max               =  -8.1207452738871E-02
(PID.TID 0000.0001) %MON exf_swflux_min               =  -6.4086336117103E+01
(PID.TID 0000.0001) %MON exf_swflux_mean              =  -2.6516416318198E+01
(PID.TID 0000.0001) %MON exf_swflux_sd                =   1.9648923659484E+01
(PID.TID 0000.0001) %MON exf_swflux_del2              =   4.7965400922860E-01
(PID.TID 0000.0001) %MON exf_evap_max                 =   4.5346507082534E-08
(PID.TID 0000.0001) %MON exf_evap_min                 =  -4.2210682151331E-09
(PID.TID 0000.0001) %MON exf_evap_mean                =   1.0439071706775E-08
(PID.TID 0000.0001) %MON exf_evap_sd                  =   1.1078855231968E-08
(PID.TID 0000.0001) %MON exf_evap_del2                =   1.3326508040011E-09
(PID.TID 0000.0001) %MON exf_swdown_max               =   7.1207040130115E+01
(PID.TID 0000.0001) %MON exf_swdown_min               =   9.0230503043190E-02
(PID.TID 0000.0001) %MON exf_swdown_mean              =   2.9462684797997E+01
(PID.TID 0000.0001) %MON exf_swdown_sd                =   2.1832137399427E+01
(PID.TID 0000.0001) %MON exf_swdown_del2              =   5.3294889914289E-01
(PID.TID 0000.0001) %MON exf_lwdown_max               =   3.0562676151463E+02
(PID.TID 0000.0001) %MON exf_lwdown_min               =   1.1590705083628E+02
(PID.TID 0000.0001) %MON exf_lwdown_mean              =   2.2585507298474E+02
(PID.TID 0000.0001) %MON exf_lwdown_sd                =   4.6301263017486E+01
(PID.TID 0000.0001) %MON exf_lwdown_del2              =   3.2438911371283E+00
(PID.TID 0000.0001) %MON exf_apressure_max            =   0.0000000000000E+00
(PID.TID 0000.0001) %MON exf_apressure_min            =   0.0000000000000E+00
(PID.TID 0000.0001) %MON exf_apressure_mean           =   0.0000000000000E+00
(PID.TID 0000.0001) %MON exf_apressure_sd             =   0.0000000000000E+00
(PID.TID 0000.0001) %MON exf_apressure_del2           =   0.0000000000000E+00
(PID.TID 0000.0001) %MON exf_runoff_max               =   0.0000000000000E+00
(PID.TID 0000.0001) %MON exf_runoff_min               =   0.0000000000000E+00
(PID.TID 0000.0001) %MON exf_runoff_mean              =   0.0000000000000E+00
(PID.TID 0000.0001) %MON exf_runoff_sd                =   0.0000000000000E+00
(PID.TID 0000.0001) %MON exf_runoff_del2              =   0.0000000000000E+00
(PID.TID 0000.0001) %MON exf_climsst_max              =   0.0000000000000E+00
(PID.TID 0000.0001) %MON exf_climsst_min              =   0.0000000000000E+00
(PID.TID 0000.0001) %MON exf_climsst_mean             =   0.0000000000000E+00
(PID.TID 0000.0001) %MON exf_climsst_sd               =   0.0000000000000E+00
(PID.TID 0000.0001) %MON exf_climsst_del2             =   0.0000000000000E+00
(PID.TID 0000.0001) %MON exf_climsss_max              =   3.5041439369077E+01
(PID.TID 0000.0001) %MON exf_climsss_min              =   3.0670869139374E+01
(PID.TID 0000.0001) %MON exf_climsss_mean             =   3.3462447601866E+01
(PID.TID 0000.0001) %MON exf_climsss_sd               =   1.0315283113566E+00
(PID.TID 0000.0001) %MON exf_climsss_del2             =   1.0009058571904E-01
(PID.TID 0000.0001) // =======================================================
(PID.TID 0000.0001) // End MONITOR EXF statistics
(PID.TID 0000.0001) // =======================================================
 ph-ice B  6  0.  0.  0.
 ph-ice C  6  3.56942995E+11
(PID.TID 0000.0001) // =======================================================
(PID.TID 0000.0001) // Begin MONITOR dynamic field statistics
(PID.TID 0000.0001) // =======================================================
(PID.TID 0000.0001) %MON ad_time_tsnumber             =                     7
(PID.TID 0000.0001) %MON ad_time_secondsf             =   2.5200000000000E+04
(PID.TID 0000.0001) %MON ad_dynstat_adeta_max         =   2.3722494218110E+08
(PID.TID 0000.0001) %MON ad_dynstat_adeta_min         =  -2.5539811055430E+08
(PID.TID 0000.0001) %MON ad_dynstat_adeta_mean        =   5.5609881538318E+04
(PID.TID 0000.0001) %MON ad_dynstat_adeta_sd          =   6.5793332819528E+07
(PID.TID 0000.0001) %MON ad_dynstat_adeta_del2        =   1.4673430684726E+07
(PID.TID 0000.0001) %MON ad_dynstat_aduvel_max        =   2.1264411780661E+08
(PID.TID 0000.0001) %MON ad_dynstat_aduvel_min        =  -2.5431937326355E+08
(PID.TID 0000.0001) %MON ad_dynstat_aduvel_mean       =   4.6738792290255E+07
(PID.TID 0000.0001) %MON ad_dynstat_aduvel_sd         =   5.2332988991898E+07
(PID.TID 0000.0001) %MON ad_dynstat_aduvel_del2       =   3.0179227928875E+06
(PID.TID 0000.0001) %MON ad_dynstat_advvel_max        =   1.4306154100400E+08
(PID.TID 0000.0001) %MON ad_dynstat_advvel_min        =  -1.0041873656913E+08
(PID.TID 0000.0001) %MON ad_dynstat_advvel_mean       =  -3.0261615837979E+07
(PID.TID 0000.0001) %MON ad_dynstat_advvel_sd         =   2.7403197213334E+07
(PID.TID 0000.0001) %MON ad_dynstat_advvel_del2       =   1.8555511960698E+06
(PID.TID 0000.0001) %MON ad_dynstat_adwvel_max        =   9.6014526493689E+08
(PID.TID 0000.0001) %MON ad_dynstat_adwvel_min        =  -1.4048771799590E+12
(PID.TID 0000.0001) %MON ad_dynstat_adwvel_mean       =  -3.3936807979062E+09
(PID.TID 0000.0001) %MON ad_dynstat_adwvel_sd         =   5.6248925441491E+10
(PID.TID 0000.0001) %MON ad_dynstat_adwvel_del2       =   5.4003163746527E+09
(PID.TID 0000.0001) %MON ad_dynstat_adtheta_max       =   1.5139552880502E+07
(PID.TID 0000.0001) %MON ad_dynstat_adtheta_min       =  -1.3273528827655E+09
(PID.TID 0000.0001) %MON ad_dynstat_adtheta_mean      =  -3.7212770115213E+06
(PID.TID 0000.0001) %MON ad_dynstat_adtheta_sd        =   6.0494845674562E+07
(PID.TID 0000.0001) %MON ad_dynstat_adtheta_del2      =   4.4877580618620E+06
(PID.TID 0000.0001) %MON ad_dynstat_adsalt_max        =   6.6883249405291E+07
(PID.TID 0000.0001) %MON ad_dynstat_adsalt_min        =  -8.6555093268858E+07
(PID.TID 0000.0001) %MON ad_dynstat_adsalt_mean       =  -2.1705104387671E+05
(PID.TID 0000.0001) %MON ad_dynstat_adsalt_sd         =   1.6491176889619E+07
(PID.TID 0000.0001) %MON ad_dynstat_adsalt_del2       =   1.8343506967568E+06
(PID.TID 0000.0001) %MON ad_dynstat_adsst_max         =   8.2567149326551E+05
(PID.TID 0000.0001) %MON ad_dynstat_adsst_min         =  -1.3273528827655E+09
(PID.TID 0000.0001) %MON ad_dynstat_adsst_mean        =  -5.6211032393394E+08
(PID.TID 0000.0001) %MON ad_dynstat_adsst_sd          =   4.7929188528776E+08
(PID.TID 0000.0001) %MON ad_dynstat_adsst_del2        =   5.1932317997423E+07
(PID.TID 0000.0001) %MON ad_dynstat_adsss_max         =   2.2532609151236E+06
(PID.TID 0000.0001) %MON ad_dynstat_adsss_min         =  -2.6354381347466E+06
(PID.TID 0000.0001) %MON ad_dynstat_adsss_mean        =  -5.8827333309696E+04
(PID.TID 0000.0001) %MON ad_dynstat_adsss_sd          =   6.9081212490669E+05
(PID.TID 0000.0001) %MON ad_dynstat_adsss_del2        =   1.7797275459763E+05
(PID.TID 0000.0001) %MON ad_extforcing_adqnet_max     =   0.0000000000000E+00
(PID.TID 0000.0001) %MON ad_extforcing_adqnet_min     =   0.0000000000000E+00
(PID.TID 0000.0001) %MON ad_extforcing_adqnet_mean    =   0.0000000000000E+00
(PID.TID 0000.0001) %MON ad_extforcing_adqnet_sd      =   0.0000000000000E+00
(PID.TID 0000.0001) %MON ad_extforcing_adqnet_del2    =   0.0000000000000E+00
(PID.TID 0000.0001) %MON ad_extforcing_adqsw_max      =   0.0000000000000E+00
(PID.TID 0000.0001) %MON ad_extforcing_adqsw_min      =   0.0000000000000E+00
(PID.TID 0000.0001) %MON ad_extforcing_adqsw_mean     =   0.0000000000000E+00
(PID.TID 0000.0001) %MON ad_extforcing_adqsw_sd       =   0.0000000000000E+00
(PID.TID 0000.0001) %MON ad_extforcing_adqsw_del2     =   0.0000000000000E+00
(PID.TID 0000.0001) %MON ad_extforcing_adempmr_max    =   0.0000000000000E+00
(PID.TID 0000.0001) %MON ad_extforcing_adempmr_min    =   0.0000000000000E+00
(PID.TID 0000.0001) %MON ad_extforcing_adempmr_mean   =   0.0000000000000E+00
(PID.TID 0000.0001) %MON ad_extforcing_adempmr_sd     =   0.0000000000000E+00
(PID.TID 0000.0001) %MON ad_extforcing_adempmr_del2   =   0.0000000000000E+00
(PID.TID 0000.0001) %MON ad_extforcing_adfu_max       =   0.0000000000000E+00
(PID.TID 0000.0001) %MON ad_extforcing_adfu_min       =   0.0000000000000E+00
(PID.TID 0000.0001) %MON ad_extforcing_adfu_mean      =   0.0000000000000E+00
(PID.TID 0000.0001) %MON ad_extforcing_adfu_sd        =   0.0000000000000E+00
(PID.TID 0000.0001) %MON ad_extforcing_adfu_del2      =   0.0000000000000E+00
(PID.TID 0000.0001) %MON ad_extforcing_adfv_max       =   0.0000000000000E+00
(PID.TID 0000.0001) %MON ad_extforcing_adfv_min       =   0.0000000000000E+00
(PID.TID 0000.0001) %MON ad_extforcing_adfv_mean      =   0.0000000000000E+00
(PID.TID 0000.0001) %MON ad_extforcing_adfv_sd        =   0.0000000000000E+00
(PID.TID 0000.0001) %MON ad_extforcing_adfv_del2      =   0.0000000000000E+00
(PID.TID 0000.0001) %MON ad_advcfl_aduvel_max         =   7.9933281242405E+06
(PID.TID 0000.0001) %MON ad_advcfl_advvel_max         =   2.3158500264167E+06
(PID.TID 0000.0001) %MON ad_advcfl_adwvel_max         =   5.0575578478524E+14
(PID.TID 0000.0001) %MON ad_advcfl_adW_hf_max         =   1.0115115695705E+15
(PID.TID 0000.0001) // =======================================================
(PID.TID 0000.0001) // End MONITOR dynamic field statistics
(PID.TID 0000.0001) // =======================================================
 cg2d: Sum(rhs),rhsMax =  -3.81210505219845E-10  2.27889291616902E+05
(PID.TID 0000.0001) // =======================================================
(PID.TID 0000.0001) // Begin MONITOR EXF statistics
(PID.TID 0000.0001) // =======================================================
(PID.TID 0000.0001) %MON exf_tsnumber                 =                     6
(PID.TID 0000.0001) %MON exf_time_sec                 =   2.1600000000000E+04
(PID.TID 0000.0001) %MON exf_ustress_max              =   5.2237984457504E-02
(PID.TID 0000.0001) %MON exf_ustress_min              =  -9.3794680426842E-02
(PID.TID 0000.0001) %MON exf_ustress_mean             =   1.7953013032227E-02
(PID.TID 0000.0001) %MON exf_ustress_sd               =   2.3720087063703E-02
(PID.TID 0000.0001) %MON exf_ustress_del2             =   2.8182307603703E-03
(PID.TID 0000.0001) %MON exf_vstress_max              =   5.3832418070363E-02
(PID.TID 0000.0001) %MON exf_vstress_min              =  -5.8451170700580E-02
(PID.TID 0000.0001) %MON exf_vstress_mean             =  -5.4433701237543E-03
(PID.TID 0000.0001) %MON exf_vstress_sd               =   1.4447187483995E-02
(PID.TID 0000.0001) %MON exf_vstress_del2             =   1.6932777054093E-03
(PID.TID 0000.0001) %MON exf_hflux_max                =   6.2507220073316E+02
(PID.TID 0000.0001) %MON exf_hflux_min                =  -5.1351197178493E+01
(PID.TID 0000.0001) %MON exf_hflux_mean               =   1.4630892808431E+02
(PID.TID 0000.0001) %MON exf_hflux_sd                 =   1.8003246493433E+02
(PID.TID 0000.0001) %MON exf_hflux_del2               =   1.6303871614930E+01
(PID.TID 0000.0001) %MON exf_sflux_max                =   3.9026275524023E-08
(PID.TID 0000.0001) %MON exf_sflux_min                =  -8.8868954898915E-08
(PID.TID 0000.0001) %MON exf_sflux_mean               =  -2.5950943772104E-08
(PID.TID 0000.0001) %MON exf_sflux_sd                 =   3.0354687237536E-08
(PID.TID 0000.0001) %MON exf_sflux_del2               =   3.1631199542450E-09
(PID.TID 0000.0001) %MON exf_uwind_max                =   6.4674192569295E+00
(PID.TID 0000.0001) %MON exf_uwind_min                =  -6.8373987635628E+00
(PID.TID 0000.0001) %MON exf_uwind_mean               =   2.7704180476696E+00
(PID.TID 0000.0001) %MON exf_uwind_sd                 =   2.9916966488382E+00
(PID.TID 0000.0001) %MON exf_uwind_del2               =   3.1575737272796E-01
(PID.TID 0000.0001) %MON exf_vwind_max                =   3.9242492972827E+00
(PID.TID 0000.0001) %MON exf_vwind_min                =  -6.0142679292648E+00
(PID.TID 0000.0001) %MON exf_vwind_mean               =  -7.5719204270894E-01
(PID.TID 0000.0001) %MON exf_vwind_sd                 =   1.7299937065642E+00
(PID.TID 0000.0001) %MON exf_vwind_del2               =   1.9329141077275E-01
(PID.TID 0000.0001) %MON exf_wspeed_max               =   7.8835115525503E+00
(PID.TID 0000.0001) %MON exf_wspeed_min               =   4.5889518386928E-01
(PID.TID 0000.0001) %MON exf_wspeed_mean              =   4.1987383082859E+00
(PID.TID 0000.0001) %MON exf_wspeed_sd                =   1.6007122259633E+00
(PID.TID 0000.0001) %MON exf_wspeed_del2              =   3.7725655435875E-01
(PID.TID 0000.0001) %MON exf_atemp_max                =   2.8187253958280E+02
(PID.TID 0000.0001) %MON exf_atemp_min                =   2.3643497929808E+02
(PID.TID 0000.0001) %MON exf_atemp_mean               =   2.6391819332927E+02
(PID.TID 0000.0001) %MON exf_atemp_sd                 =   1.1992188200331E+01
(PID.TID 0000.0001) %MON exf_atemp_del2               =   6.4953875765774E-01
(PID.TID 0000.0001) %MON exf_aqh_max                  =   6.3189936985002E-03
(PID.TID 0000.0001) %MON exf_aqh_min                  =   1.6312812718364E-04
(PID.TID 0000.0001) %MON exf_aqh_mean                 =   2.4770007717611E-03
(PID.TID 0000.0001) %MON exf_aqh_sd                   =   1.4258893952382E-03
(PID.TID 0000.0001) %MON exf_aqh_del2                 =   6.8059775232760E-05
(PID.TID 0000.0001) %MON exf_lwflux_max               =   1.8157457967829E+02
(PID.TID 0000.0001) %MON exf_lwflux_min               =   2.7062314429986E+01
(PID.TID 0000.0001) %MON exf_lwflux_mean              =   7.5238119154130E+01
(PID.TID 0000.0001) %MON exf_lwflux_sd                =   4.2774667059390E+01
(PID.TID 0000.0001) %MON exf_lwflux_del2              =   3.2322338899284E+00
(PID.TID 0000.0001) %MON exf_precip_max               =   1.0499595166344E-07
(PID.TID 0000.0001) %MON exf_precip_min               =   2.7279142810763E-10
(PID.TID 0000.0001) %MON exf_precip_mean              =   3.6390015478879E-08
(PID.TID 0000.0001) %MON exf_precip_sd                =   2.0580860600171E-08
(PID.TID 0000.0001) %MON exf_precip_del2              =   2.5583211448813E-09
(PID.TID 0000.0001) %MON exf_snowprecip_max           =   0.0000000000000E+00
(PID.TID 0000.0001) %MON exf_snowprecip_min           =   0.0000000000000E+00
(PID.TID 0000.0001) %MON exf_snowprecip_mean          =   0.0000000000000E+00
(PID.TID 0000.0001) %MON exf_snowprecip_sd            =   0.0000000000000E+00
(PID.TID 0000.0001) %MON exf_snowprecip_del2          =   0.0000000000000E+00
(PID.TID 0000.0001) %MON exf_swflux_max               =  -8.1207452738871E-02
(PID.TID 0000.0001) %MON exf_swflux_min               =  -6.4086336117103E+01
(PID.TID 0000.0001) %MON exf_swflux_mean              =  -2.6516416318198E+01
(PID.TID 0000.0001) %MON exf_swflux_sd                =   1.9648923659484E+01
(PID.TID 0000.0001) %MON exf_swflux_del2              =   4.7965400922860E-01
(PID.TID 0000.0001) %MON exf_evap_max                 =   4.5346507082534E-08
(PID.TID 0000.0001) %MON exf_evap_min                 =  -4.2210682151331E-09
(PID.TID 0000.0001) %MON exf_evap_mean                =   1.0439071706775E-08
(PID.TID 0000.0001) %MON exf_evap_sd                  =   1.1078855231968E-08
(PID.TID 0000.0001) %MON exf_evap_del2                =   1.3326508040011E-09
(PID.TID 0000.0001) %MON exf_swdown_max               =   7.1207040130115E+01
(PID.TID 0000.0001) %MON exf_swdown_min               =   9.0230503043190E-02
(PID.TID 0000.0001) %MON exf_swdown_mean              =   2.9462684797997E+01
(PID.TID 0000.0001) %MON exf_swdown_sd                =   2.1832137399427E+01
(PID.TID 0000.0001) %MON exf_swdown_del2              =   5.3294889914289E-01
(PID.TID 0000.0001) %MON exf_lwdown_max               =   3.0562676151463E+02
(PID.TID 0000.0001) %MON exf_lwdown_min               =   1.1590705083628E+02
(PID.TID 0000.0001) %MON exf_lwdown_mean              =   2.2585507298474E+02
(PID.TID 0000.0001) %MON exf_lwdown_sd                =   4.6301263017486E+01
(PID.TID 0000.0001) %MON exf_lwdown_del2              =   3.2438911371283E+00
(PID.TID 0000.0001) %MON exf_apressure_max            =   0.0000000000000E+00
(PID.TID 0000.0001) %MON exf_apressure_min            =   0.0000000000000E+00
(PID.TID 0000.0001) %MON exf_apressure_mean           =   0.0000000000000E+00
(PID.TID 0000.0001) %MON exf_apressure_sd             =   0.0000000000000E+00
(PID.TID 0000.0001) %MON exf_apressure_del2           =   0.0000000000000E+00
(PID.TID 0000.0001) %MON exf_runoff_max               =   0.0000000000000E+00
(PID.TID 0000.0001) %MON exf_runoff_min               =   0.0000000000000E+00
(PID.TID 0000.0001) %MON exf_runoff_mean              =   0.0000000000000E+00
(PID.TID 0000.0001) %MON exf_runoff_sd                =   0.0000000000000E+00
(PID.TID 0000.0001) %MON exf_runoff_del2              =   0.0000000000000E+00
(PID.TID 0000.0001) %MON exf_climsst_max              =   0.0000000000000E+00
(PID.TID 0000.0001) %MON exf_climsst_min              =   0.0000000000000E+00
(PID.TID 0000.0001) %MON exf_climsst_mean             =   0.0000000000000E+00
(PID.TID 0000.0001) %MON exf_climsst_sd               =   0.0000000000000E+00
(PID.TID 0000.0001) %MON exf_climsst_del2             =   0.0000000000000E+00
(PID.TID 0000.0001) %MON exf_climsss_max              =   3.5041439369077E+01
(PID.TID 0000.0001) %MON exf_climsss_min              =   3.0670869139374E+01
(PID.TID 0000.0001) %MON exf_climsss_mean             =   3.3462447601866E+01
(PID.TID 0000.0001) %MON exf_climsss_sd               =   1.0315283113566E+00
(PID.TID 0000.0001) %MON exf_climsss_del2             =   1.0009058571904E-01
(PID.TID 0000.0001) // =======================================================
(PID.TID 0000.0001) // End MONITOR EXF statistics
(PID.TID 0000.0001) // =======================================================
(PID.TID 0000.0001) // =======================================================
(PID.TID 0000.0001) // Begin MONITOR EXF statistics
(PID.TID 0000.0001) // =======================================================
(PID.TID 0000.0001) %MON exf_tsnumber                 =                     5
(PID.TID 0000.0001) %MON exf_time_sec                 =   1.8000000000000E+04
(PID.TID 0000.0001) %MON exf_ustress_max              =   5.2230884117586E-02
(PID.TID 0000.0001) %MON exf_ustress_min              =  -9.3792692313509E-02
(PID.TID 0000.0001) %MON exf_ustress_mean             =   1.7944940093883E-02
(PID.TID 0000.0001) %MON exf_ustress_sd               =   2.3713963571757E-02
(PID.TID 0000.0001) %MON exf_ustress_del2             =   2.8173052338397E-03
(PID.TID 0000.0001) %MON exf_vstress_max              =   5.3831073859948E-02
(PID.TID 0000.0001) %MON exf_vstress_min              =  -5.8456785540535E-02
(PID.TID 0000.0001) %MON exf_vstress_mean             =  -5.4464512858083E-03
(PID.TID 0000.0001) %MON exf_vstress_sd               =   1.4444944996378E-02
(PID.TID 0000.0001) %MON exf_vstress_del2             =   1.6932729733754E-03
(PID.TID 0000.0001) %MON exf_hflux_max                =   6.2503361232607E+02
(PID.TID 0000.0001) %MON exf_hflux_min                =  -5.1451597527523E+01
(PID.TID 0000.0001) %MON exf_hflux_mean               =   1.4623261715618E+02
(PID.TID 0000.0001) %MON exf_hflux_sd                 =   1.8002328682026E+02
(PID.TID 0000.0001) %MON exf_hflux_del2               =   1.6301004651153E+01
(PID.TID 0000.0001) %MON exf_sflux_max                =   3.9028023656348E-08
(PID.TID 0000.0001) %MON exf_sflux_min                =  -8.8915527500586E-08
(PID.TID 0000.0001) %MON exf_sflux_mean               =  -2.5958891680597E-08
(PID.TID 0000.0001) %MON exf_sflux_sd                 =   3.0357858270478E-08
(PID.TID 0000.0001) %MON exf_sflux_del2               =   3.1625237172645E-09
(PID.TID 0000.0001) %MON exf_uwind_max                =   6.4669118044806E+00
(PID.TID 0000.0001) %MON exf_uwind_min                =  -6.8373719818605E+00
(PID.TID 0000.0001) %MON exf_uwind_mean               =   2.7703104953252E+00
(PID.TID 0000.0001) %MON exf_uwind_sd                 =   2.9914204817202E+00
(PID.TID 0000.0001) %MON exf_uwind_del2               =   3.1574946850541E-01
(PID.TID 0000.0001) %MON exf_vwind_max                =   3.9242191164871E+00
(PID.TID 0000.0001) %MON exf_vwind_min                =  -6.0151738390896E+00
(PID.TID 0000.0001) %MON exf_vwind_mean               =  -7.5780981579906E-01
(PID.TID 0000.0001) %MON exf_vwind_sd                 =   1.7298850990135E+00
(PID.TID 0000.0001) %MON exf_vwind_del2               =   1.9329828211469E-01
(PID.TID 0000.0001) %MON exf_wspeed_max               =   7.8834733013142E+00
(PID.TID 0000.0001) %MON exf_wspeed_min               =   4.5913801314248E-01
(PID.TID 0000.0001) %MON exf_wspeed_mean              =   4.1986352194932E+00
(PID.TID 0000.0001) %MON exf_wspeed_sd                =   1.6004553118739E+00
(PID.TID 0000.0001) %MON exf_wspeed_del2              =   3.7720325813743E-01
(PID.TID 0000.0001) %MON exf_atemp_max                =   2.8187425173567E+02
(PID.TID 0000.0001) %MON exf_atemp_min                =   2.3643944426573E+02
(PID.TID 0000.0001) %MON exf_atemp_mean               =   2.6392283741463E+02
(PID.TID 0000.0001) %MON exf_atemp_sd                 =   1.1990725231039E+01
(PID.TID 0000.0001) %MON exf_atemp_del2               =   6.4951942471641E-01
(PID.TID 0000.0001) %MON exf_aqh_max                  =   6.3196902393613E-03
(PID.TID 0000.0001) %MON exf_aqh_min                  =   1.6322223068205E-04
(PID.TID 0000.0001) %MON exf_aqh_mean                 =   2.4775611281656E-03
(PID.TID 0000.0001) %MON exf_aqh_sd                   =   1.4259923191659E-03
(PID.TID 0000.0001) %MON exf_aqh_del2                 =   6.8073442793907E-05
(PID.TID 0000.0001) %MON exf_lwflux_max               =   1.8156112611884E+02
(PID.TID 0000.0001) %MON exf_lwflux_min               =   2.7075633019266E+01
(PID.TID 0000.0001) %MON exf_lwflux_mean              =   7.5214634577009E+01
(PID.TID 0000.0001) %MON exf_lwflux_sd                =   4.2777639113310E+01
(PID.TID 0000.0001) %MON exf_lwflux_del2              =   3.2323857667016E+00
(PID.TID 0000.0001) %MON exf_precip_max               =   1.0499457022082E-07
(PID.TID 0000.0001) %MON exf_precip_min               =   2.7292535458031E-10
(PID.TID 0000.0001) %MON exf_precip_mean              =   3.6390026322913E-08
(PID.TID 0000.0001) %MON exf_precip_sd                =   2.0580406889746E-08
(PID.TID 0000.0001) %MON exf_precip_del2              =   2.5577934516916E-09
(PID.TID 0000.0001) %MON exf_snowprecip_max           =   0.0000000000000E+00
(PID.TID 0000.0001) %MON exf_snowprecip_min           =   0.0000000000000E+00
(PID.TID 0000.0001) %MON exf_snowprecip_mean          =   0.0000000000000E+00
(PID.TID 0000.0001) %MON exf_snowprecip_sd            =   0.0000000000000E+00
(PID.TID 0000.0001) %MON exf_snowprecip_del2          =   0.0000000000000E+00
(PID.TID 0000.0001) %MON exf_swflux_max               =  -8.1207169861090E-02
(PID.TID 0000.0001) %MON exf_swflux_min               =  -6.4067465766532E+01
(PID.TID 0000.0001) %MON exf_swflux_mean              =  -2.6505884102323E+01
(PID.TID 0000.0001) %MON exf_swflux_sd                =   1.9645085084315E+01
(PID.TID 0000.0001) %MON exf_swflux_del2              =   4.7954713528264E-01
(PID.TID 0000.0001) %MON exf_evap_max                 =   4.5348917925789E-08
(PID.TID 0000.0001) %MON exf_evap_min                 =  -4.2424751719378E-09
(PID.TID 0000.0001) %MON exf_evap_mean                =   1.0431134642317E-08
(PID.TID 0000.0001) %MON exf_evap_sd                  =   1.1081500529049E-08
(PID.TID 0000.0001) %MON exf_evap_del2                =   1.3323469958802E-09
(PID.TID 0000.0001) %MON exf_swdown_max               =   7.1186073073924E+01
(PID.TID 0000.0001) %MON exf_swdown_min               =   9.0230188734544E-02
(PID.TID 0000.0001) %MON exf_swdown_mean              =   2.9450982335914E+01
(PID.TID 0000.0001) %MON exf_swdown_sd                =   2.1827872315905E+01
(PID.TID 0000.0001) %MON exf_swdown_del2              =   5.3283015031405E-01
(PID.TID 0000.0001) %MON exf_lwdown_max               =   3.0563558759846E+02
(PID.TID 0000.0001) %MON exf_lwdown_min               =   1.1592215771493E+02
(PID.TID 0000.0001) %MON exf_lwdown_mean              =   2.2587078031381E+02
(PID.TID 0000.0001) %MON exf_lwdown_sd                =   4.6297287802066E+01
(PID.TID 0000.0001) %MON exf_lwdown_del2              =   3.2438794970556E+00
(PID.TID 0000.0001) %MON exf_apressure_max            =   0.0000000000000E+00
(PID.TID 0000.0001) %MON exf_apressure_min            =   0.0000000000000E+00
(PID.TID 0000.0001) %MON exf_apressure_mean           =   0.0000000000000E+00
(PID.TID 0000.0001) %MON exf_apressure_sd             =   0.0000000000000E+00
(PID.TID 0000.0001) %MON exf_apressure_del2           =   0.0000000000000E+00
(PID.TID 0000.0001) %MON exf_runoff_max               =   0.0000000000000E+00
(PID.TID 0000.0001) %MON exf_runoff_min               =   0.0000000000000E+00
(PID.TID 0000.0001) %MON exf_runoff_mean              =   0.0000000000000E+00
(PID.TID 0000.0001) %MON exf_runoff_sd                =   0.0000000000000E+00
(PID.TID 0000.0001) %MON exf_runoff_del2              =   0.0000000000000E+00
(PID.TID 0000.0001) %MON exf_climsst_max              =   0.0000000000000E+00
(PID.TID 0000.0001) %MON exf_climsst_min              =   0.0000000000000E+00
(PID.TID 0000.0001) %MON exf_climsst_mean             =   0.0000000000000E+00
(PID.TID 0000.0001) %MON exf_climsst_sd               =   0.0000000000000E+00
(PID.TID 0000.0001) %MON exf_climsst_del2             =   0.0000000000000E+00
(PID.TID 0000.0001) %MON exf_climsss_max              =   3.5041254622037E+01
(PID.TID 0000.0001) %MON exf_climsss_min              =   3.0670109811376E+01
(PID.TID 0000.0001) %MON exf_climsss_mean             =   3.3461926268386E+01
(PID.TID 0000.0001) %MON exf_climsss_sd               =   1.0315988331065E+00
(PID.TID 0000.0001) %MON exf_climsss_del2             =   1.0010781500943E-01
(PID.TID 0000.0001) // =======================================================
(PID.TID 0000.0001) // End MONITOR EXF statistics
(PID.TID 0000.0001) // =======================================================
 ph-ice B  5  0.  0.  0.
 ph-ice C  5  3.06281465E+11
(PID.TID 0000.0001) // =======================================================
(PID.TID 0000.0001) // Begin MONITOR dynamic field statistics
(PID.TID 0000.0001) // =======================================================
(PID.TID 0000.0001) %MON ad_time_tsnumber             =                     6
(PID.TID 0000.0001) %MON ad_time_secondsf             =   2.1600000000000E+04
(PID.TID 0000.0001) %MON ad_dynstat_adeta_max         =   4.7233082889653E+08
(PID.TID 0000.0001) %MON ad_dynstat_adeta_min         =  -4.7923069727430E+08
(PID.TID 0000.0001) %MON ad_dynstat_adeta_mean        =  -7.1911422937961E+05
(PID.TID 0000.0001) %MON ad_dynstat_adeta_sd          =   1.4966840633129E+08
(PID.TID 0000.0001) %MON ad_dynstat_adeta_del2        =   3.4515229975307E+07
(PID.TID 0000.0001) %MON ad_dynstat_aduvel_max        =   1.9410937975280E+08
(PID.TID 0000.0001) %MON ad_dynstat_aduvel_min        =  -3.3447884702399E+08
(PID.TID 0000.0001) %MON ad_dynstat_aduvel_mean       =   3.9875022653368E+07
(PID.TID 0000.0001) %MON ad_dynstat_aduvel_sd         =   4.9681566967810E+07
(PID.TID 0000.0001) %MON ad_dynstat_aduvel_del2       =   4.3985585854801E+06
(PID.TID 0000.0001) %MON ad_dynstat_advvel_max        =   2.3474002033319E+08
(PID.TID 0000.0001) %MON ad_dynstat_advvel_min        =  -1.9620869653022E+08
(PID.TID 0000.0001) %MON ad_dynstat_advvel_mean       =  -7.2234745213532E+07
(PID.TID 0000.0001) %MON ad_dynstat_advvel_sd         =   5.7053912097514E+07
(PID.TID 0000.0001) %MON ad_dynstat_advvel_del2       =   2.8280795143520E+06
(PID.TID 0000.0001) %MON ad_dynstat_adwvel_max        =   2.6928381964177E+09
(PID.TID 0000.0001) %MON ad_dynstat_adwvel_min        =  -1.9301052494281E+12
(PID.TID 0000.0001) %MON ad_dynstat_adwvel_mean       =  -4.7324850843339E+09
(PID.TID 0000.0001) %MON ad_dynstat_adwvel_sd         =   7.7900167548041E+10
(PID.TID 0000.0001) %MON ad_dynstat_adwvel_del2       =   7.0560118861595E+09
(PID.TID 0000.0001) %MON ad_dynstat_adtheta_max       =   2.3413173104086E+07
(PID.TID 0000.0001) %MON ad_dynstat_adtheta_min       =  -1.7766562814418E+09
(PID.TID 0000.0001) %MON ad_dynstat_adtheta_mean      =  -4.8768570712759E+06
(PID.TID 0000.0001) %MON ad_dynstat_adtheta_sd        =   8.0762894679299E+07
(PID.TID 0000.0001) %MON ad_dynstat_adtheta_del2      =   6.0556058363081E+06
(PID.TID 0000.0001) %MON ad_dynstat_adsalt_max        =   1.1959823868609E+08
(PID.TID 0000.0001) %MON ad_dynstat_adsalt_min        =  -1.3385746326152E+08
(PID.TID 0000.0001) %MON ad_dynstat_adsalt_mean       =  -7.2464899185791E+05
(PID.TID 0000.0001) %MON ad_dynstat_adsalt_sd         =   2.9589524058162E+07
(PID.TID 0000.0001) %MON ad_dynstat_adsalt_del2       =   3.5689486984917E+06
(PID.TID 0000.0001) %MON ad_dynstat_adsst_max         =   1.6157157261668E+06
(PID.TID 0000.0001) %MON ad_dynstat_adsst_min         =  -1.7766562814418E+09
(PID.TID 0000.0001) %MON ad_dynstat_adsst_mean        =  -7.5093135111161E+08
(PID.TID 0000.0001) %MON ad_dynstat_adsst_sd          =   6.3784326003047E+08
(PID.TID 0000.0001) %MON ad_dynstat_adsst_del2        =   6.7901765988194E+07
(PID.TID 0000.0001) %MON ad_dynstat_adsss_max         =   3.1067313342550E+06
(PID.TID 0000.0001) %MON ad_dynstat_adsss_min         =  -3.8754334705158E+06
(PID.TID 0000.0001) %MON ad_dynstat_adsss_mean        =  -1.3301329033031E+05
(PID.TID 0000.0001) %MON ad_dynstat_adsss_sd          =   1.2296569869212E+06
(PID.TID 0000.0001) %MON ad_dynstat_adsss_del2        =   3.3505505710041E+05
(PID.TID 0000.0001) %MON ad_extforcing_adqnet_max     =   0.0000000000000E+00
(PID.TID 0000.0001) %MON ad_extforcing_adqnet_min     =   0.0000000000000E+00
(PID.TID 0000.0001) %MON ad_extforcing_adqnet_mean    =   0.0000000000000E+00
(PID.TID 0000.0001) %MON ad_extforcing_adqnet_sd      =   0.0000000000000E+00
(PID.TID 0000.0001) %MON ad_extforcing_adqnet_del2    =   0.0000000000000E+00
(PID.TID 0000.0001) %MON ad_extforcing_adqsw_max      =   0.0000000000000E+00
(PID.TID 0000.0001) %MON ad_extforcing_adqsw_min      =   0.0000000000000E+00
(PID.TID 0000.0001) %MON ad_extforcing_adqsw_mean     =   0.0000000000000E+00
(PID.TID 0000.0001) %MON ad_extforcing_adqsw_sd       =   0.0000000000000E+00
(PID.TID 0000.0001) %MON ad_extforcing_adqsw_del2     =   0.0000000000000E+00
(PID.TID 0000.0001) %MON ad_extforcing_adempmr_max    =   0.0000000000000E+00
(PID.TID 0000.0001) %MON ad_extforcing_adempmr_min    =   0.0000000000000E+00
(PID.TID 0000.0001) %MON ad_extforcing_adempmr_mean   =   0.0000000000000E+00
(PID.TID 0000.0001) %MON ad_extforcing_adempmr_sd     =   0.0000000000000E+00
(PID.TID 0000.0001) %MON ad_extforcing_adempmr_del2   =   0.0000000000000E+00
(PID.TID 0000.0001) %MON ad_extforcing_adfu_max       =   0.0000000000000E+00
(PID.TID 0000.0001) %MON ad_extforcing_adfu_min       =   0.0000000000000E+00
(PID.TID 0000.0001) %MON ad_extforcing_adfu_mean      =   0.0000000000000E+00
(PID.TID 0000.0001) %MON ad_extforcing_adfu_sd        =   0.0000000000000E+00
(PID.TID 0000.0001) %MON ad_extforcing_adfu_del2      =   0.0000000000000E+00
(PID.TID 0000.0001) %MON ad_extforcing_adfv_max       =   0.0000000000000E+00
(PID.TID 0000.0001) %MON ad_extforcing_adfv_min       =   0.0000000000000E+00
(PID.TID 0000.0001) %MON ad_extforcing_adfv_mean      =   0.0000000000000E+00
(PID.TID 0000.0001) %MON ad_extforcing_adfv_sd        =   0.0000000000000E+00
(PID.TID 0000.0001) %MON ad_extforcing_adfv_del2      =   0.0000000000000E+00
(PID.TID 0000.0001) %MON ad_advcfl_aduvel_max         =   9.8054791726600E+06
(PID.TID 0000.0001) %MON ad_advcfl_advvel_max         =   3.7999218970699E+06
(PID.TID 0000.0001) %MON ad_advcfl_adwvel_max         =   6.9483788979413E+14
(PID.TID 0000.0001) %MON ad_advcfl_adW_hf_max         =   1.3896757795883E+15
(PID.TID 0000.0001) // =======================================================
(PID.TID 0000.0001) // End MONITOR dynamic field statistics
(PID.TID 0000.0001) // =======================================================
 cg2d: Sum(rhs),rhsMax =  -2.85296200265529E-10  3.12755567353197E+05
(PID.TID 0000.0001) // =======================================================
(PID.TID 0000.0001) // Begin MONITOR EXF statistics
(PID.TID 0000.0001) // =======================================================
(PID.TID 0000.0001) %MON exf_tsnumber                 =                     5
(PID.TID 0000.0001) %MON exf_time_sec                 =   1.8000000000000E+04
(PID.TID 0000.0001) %MON exf_ustress_max              =   5.2230884117586E-02
(PID.TID 0000.0001) %MON exf_ustress_min              =  -9.3792692313509E-02
(PID.TID 0000.0001) %MON exf_ustress_mean             =   1.7944940093883E-02
(PID.TID 0000.0001) %MON exf_ustress_sd               =   2.3713963571757E-02
(PID.TID 0000.0001) %MON exf_ustress_del2             =   2.8173052338397E-03
(PID.TID 0000.0001) %MON exf_vstress_max              =   5.3831073859948E-02
(PID.TID 0000.0001) %MON exf_vstress_min              =  -5.8456785540535E-02
(PID.TID 0000.0001) %MON exf_vstress_mean             =  -5.4464512858083E-03
(PID.TID 0000.0001) %MON exf_vstress_sd               =   1.4444944996378E-02
(PID.TID 0000.0001) %MON exf_vstress_del2             =   1.6932729733754E-03
(PID.TID 0000.0001) %MON exf_hflux_max                =   6.2503361232607E+02
(PID.TID 0000.0001) %MON exf_hflux_min                =  -5.1451597527523E+01
(PID.TID 0000.0001) %MON exf_hflux_mean               =   1.4623261715618E+02
(PID.TID 0000.0001) %MON exf_hflux_sd                 =   1.8002328682026E+02
(PID.TID 0000.0001) %MON exf_hflux_del2               =   1.6301004651153E+01
(PID.TID 0000.0001) %MON exf_sflux_max                =   3.9028023656348E-08
(PID.TID 0000.0001) %MON exf_sflux_min                =  -8.8915527500586E-08
(PID.TID 0000.0001) %MON exf_sflux_mean               =  -2.5958891680597E-08
(PID.TID 0000.0001) %MON exf_sflux_sd                 =   3.0357858270478E-08
(PID.TID 0000.0001) %MON exf_sflux_del2               =   3.1625237172645E-09
(PID.TID 0000.0001) %MON exf_uwind_max                =   6.4669118044806E+00
(PID.TID 0000.0001) %MON exf_uwind_min                =  -6.8373719818605E+00
(PID.TID 0000.0001) %MON exf_uwind_mean               =   2.7703104953252E+00
(PID.TID 0000.0001) %MON exf_uwind_sd                 =   2.9914204817202E+00
(PID.TID 0000.0001) %MON exf_uwind_del2               =   3.1574946850541E-01
(PID.TID 0000.0001) %MON exf_vwind_max                =   3.9242191164871E+00
(PID.TID 0000.0001) %MON exf_vwind_min                =  -6.0151738390896E+00
(PID.TID 0000.0001) %MON exf_vwind_mean               =  -7.5780981579906E-01
(PID.TID 0000.0001) %MON exf_vwind_sd                 =   1.7298850990135E+00
(PID.TID 0000.0001) %MON exf_vwind_del2               =   1.9329828211469E-01
(PID.TID 0000.0001) %MON exf_wspeed_max               =   7.8834733013142E+00
(PID.TID 0000.0001) %MON exf_wspeed_min               =   4.5913801314248E-01
(PID.TID 0000.0001) %MON exf_wspeed_mean              =   4.1986352194932E+00
(PID.TID 0000.0001) %MON exf_wspeed_sd                =   1.6004553118739E+00
(PID.TID 0000.0001) %MON exf_wspeed_del2              =   3.7720325813743E-01
(PID.TID 0000.0001) %MON exf_atemp_max                =   2.8187425173567E+02
(PID.TID 0000.0001) %MON exf_atemp_min                =   2.3643944426573E+02
(PID.TID 0000.0001) %MON exf_atemp_mean               =   2.6392283741463E+02
(PID.TID 0000.0001) %MON exf_atemp_sd                 =   1.1990725231039E+01
(PID.TID 0000.0001) %MON exf_atemp_del2               =   6.4951942471641E-01
(PID.TID 0000.0001) %MON exf_aqh_max                  =   6.3196902393613E-03
(PID.TID 0000.0001) %MON exf_aqh_min                  =   1.6322223068205E-04
(PID.TID 0000.0001) %MON exf_aqh_mean                 =   2.4775611281656E-03
(PID.TID 0000.0001) %MON exf_aqh_sd                   =   1.4259923191659E-03
(PID.TID 0000.0001) %MON exf_aqh_del2                 =   6.8073442793907E-05
(PID.TID 0000.0001) %MON exf_lwflux_max               =   1.8156112611884E+02
(PID.TID 0000.0001) %MON exf_lwflux_min               =   2.7075633019266E+01
(PID.TID 0000.0001) %MON exf_lwflux_mean              =   7.5214634577009E+01
(PID.TID 0000.0001) %MON exf_lwflux_sd                =   4.2777639113310E+01
(PID.TID 0000.0001) %MON exf_lwflux_del2              =   3.2323857667016E+00
(PID.TID 0000.0001) %MON exf_precip_max               =   1.0499457022082E-07
(PID.TID 0000.0001) %MON exf_precip_min               =   2.7292535458031E-10
(PID.TID 0000.0001) %MON exf_precip_mean              =   3.6390026322913E-08
(PID.TID 0000.0001) %MON exf_precip_sd                =   2.0580406889746E-08
(PID.TID 0000.0001) %MON exf_precip_del2              =   2.5577934516916E-09
(PID.TID 0000.0001) %MON exf_snowprecip_max           =   0.0000000000000E+00
(PID.TID 0000.0001) %MON exf_snowprecip_min           =   0.0000000000000E+00
(PID.TID 0000.0001) %MON exf_snowprecip_mean          =   0.0000000000000E+00
(PID.TID 0000.0001) %MON exf_snowprecip_sd            =   0.0000000000000E+00
(PID.TID 0000.0001) %MON exf_snowprecip_del2          =   0.0000000000000E+00
(PID.TID 0000.0001) %MON exf_swflux_max               =  -8.1207169861090E-02
(PID.TID 0000.0001) %MON exf_swflux_min               =  -6.4067465766532E+01
(PID.TID 0000.0001) %MON exf_swflux_mean              =  -2.6505884102323E+01
(PID.TID 0000.0001) %MON exf_swflux_sd                =   1.9645085084315E+01
(PID.TID 0000.0001) %MON exf_swflux_del2              =   4.7954713528264E-01
(PID.TID 0000.0001) %MON exf_evap_max                 =   4.5348917925789E-08
(PID.TID 0000.0001) %MON exf_evap_min                 =  -4.2424751719378E-09
(PID.TID 0000.0001) %MON exf_evap_mean                =   1.0431134642317E-08
(PID.TID 0000.0001) %MON exf_evap_sd                  =   1.1081500529049E-08
(PID.TID 0000.0001) %MON exf_evap_del2                =   1.3323469958802E-09
(PID.TID 0000.0001) %MON exf_swdown_max               =   7.1186073073924E+01
(PID.TID 0000.0001) %MON exf_swdown_min               =   9.0230188734544E-02
(PID.TID 0000.0001) %MON exf_swdown_mean              =   2.9450982335914E+01
(PID.TID 0000.0001) %MON exf_swdown_sd                =   2.1827872315905E+01
(PID.TID 0000.0001) %MON exf_swdown_del2              =   5.3283015031405E-01
(PID.TID 0000.0001) %MON exf_lwdown_max               =   3.0563558759846E+02
(PID.TID 0000.0001) %MON exf_lwdown_min               =   1.1592215771493E+02
(PID.TID 0000.0001) %MON exf_lwdown_mean              =   2.2587078031381E+02
(PID.TID 0000.0001) %MON exf_lwdown_sd                =   4.6297287802066E+01
(PID.TID 0000.0001) %MON exf_lwdown_del2              =   3.2438794970556E+00
(PID.TID 0000.0001) %MON exf_apressure_max            =   0.0000000000000E+00
(PID.TID 0000.0001) %MON exf_apressure_min            =   0.0000000000000E+00
(PID.TID 0000.0001) %MON exf_apressure_mean           =   0.0000000000000E+00
(PID.TID 0000.0001) %MON exf_apressure_sd             =   0.0000000000000E+00
(PID.TID 0000.0001) %MON exf_apressure_del2           =   0.0000000000000E+00
(PID.TID 0000.0001) %MON exf_runoff_max               =   0.0000000000000E+00
(PID.TID 0000.0001) %MON exf_runoff_min               =   0.0000000000000E+00
(PID.TID 0000.0001) %MON exf_runoff_mean              =   0.0000000000000E+00
(PID.TID 0000.0001) %MON exf_runoff_sd                =   0.0000000000000E+00
(PID.TID 0000.0001) %MON exf_runoff_del2              =   0.0000000000000E+00
(PID.TID 0000.0001) %MON exf_climsst_max              =   0.0000000000000E+00
(PID.TID 0000.0001) %MON exf_climsst_min              =   0.0000000000000E+00
(PID.TID 0000.0001) %MON exf_climsst_mean             =   0.0000000000000E+00
(PID.TID 0000.0001) %MON exf_climsst_sd               =   0.0000000000000E+00
(PID.TID 0000.0001) %MON exf_climsst_del2             =   0.0000000000000E+00
(PID.TID 0000.0001) %MON exf_climsss_max              =   3.5041254622037E+01
(PID.TID 0000.0001) %MON exf_climsss_min              =   3.0670109811376E+01
(PID.TID 0000.0001) %MON exf_climsss_mean             =   3.3461926268386E+01
(PID.TID 0000.0001) %MON exf_climsss_sd               =   1.0315988331065E+00
(PID.TID 0000.0001) %MON exf_climsss_del2             =   1.0010781500943E-01
(PID.TID 0000.0001) // =======================================================
(PID.TID 0000.0001) // End MONITOR EXF statistics
(PID.TID 0000.0001) // =======================================================
(PID.TID 0000.0001) // =======================================================
(PID.TID 0000.0001) // Begin MONITOR EXF statistics
(PID.TID 0000.0001) // =======================================================
(PID.TID 0000.0001) %MON exf_tsnumber                 =                     4
(PID.TID 0000.0001) %MON exf_time_sec                 =   1.4400000000000E+04
(PID.TID 0000.0001) %MON exf_ustress_max              =   5.2222749041047E-02
(PID.TID 0000.0001) %MON exf_ustress_min              =  -9.3790194486454E-02
(PID.TID 0000.0001) %MON exf_ustress_mean             =   1.7935663542792E-02
(PID.TID 0000.0001) %MON exf_ustress_sd               =   2.3707712217300E-02
(PID.TID 0000.0001) %MON exf_ustress_del2             =   2.8164273315623E-03
(PID.TID 0000.0001) %MON exf_vstress_max              =   5.3829437114216E-02
(PID.TID 0000.0001) %MON exf_vstress_min              =  -5.8464476572386E-02
(PID.TID 0000.0001) %MON exf_vstress_mean             =  -5.4495374972859E-03
(PID.TID 0000.0001) %MON exf_vstress_sd               =   1.4442680552587E-02
(PID.TID 0000.0001) %MON exf_vstress_del2             =   1.6931341919101E-03
(PID.TID 0000.0001) %MON exf_hflux_max                =   6.2496267398705E+02
(PID.TID 0000.0001) %MON exf_hflux_min                =  -5.1565362852432E+01
(PID.TID 0000.0001) %MON exf_hflux_mean               =   1.4615660949802E+02
(PID.TID 0000.0001) %MON exf_hflux_sd                 =   1.8002235455283E+02
(PID.TID 0000.0001) %MON exf_hflux_del2               =   1.6301998341543E+01
(PID.TID 0000.0001) %MON exf_sflux_max                =   3.9025647077273E-08
(PID.TID 0000.0001) %MON exf_sflux_min                =  -8.8952139751954E-08
(PID.TID 0000.0001) %MON exf_sflux_mean               =  -2.5966971349078E-08
(PID.TID 0000.0001) %MON exf_sflux_sd                 =   3.0361915148423E-08
(PID.TID 0000.0001) %MON exf_sflux_del2               =   3.1623401285964E-09
(PID.TID 0000.0001) %MON exf_uwind_max                =   6.4664043520318E+00
(PID.TID 0000.0001) %MON exf_uwind_min                =  -6.8373452001582E+00
(PID.TID 0000.0001) %MON exf_uwind_mean               =   2.7702029429808E+00
(PID.TID 0000.0001) %MON exf_uwind_sd                 =   2.9911443548250E+00
(PID.TID 0000.0001) %MON exf_uwind_del2               =   3.1574156428286E-01
(PID.TID 0000.0001) %MON exf_vwind_max                =   3.9241889356915E+00
(PID.TID 0000.0001) %MON exf_vwind_min                =  -6.0160797489145E+00
(PID.TID 0000.0001) %MON exf_vwind_mean               =  -7.5842758888917E-01
(PID.TID 0000.0001) %MON exf_vwind_sd                 =   1.7297766046368E+00
(PID.TID 0000.0001) %MON exf_vwind_del2               =   1.9330515345662E-01
(PID.TID 0000.0001) %MON exf_wspeed_max               =   7.8834350500991E+00
(PID.TID 0000.0001) %MON exf_wspeed_min               =   4.5938084481311E-01
(PID.TID 0000.0001) %MON exf_wspeed_mean              =   4.1985322596174E+00
(PID.TID 0000.0001) %MON exf_wspeed_sd                =   1.6001985099325E+00
(PID.TID 0000.0001) %MON exf_wspeed_del2              =   3.7714995543655E-01
(PID.TID 0000.0001) %MON exf_atemp_max                =   2.8187596388853E+02
(PID.TID 0000.0001) %MON exf_atemp_min                =   2.3644390923339E+02
(PID.TID 0000.0001) %MON exf_atemp_mean               =   2.6392748149999E+02
(PID.TID 0000.0001) %MON exf_atemp_sd                 =   1.1989262748844E+01
(PID.TID 0000.0001) %MON exf_atemp_del2               =   6.4950009177509E-01
(PID.TID 0000.0001) %MON exf_aqh_max                  =   6.3203867802223E-03
(PID.TID 0000.0001) %MON exf_aqh_min                  =   1.6331633418045E-04
(PID.TID 0000.0001) %MON exf_aqh_mean                 =   2.4781214845702E-03
(PID.TID 0000.0001) %MON exf_aqh_sd                   =   1.4260952789855E-03
(PID.TID 0000.0001) %MON exf_aqh_del2                 =   6.8087110355054E-05
(PID.TID 0000.0001) %MON exf_lwflux_max               =   1.8154800702574E+02
(PID.TID 0000.0001) %MON exf_lwflux_min               =   2.7104463755682E+01
(PID.TID 0000.0001) %MON exf_lwflux_mean              =   7.5190183474556E+01
(PID.TID 0000.0001) %MON exf_lwflux_sd                =   4.2783226616351E+01
(PID.TID 0000.0001) %MON exf_lwflux_del2              =   3.2333536706417E+00
(PID.TID 0000.0001) %MON exf_precip_max               =   1.0499318877820E-07
(PID.TID 0000.0001) %MON exf_precip_min               =   2.7305928105298E-10
(PID.TID 0000.0001) %MON exf_precip_mean              =   3.6390037166947E-08
(PID.TID 0000.0001) %MON exf_precip_sd                =   2.0579953834835E-08
(PID.TID 0000.0001) %MON exf_precip_del2              =   2.5572657585019E-09
(PID.TID 0000.0001) %MON exf_snowprecip_max           =   0.0000000000000E+00
(PID.TID 0000.0001) %MON exf_snowprecip_min           =   0.0000000000000E+00
(PID.TID 0000.0001) %MON exf_snowprecip_mean          =   0.0000000000000E+00
(PID.TID 0000.0001) %MON exf_snowprecip_sd            =   0.0000000000000E+00
(PID.TID 0000.0001) %MON exf_snowprecip_del2          =   0.0000000000000E+00
(PID.TID 0000.0001) %MON exf_swflux_max               =  -8.1206886983309E-02
(PID.TID 0000.0001) %MON exf_swflux_min               =  -6.4048595415960E+01
(PID.TID 0000.0001) %MON exf_swflux_mean              =  -2.6495351886448E+01
(PID.TID 0000.0001) %MON exf_swflux_sd                =   1.9641247100083E+01
(PID.TID 0000.0001) %MON exf_swflux_del2              =   4.7944026133668E-01
(PID.TID 0000.0001) %MON exf_evap_max                 =   4.5347204057645E-08
(PID.TID 0000.0001) %MON exf_evap_min                 =  -4.2663929306065E-09
(PID.TID 0000.0001) %MON exf_evap_mean                =   1.0423065817870E-08
(PID.TID 0000.0001) %MON exf_evap_sd                  =   1.1085437770397E-08
(PID.TID 0000.0001) %MON exf_evap_del2                =   1.3323750873132E-09
(PID.TID 0000.0001) %MON exf_swdown_max               =   7.1165106017733E+01
(PID.TID 0000.0001) %MON exf_swdown_min               =   9.0229874425898E-02
(PID.TID 0000.0001) %MON exf_swdown_mean              =   2.9439279873831E+01
(PID.TID 0000.0001) %MON exf_swdown_sd                =   2.1823607888981E+01
(PID.TID 0000.0001) %MON exf_swdown_del2              =   5.3271140148521E-01
(PID.TID 0000.0001) %MON exf_lwdown_max               =   3.0564441368228E+02
(PID.TID 0000.0001) %MON exf_lwdown_min               =   1.1593726459357E+02
(PID.TID 0000.0001) %MON exf_lwdown_mean              =   2.2588648764287E+02
(PID.TID 0000.0001) %MON exf_lwdown_sd                =   4.6293313753333E+01
(PID.TID 0000.0001) %MON exf_lwdown_del2              =   3.2438678569828E+00
(PID.TID 0000.0001) %MON exf_apressure_max            =   0.0000000000000E+00
(PID.TID 0000.0001) %MON exf_apressure_min            =   0.0000000000000E+00
(PID.TID 0000.0001) %MON exf_apressure_mean           =   0.0000000000000E+00
(PID.TID 0000.0001) %MON exf_apressure_sd             =   0.0000000000000E+00
(PID.TID 0000.0001) %MON exf_apressure_del2           =   0.0000000000000E+00
(PID.TID 0000.0001) %MON exf_runoff_max               =   0.0000000000000E+00
(PID.TID 0000.0001) %MON exf_runoff_min               =   0.0000000000000E+00
(PID.TID 0000.0001) %MON exf_runoff_mean              =   0.0000000000000E+00
(PID.TID 0000.0001) %MON exf_runoff_sd                =   0.0000000000000E+00
(PID.TID 0000.0001) %MON exf_runoff_del2              =   0.0000000000000E+00
(PID.TID 0000.0001) %MON exf_climsst_max              =   0.0000000000000E+00
(PID.TID 0000.0001) %MON exf_climsst_min              =   0.0000000000000E+00
(PID.TID 0000.0001) %MON exf_climsst_mean             =   0.0000000000000E+00
(PID.TID 0000.0001) %MON exf_climsst_sd               =   0.0000000000000E+00
(PID.TID 0000.0001) %MON exf_climsst_del2             =   0.0000000000000E+00
(PID.TID 0000.0001) %MON exf_climsss_max              =   3.5041069874998E+01
(PID.TID 0000.0001) %MON exf_climsss_min              =   3.0669350483378E+01
(PID.TID 0000.0001) %MON exf_climsss_mean             =   3.3461404934907E+01
(PID.TID 0000.0001) %MON exf_climsss_sd               =   1.0316695849659E+00
(PID.TID 0000.0001) %MON exf_climsss_del2             =   1.0012504429982E-01
(PID.TID 0000.0001) // =======================================================
(PID.TID 0000.0001) // End MONITOR EXF statistics
(PID.TID 0000.0001) // =======================================================
 ph-ice B  4  0.  0.  0.
 ph-ice C  4  2.55604433E+11
(PID.TID 0000.0001) // =======================================================
(PID.TID 0000.0001) // Begin MONITOR dynamic field statistics
(PID.TID 0000.0001) // =======================================================
(PID.TID 0000.0001) %MON ad_time_tsnumber             =                     5
(PID.TID 0000.0001) %MON ad_time_secondsf             =   1.8000000000000E+04
(PID.TID 0000.0001) %MON ad_dynstat_adeta_max         =   6.8659124625574E+08
(PID.TID 0000.0001) %MON ad_dynstat_adeta_min         =  -6.7837120091172E+08
(PID.TID 0000.0001) %MON ad_dynstat_adeta_mean        =  -2.7223501178535E+06
(PID.TID 0000.0001) %MON ad_dynstat_adeta_sd          =   2.3600282013519E+08
(PID.TID 0000.0001) %MON ad_dynstat_adeta_del2        =   5.2684072407882E+07
(PID.TID 0000.0001) %MON ad_dynstat_aduvel_max        =   1.4989974557250E+08
(PID.TID 0000.0001) %MON ad_dynstat_aduvel_min        =  -4.5465276586492E+08
(PID.TID 0000.0001) %MON ad_dynstat_aduvel_mean       =  -3.3464946550123E+06
(PID.TID 0000.0001) %MON ad_dynstat_aduvel_sd         =   3.7688309218820E+07
(PID.TID 0000.0001) %MON ad_dynstat_aduvel_del2       =   4.7546431008838E+06
(PID.TID 0000.0001) %MON ad_dynstat_advvel_max        =   3.3035963891196E+08
(PID.TID 0000.0001) %MON ad_dynstat_advvel_min        =  -2.6138388563832E+08
(PID.TID 0000.0001) %MON ad_dynstat_advvel_mean       =  -9.4778128151451E+07
(PID.TID 0000.0001) %MON ad_dynstat_advvel_sd         =   7.3938302710341E+07
(PID.TID 0000.0001) %MON ad_dynstat_advvel_del2       =   3.5226696695492E+06
(PID.TID 0000.0001) %MON ad_dynstat_adwvel_max        =   5.0764401507970E+09
(PID.TID 0000.0001) %MON ad_dynstat_adwvel_min        =  -2.4643816204941E+12
(PID.TID 0000.0001) %MON ad_dynstat_adwvel_mean       =  -6.0704022598532E+09
(PID.TID 0000.0001) %MON ad_dynstat_adwvel_sd         =   9.9781381363032E+10
(PID.TID 0000.0001) %MON ad_dynstat_adwvel_del2       =   8.9780637125361E+09
(PID.TID 0000.0001) %MON ad_dynstat_adtheta_max       =   2.4043328854930E+07
(PID.TID 0000.0001) %MON ad_dynstat_adtheta_min       =  -2.2504533775239E+09
(PID.TID 0000.0001) %MON ad_dynstat_adtheta_mean      =  -5.9654422855091E+06
(PID.TID 0000.0001) %MON ad_dynstat_adtheta_sd        =   1.0052534311035E+08
(PID.TID 0000.0001) %MON ad_dynstat_adtheta_del2      =   8.0493574499910E+06
(PID.TID 0000.0001) %MON ad_dynstat_adsalt_max        =   1.6753592126658E+08
(PID.TID 0000.0001) %MON ad_dynstat_adsalt_min        =  -1.3746210127130E+08
(PID.TID 0000.0001) %MON ad_dynstat_adsalt_mean       =  -1.4302968840991E+06
(PID.TID 0000.0001) %MON ad_dynstat_adsalt_sd         =   4.1151976233544E+07
(PID.TID 0000.0001) %MON ad_dynstat_adsalt_del2       =   5.2461681288087E+06
(PID.TID 0000.0001) %MON ad_dynstat_adsst_max         =   3.0698300575215E+06
(PID.TID 0000.0001) %MON ad_dynstat_adsst_min         =  -2.2504533775239E+09
(PID.TID 0000.0001) %MON ad_dynstat_adsst_mean        =  -9.3490048906181E+08
(PID.TID 0000.0001) %MON ad_dynstat_adsst_sd          =   7.9258670387388E+08
(PID.TID 0000.0001) %MON ad_dynstat_adsst_del2        =   8.9220984340630E+07
(PID.TID 0000.0001) %MON ad_dynstat_adsss_max         =   3.7145628386806E+06
(PID.TID 0000.0001) %MON ad_dynstat_adsss_min         =  -5.6878440212171E+06
(PID.TID 0000.0001) %MON ad_dynstat_adsss_mean        =  -2.3523202753062E+05
(PID.TID 0000.0001) %MON ad_dynstat_adsss_sd          =   1.7180455786096E+06
(PID.TID 0000.0001) %MON ad_dynstat_adsss_del2        =   4.6372911514443E+05
(PID.TID 0000.0001) %MON ad_extforcing_adqnet_max     =   0.0000000000000E+00
(PID.TID 0000.0001) %MON ad_extforcing_adqnet_min     =   0.0000000000000E+00
(PID.TID 0000.0001) %MON ad_extforcing_adqnet_mean    =   0.0000000000000E+00
(PID.TID 0000.0001) %MON ad_extforcing_adqnet_sd      =   0.0000000000000E+00
(PID.TID 0000.0001) %MON ad_extforcing_adqnet_del2    =   0.0000000000000E+00
(PID.TID 0000.0001) %MON ad_extforcing_adqsw_max      =   0.0000000000000E+00
(PID.TID 0000.0001) %MON ad_extforcing_adqsw_min      =   0.0000000000000E+00
(PID.TID 0000.0001) %MON ad_extforcing_adqsw_mean     =   0.0000000000000E+00
(PID.TID 0000.0001) %MON ad_extforcing_adqsw_sd       =   0.0000000000000E+00
(PID.TID 0000.0001) %MON ad_extforcing_adqsw_del2     =   0.0000000000000E+00
(PID.TID 0000.0001) %MON ad_extforcing_adempmr_max    =   0.0000000000000E+00
(PID.TID 0000.0001) %MON ad_extforcing_adempmr_min    =   0.0000000000000E+00
(PID.TID 0000.0001) %MON ad_extforcing_adempmr_mean   =   0.0000000000000E+00
(PID.TID 0000.0001) %MON ad_extforcing_adempmr_sd     =   0.0000000000000E+00
(PID.TID 0000.0001) %MON ad_extforcing_adempmr_del2   =   0.0000000000000E+00
(PID.TID 0000.0001) %MON ad_extforcing_adfu_max       =   0.0000000000000E+00
(PID.TID 0000.0001) %MON ad_extforcing_adfu_min       =   0.0000000000000E+00
(PID.TID 0000.0001) %MON ad_extforcing_adfu_mean      =   0.0000000000000E+00
(PID.TID 0000.0001) %MON ad_extforcing_adfu_sd        =   0.0000000000000E+00
(PID.TID 0000.0001) %MON ad_extforcing_adfu_del2      =   0.0000000000000E+00
(PID.TID 0000.0001) %MON ad_extforcing_adfv_max       =   0.0000000000000E+00
(PID.TID 0000.0001) %MON ad_extforcing_adfv_min       =   0.0000000000000E+00
(PID.TID 0000.0001) %MON ad_extforcing_adfv_mean      =   0.0000000000000E+00
(PID.TID 0000.0001) %MON ad_extforcing_adfv_sd        =   0.0000000000000E+00
(PID.TID 0000.0001) %MON ad_extforcing_adfv_del2      =   0.0000000000000E+00
(PID.TID 0000.0001) %MON ad_advcfl_aduvel_max         =   1.2229377327683E+07
(PID.TID 0000.0001) %MON ad_advcfl_advvel_max         =   5.3477920979467E+06
(PID.TID 0000.0001) %MON ad_advcfl_adwvel_max         =   8.8717738337789E+14
(PID.TID 0000.0001) %MON ad_advcfl_adW_hf_max         =   1.7743547667558E+15
(PID.TID 0000.0001) // =======================================================
(PID.TID 0000.0001) // End MONITOR dynamic field statistics
(PID.TID 0000.0001) // =======================================================
 cg2d: Sum(rhs),rhsMax =   6.97729415456499E-10  3.99113108515051E+05
(PID.TID 0000.0001) // =======================================================
(PID.TID 0000.0001) // Begin MONITOR EXF statistics
(PID.TID 0000.0001) // =======================================================
(PID.TID 0000.0001) %MON exf_tsnumber                 =                     4
(PID.TID 0000.0001) %MON exf_time_sec                 =   1.4400000000000E+04
(PID.TID 0000.0001) %MON exf_ustress_max              =   5.2222749041047E-02
(PID.TID 0000.0001) %MON exf_ustress_min              =  -9.3790194486454E-02
(PID.TID 0000.0001) %MON exf_ustress_mean             =   1.7935663542792E-02
(PID.TID 0000.0001) %MON exf_ustress_sd               =   2.3707712217300E-02
(PID.TID 0000.0001) %MON exf_ustress_del2             =   2.8164273315623E-03
(PID.TID 0000.0001) %MON exf_vstress_max              =   5.3829437114216E-02
(PID.TID 0000.0001) %MON exf_vstress_min              =  -5.8464476572386E-02
(PID.TID 0000.0001) %MON exf_vstress_mean             =  -5.4495374972859E-03
(PID.TID 0000.0001) %MON exf_vstress_sd               =   1.4442680552587E-02
(PID.TID 0000.0001) %MON exf_vstress_del2             =   1.6931341919101E-03
(PID.TID 0000.0001) %MON exf_hflux_max                =   6.2496267398705E+02
(PID.TID 0000.0001) %MON exf_hflux_min                =  -5.1565362852432E+01
(PID.TID 0000.0001) %MON exf_hflux_mean               =   1.4615660949802E+02
(PID.TID 0000.0001) %MON exf_hflux_sd                 =   1.8002235455283E+02
(PID.TID 0000.0001) %MON exf_hflux_del2               =   1.6301998341543E+01
(PID.TID 0000.0001) %MON exf_sflux_max                =   3.9025647077273E-08
(PID.TID 0000.0001) %MON exf_sflux_min                =  -8.8952139751954E-08
(PID.TID 0000.0001) %MON exf_sflux_mean               =  -2.5966971349078E-08
(PID.TID 0000.0001) %MON exf_sflux_sd                 =   3.0361915148423E-08
(PID.TID 0000.0001) %MON exf_sflux_del2               =   3.1623401285964E-09
(PID.TID 0000.0001) %MON exf_uwind_max                =   6.4664043520318E+00
(PID.TID 0000.0001) %MON exf_uwind_min                =  -6.8373452001582E+00
(PID.TID 0000.0001) %MON exf_uwind_mean               =   2.7702029429808E+00
(PID.TID 0000.0001) %MON exf_uwind_sd                 =   2.9911443548250E+00
(PID.TID 0000.0001) %MON exf_uwind_del2               =   3.1574156428286E-01
(PID.TID 0000.0001) %MON exf_vwind_max                =   3.9241889356915E+00
(PID.TID 0000.0001) %MON exf_vwind_min                =  -6.0160797489145E+00
(PID.TID 0000.0001) %MON exf_vwind_mean               =  -7.5842758888917E-01
(PID.TID 0000.0001) %MON exf_vwind_sd                 =   1.7297766046368E+00
(PID.TID 0000.0001) %MON exf_vwind_del2               =   1.9330515345662E-01
(PID.TID 0000.0001) %MON exf_wspeed_max               =   7.8834350500991E+00
(PID.TID 0000.0001) %MON exf_wspeed_min               =   4.5938084481311E-01
(PID.TID 0000.0001) %MON exf_wspeed_mean              =   4.1985322596174E+00
(PID.TID 0000.0001) %MON exf_wspeed_sd                =   1.6001985099325E+00
(PID.TID 0000.0001) %MON exf_wspeed_del2              =   3.7714995543655E-01
(PID.TID 0000.0001) %MON exf_atemp_max                =   2.8187596388853E+02
(PID.TID 0000.0001) %MON exf_atemp_min                =   2.3644390923339E+02
(PID.TID 0000.0001) %MON exf_atemp_mean               =   2.6392748149999E+02
(PID.TID 0000.0001) %MON exf_atemp_sd                 =   1.1989262748844E+01
(PID.TID 0000.0001) %MON exf_atemp_del2               =   6.4950009177509E-01
(PID.TID 0000.0001) %MON exf_aqh_max                  =   6.3203867802223E-03
(PID.TID 0000.0001) %MON exf_aqh_min                  =   1.6331633418045E-04
(PID.TID 0000.0001) %MON exf_aqh_mean                 =   2.4781214845702E-03
(PID.TID 0000.0001) %MON exf_aqh_sd                   =   1.4260952789855E-03
(PID.TID 0000.0001) %MON exf_aqh_del2                 =   6.8087110355054E-05
(PID.TID 0000.0001) %MON exf_lwflux_max               =   1.8154800702574E+02
(PID.TID 0000.0001) %MON exf_lwflux_min               =   2.7104463755682E+01
(PID.TID 0000.0001) %MON exf_lwflux_mean              =   7.5190183474556E+01
(PID.TID 0000.0001) %MON exf_lwflux_sd                =   4.2783226616351E+01
(PID.TID 0000.0001) %MON exf_lwflux_del2              =   3.2333536706417E+00
(PID.TID 0000.0001) %MON exf_precip_max               =   1.0499318877820E-07
(PID.TID 0000.0001) %MON exf_precip_min               =   2.7305928105298E-10
(PID.TID 0000.0001) %MON exf_precip_mean              =   3.6390037166947E-08
(PID.TID 0000.0001) %MON exf_precip_sd                =   2.0579953834835E-08
(PID.TID 0000.0001) %MON exf_precip_del2              =   2.5572657585019E-09
(PID.TID 0000.0001) %MON exf_snowprecip_max           =   0.0000000000000E+00
(PID.TID 0000.0001) %MON exf_snowprecip_min           =   0.0000000000000E+00
(PID.TID 0000.0001) %MON exf_snowprecip_mean          =   0.0000000000000E+00
(PID.TID 0000.0001) %MON exf_snowprecip_sd            =   0.0000000000000E+00
(PID.TID 0000.0001) %MON exf_snowprecip_del2          =   0.0000000000000E+00
(PID.TID 0000.0001) %MON exf_swflux_max               =  -8.1206886983309E-02
(PID.TID 0000.0001) %MON exf_swflux_min               =  -6.4048595415960E+01
(PID.TID 0000.0001) %MON exf_swflux_mean              =  -2.6495351886448E+01
(PID.TID 0000.0001) %MON exf_swflux_sd                =   1.9641247100083E+01
(PID.TID 0000.0001) %MON exf_swflux_del2              =   4.7944026133668E-01
(PID.TID 0000.0001) %MON exf_evap_max                 =   4.5347204057645E-08
(PID.TID 0000.0001) %MON exf_evap_min                 =  -4.2663929306065E-09
(PID.TID 0000.0001) %MON exf_evap_mean                =   1.0423065817870E-08
(PID.TID 0000.0001) %MON exf_evap_sd                  =   1.1085437770397E-08
(PID.TID 0000.0001) %MON exf_evap_del2                =   1.3323750873132E-09
(PID.TID 0000.0001) %MON exf_swdown_max               =   7.1165106017733E+01
(PID.TID 0000.0001) %MON exf_swdown_min               =   9.0229874425898E-02
(PID.TID 0000.0001) %MON exf_swdown_mean              =   2.9439279873831E+01
(PID.TID 0000.0001) %MON exf_swdown_sd                =   2.1823607888981E+01
(PID.TID 0000.0001) %MON exf_swdown_del2              =   5.3271140148521E-01
(PID.TID 0000.0001) %MON exf_lwdown_max               =   3.0564441368228E+02
(PID.TID 0000.0001) %MON exf_lwdown_min               =   1.1593726459357E+02
(PID.TID 0000.0001) %MON exf_lwdown_mean              =   2.2588648764287E+02
(PID.TID 0000.0001) %MON exf_lwdown_sd                =   4.6293313753333E+01
(PID.TID 0000.0001) %MON exf_lwdown_del2              =   3.2438678569828E+00
(PID.TID 0000.0001) %MON exf_apressure_max            =   0.0000000000000E+00
(PID.TID 0000.0001) %MON exf_apressure_min            =   0.0000000000000E+00
(PID.TID 0000.0001) %MON exf_apressure_mean           =   0.0000000000000E+00
(PID.TID 0000.0001) %MON exf_apressure_sd             =   0.0000000000000E+00
(PID.TID 0000.0001) %MON exf_apressure_del2           =   0.0000000000000E+00
(PID.TID 0000.0001) %MON exf_runoff_max               =   0.0000000000000E+00
(PID.TID 0000.0001) %MON exf_runoff_min               =   0.0000000000000E+00
(PID.TID 0000.0001) %MON exf_runoff_mean              =   0.0000000000000E+00
(PID.TID 0000.0001) %MON exf_runoff_sd                =   0.0000000000000E+00
(PID.TID 0000.0001) %MON exf_runoff_del2              =   0.0000000000000E+00
(PID.TID 0000.0001) %MON exf_climsst_max              =   0.0000000000000E+00
(PID.TID 0000.0001) %MON exf_climsst_min              =   0.0000000000000E+00
(PID.TID 0000.0001) %MON exf_climsst_mean             =   0.0000000000000E+00
(PID.TID 0000.0001) %MON exf_climsst_sd               =   0.0000000000000E+00
(PID.TID 0000.0001) %MON exf_climsst_del2             =   0.0000000000000E+00
(PID.TID 0000.0001) %MON exf_climsss_max              =   3.5041069874998E+01
(PID.TID 0000.0001) %MON exf_climsss_min              =   3.0669350483378E+01
(PID.TID 0000.0001) %MON exf_climsss_mean             =   3.3461404934907E+01
(PID.TID 0000.0001) %MON exf_climsss_sd               =   1.0316695849659E+00
(PID.TID 0000.0001) %MON exf_climsss_del2             =   1.0012504429982E-01
(PID.TID 0000.0001) // =======================================================
(PID.TID 0000.0001) // End MONITOR EXF statistics
(PID.TID 0000.0001) // =======================================================
(PID.TID 0000.0001) // =======================================================
(PID.TID 0000.0001) // Begin MONITOR EXF statistics
(PID.TID 0000.0001) // =======================================================
(PID.TID 0000.0001) %MON exf_tsnumber                 =                     3
(PID.TID 0000.0001) %MON exf_time_sec                 =   1.0800000000000E+04
(PID.TID 0000.0001) %MON exf_ustress_max              =   5.2220278364572E-02
(PID.TID 0000.0001) %MON exf_ustress_min              =  -9.3786644941843E-02
(PID.TID 0000.0001) %MON exf_ustress_mean             =   1.7925095706550E-02
(PID.TID 0000.0001) %MON exf_ustress_sd               =   2.3700143525746E-02
(PID.TID 0000.0001) %MON exf_ustress_del2             =   2.8158746957697E-03
(PID.TID 0000.0001) %MON exf_vstress_max              =   5.3827196762903E-02
(PID.TID 0000.0001) %MON exf_vstress_min              =  -5.8480358160305E-02
(PID.TID 0000.0001) %MON exf_vstress_mean             =  -5.4532182115270E-03
(PID.TID 0000.0001) %MON exf_vstress_sd               =   1.4440792530157E-02
(PID.TID 0000.0001) %MON exf_vstress_del2             =   1.6929393308108E-03
(PID.TID 0000.0001) %MON exf_hflux_max                =   6.2482499785037E+02
(PID.TID 0000.0001) %MON exf_hflux_min                =  -5.1652096229497E+01
(PID.TID 0000.0001) %MON exf_hflux_mean               =   1.4608871041864E+02
(PID.TID 0000.0001) %MON exf_hflux_sd                 =   1.8003233595359E+02
(PID.TID 0000.0001) %MON exf_hflux_del2               =   1.6307605461400E+01
(PID.TID 0000.0001) %MON exf_sflux_max                =   3.9014761130189E-08
(PID.TID 0000.0001) %MON exf_sflux_min                =  -8.8949891199064E-08
(PID.TID 0000.0001) %MON exf_sflux_mean               =  -2.5974537170783E-08
(PID.TID 0000.0001) %MON exf_sflux_sd                 =   3.0366720984824E-08
(PID.TID 0000.0001) %MON exf_sflux_del2               =   3.1622834204673E-09
(PID.TID 0000.0001) %MON exf_uwind_max                =   6.4658968995829E+00
(PID.TID 0000.0001) %MON exf_uwind_min                =  -6.8373184184559E+00
(PID.TID 0000.0001) %MON exf_uwind_mean               =   2.7700953906364E+00
(PID.TID 0000.0001) %MON exf_uwind_sd                 =   2.9908682681638E+00
(PID.TID 0000.0001) %MON exf_uwind_del2               =   3.1573366006031E-01
(PID.TID 0000.0001) %MON exf_vwind_max                =   3.9241587548959E+00
(PID.TID 0000.0001) %MON exf_vwind_min                =  -6.0169856587394E+00
(PID.TID 0000.0001) %MON exf_vwind_mean               =  -7.5904536197929E-01
(PID.TID 0000.0001) %MON exf_vwind_sd                 =   1.7296682234552E+00
(PID.TID 0000.0001) %MON exf_vwind_del2               =   1.9331202479855E-01
(PID.TID 0000.0001) %MON exf_wspeed_max               =   7.8833967989048E+00
(PID.TID 0000.0001) %MON exf_wspeed_min               =   4.5962367887737E-01
(PID.TID 0000.0001) %MON exf_wspeed_mean              =   4.1984294286706E+00
(PID.TID 0000.0001) %MON exf_wspeed_sd                =   1.5999418201857E+00
(PID.TID 0000.0001) %MON exf_wspeed_del2              =   3.7709664625274E-01
(PID.TID 0000.0001) %MON exf_atemp_max                =   2.8187767604140E+02
(PID.TID 0000.0001) %MON exf_atemp_min                =   2.3644837420104E+02
(PID.TID 0000.0001) %MON exf_atemp_mean               =   2.6393212558534E+02
(PID.TID 0000.0001) %MON exf_atemp_sd                 =   1.1987800753926E+01
(PID.TID 0000.0001) %MON exf_atemp_del2               =   6.4948075883375E-01
(PID.TID 0000.0001) %MON exf_aqh_max                  =   6.3210833210834E-03
(PID.TID 0000.0001) %MON exf_aqh_min                  =   1.6341043767886E-04
(PID.TID 0000.0001) %MON exf_aqh_mean                 =   2.4786818409748E-03
(PID.TID 0000.0001) %MON exf_aqh_sd                   =   1.4261982746893E-03
(PID.TID 0000.0001) %MON exf_aqh_del2                 =   6.8100777916201E-05
(PID.TID 0000.0001) %MON exf_lwflux_max               =   1.8153866759519E+02
(PID.TID 0000.0001) %MON exf_lwflux_min               =   2.7117659269148E+01
(PID.TID 0000.0001) %MON exf_lwflux_mean              =   7.5167336267018E+01
(PID.TID 0000.0001) %MON exf_lwflux_sd                =   4.2791334919690E+01
(PID.TID 0000.0001) %MON exf_lwflux_del2              =   3.2353470329106E+00
(PID.TID 0000.0001) %MON exf_precip_max               =   1.0499180733557E-07
(PID.TID 0000.0001) %MON exf_precip_min               =   2.7319320752566E-10
(PID.TID 0000.0001) %MON exf_precip_mean              =   3.6390048010982E-08
(PID.TID 0000.0001) %MON exf_precip_sd                =   2.0579501435483E-08
(PID.TID 0000.0001) %MON exf_precip_del2              =   2.5567380653122E-09
(PID.TID 0000.0001) %MON exf_snowprecip_max           =   0.0000000000000E+00
(PID.TID 0000.0001) %MON exf_snowprecip_min           =   0.0000000000000E+00
(PID.TID 0000.0001) %MON exf_snowprecip_mean          =   0.0000000000000E+00
(PID.TID 0000.0001) %MON exf_snowprecip_sd            =   0.0000000000000E+00
(PID.TID 0000.0001) %MON exf_snowprecip_del2          =   0.0000000000000E+00
(PID.TID 0000.0001) %MON exf_swflux_max               =  -8.1206604105527E-02
(PID.TID 0000.0001) %MON exf_swflux_min               =  -6.4029725065388E+01
(PID.TID 0000.0001) %MON exf_swflux_mean              =  -2.6484819670573E+01
(PID.TID 0000.0001) %MON exf_swflux_sd                =   1.9637409707136E+01
(PID.TID 0000.0001) %MON exf_swflux_del2              =   4.7933338739073E-01
(PID.TID 0000.0001) %MON exf_evap_max                 =   4.5336980821491E-08
(PID.TID 0000.0001) %MON exf_evap_min                 =  -4.2852111092978E-09
(PID.TID 0000.0001) %MON exf_evap_mean                =   1.0415510840199E-08
(PID.TID 0000.0001) %MON exf_evap_sd                  =   1.1091288891026E-08
(PID.TID 0000.0001) %MON exf_evap_del2                =   1.3330271329587E-09
(PID.TID 0000.0001) %MON exf_swdown_max               =   7.1144138961542E+01
(PID.TID 0000.0001) %MON exf_swdown_min               =   9.0229560117253E-02
(PID.TID 0000.0001) %MON exf_swdown_mean              =   2.9427577411748E+01
(PID.TID 0000.0001) %MON exf_swdown_sd                =   2.1819344119040E+01
(PID.TID 0000.0001) %MON exf_swdown_del2              =   5.3259265265636E-01
(PID.TID 0000.0001) %MON exf_lwdown_max               =   3.0565323976611E+02
(PID.TID 0000.0001) %MON exf_lwdown_min               =   1.1595237147222E+02
(PID.TID 0000.0001) %MON exf_lwdown_mean              =   2.2590219497194E+02
(PID.TID 0000.0001) %MON exf_lwdown_sd                =   4.6289340871590E+01
(PID.TID 0000.0001) %MON exf_lwdown_del2              =   3.2438562169101E+00
(PID.TID 0000.0001) %MON exf_apressure_max            =   0.0000000000000E+00
(PID.TID 0000.0001) %MON exf_apressure_min            =   0.0000000000000E+00
(PID.TID 0000.0001) %MON exf_apressure_mean           =   0.0000000000000E+00
(PID.TID 0000.0001) %MON exf_apressure_sd             =   0.0000000000000E+00
(PID.TID 0000.0001) %MON exf_apressure_del2           =   0.0000000000000E+00
(PID.TID 0000.0001) %MON exf_runoff_max               =   0.0000000000000E+00
(PID.TID 0000.0001) %MON exf_runoff_min               =   0.0000000000000E+00
(PID.TID 0000.0001) %MON exf_runoff_mean              =   0.0000000000000E+00
(PID.TID 0000.0001) %MON exf_runoff_sd                =   0.0000000000000E+00
(PID.TID 0000.0001) %MON exf_runoff_del2              =   0.0000000000000E+00
(PID.TID 0000.0001) %MON exf_climsst_max              =   0.0000000000000E+00
(PID.TID 0000.0001) %MON exf_climsst_min              =   0.0000000000000E+00
(PID.TID 0000.0001) %MON exf_climsst_mean             =   0.0000000000000E+00
(PID.TID 0000.0001) %MON exf_climsst_sd               =   0.0000000000000E+00
(PID.TID 0000.0001) %MON exf_climsst_del2             =   0.0000000000000E+00
(PID.TID 0000.0001) %MON exf_climsss_max              =   3.5040885127959E+01
(PID.TID 0000.0001) %MON exf_climsss_min              =   3.0668591155380E+01
(PID.TID 0000.0001) %MON exf_climsss_mean             =   3.3460883601427E+01
(PID.TID 0000.0001) %MON exf_climsss_sd               =   1.0317405668875E+00
(PID.TID 0000.0001) %MON exf_climsss_del2             =   1.0014227359021E-01
(PID.TID 0000.0001) // =======================================================
(PID.TID 0000.0001) // End MONITOR EXF statistics
(PID.TID 0000.0001) // =======================================================
 ph-ice B  3  0.  0.  0.
 ph-ice C  3  2.0493353E+11
(PID.TID 0000.0001) // =======================================================
(PID.TID 0000.0001) // Begin MONITOR dynamic field statistics
(PID.TID 0000.0001) // =======================================================
(PID.TID 0000.0001) %MON ad_time_tsnumber             =                     4
(PID.TID 0000.0001) %MON ad_time_secondsf             =   1.4400000000000E+04
(PID.TID 0000.0001) %MON ad_dynstat_adeta_max         =   8.6250564037245E+08
(PID.TID 0000.0001) %MON ad_dynstat_adeta_min         =  -9.5880544210543E+08
(PID.TID 0000.0001) %MON ad_dynstat_adeta_mean        =  -5.8014185530961E+06
(PID.TID 0000.0001) %MON ad_dynstat_adeta_sd          =   3.1694621153673E+08
(PID.TID 0000.0001) %MON ad_dynstat_adeta_del2        =   6.8229642986931E+07
(PID.TID 0000.0001) %MON ad_dynstat_aduvel_max        =   8.1511309694888E+07
(PID.TID 0000.0001) %MON ad_dynstat_aduvel_min        =  -5.4585668178035E+08
(PID.TID 0000.0001) %MON ad_dynstat_aduvel_mean       =  -5.4880440224359E+07
(PID.TID 0000.0001) %MON ad_dynstat_aduvel_sd         =   5.3890810599300E+07
(PID.TID 0000.0001) %MON ad_dynstat_aduvel_del2       =   4.9287716778467E+06
(PID.TID 0000.0001) %MON ad_dynstat_advvel_max        =   4.1005916588417E+08
(PID.TID 0000.0001) %MON ad_dynstat_advvel_min        =  -2.4354889098598E+08
(PID.TID 0000.0001) %MON ad_dynstat_advvel_mean       =  -8.0929453727319E+07
(PID.TID 0000.0001) %MON ad_dynstat_advvel_sd         =   6.4844720312648E+07
(PID.TID 0000.0001) %MON ad_dynstat_advvel_del2       =   3.7409805023347E+06
(PID.TID 0000.0001) %MON ad_dynstat_adwvel_max        =   7.2961415761098E+09
(PID.TID 0000.0001) %MON ad_dynstat_adwvel_min        =  -3.0158180466710E+12
(PID.TID 0000.0001) %MON ad_dynstat_adwvel_mean       =  -7.3448886428719E+09
(PID.TID 0000.0001) %MON ad_dynstat_adwvel_sd         =   1.2062111141117E+11
(PID.TID 0000.0001) %MON ad_dynstat_adwvel_del2       =   1.1348502255097E+10
(PID.TID 0000.0001) %MON ad_dynstat_adtheta_max       =   4.7408109609978E+07
(PID.TID 0000.0001) %MON ad_dynstat_adtheta_min       =  -2.7005251971673E+09
(PID.TID 0000.0001) %MON ad_dynstat_adtheta_mean      =  -6.9504942156536E+06
(PID.TID 0000.0001) %MON ad_dynstat_adtheta_sd        =   1.1965733596112E+08
(PID.TID 0000.0001) %MON ad_dynstat_adtheta_del2      =   9.1153127446541E+06
(PID.TID 0000.0001) %MON ad_dynstat_adsalt_max        =   2.1323223397173E+08
(PID.TID 0000.0001) %MON ad_dynstat_adsalt_min        =  -1.4321070121437E+08
(PID.TID 0000.0001) %MON ad_dynstat_adsalt_mean       =  -2.1799509508415E+06
(PID.TID 0000.0001) %MON ad_dynstat_adsalt_sd         =   5.3511032161690E+07
(PID.TID 0000.0001) %MON ad_dynstat_adsalt_del2       =   7.1735021224616E+06
(PID.TID 0000.0001) %MON ad_dynstat_adsst_max         =   4.7408109609978E+07
(PID.TID 0000.0001) %MON ad_dynstat_adsst_min         =  -2.7005251971673E+09
(PID.TID 0000.0001) %MON ad_dynstat_adsst_mean        =  -1.1040230362036E+09
(PID.TID 0000.0001) %MON ad_dynstat_adsst_sd          =   9.5244337273449E+08
(PID.TID 0000.0001) %MON ad_dynstat_adsst_del2        =   9.8581076965087E+07
(PID.TID 0000.0001) %MON ad_dynstat_adsss_max         =   5.1710522288066E+06
(PID.TID 0000.0001) %MON ad_dynstat_adsss_min         =  -8.4451905920752E+06
(PID.TID 0000.0001) %MON ad_dynstat_adsss_mean        =  -3.5564749436789E+05
(PID.TID 0000.0001) %MON ad_dynstat_adsss_sd          =   2.2147988208740E+06
(PID.TID 0000.0001) %MON ad_dynstat_adsss_del2        =   6.1993838989248E+05
(PID.TID 0000.0001) %MON ad_extforcing_adqnet_max     =   0.0000000000000E+00
(PID.TID 0000.0001) %MON ad_extforcing_adqnet_min     =   0.0000000000000E+00
(PID.TID 0000.0001) %MON ad_extforcing_adqnet_mean    =   0.0000000000000E+00
(PID.TID 0000.0001) %MON ad_extforcing_adqnet_sd      =   0.0000000000000E+00
(PID.TID 0000.0001) %MON ad_extforcing_adqnet_del2    =   0.0000000000000E+00
(PID.TID 0000.0001) %MON ad_extforcing_adqsw_max      =   0.0000000000000E+00
(PID.TID 0000.0001) %MON ad_extforcing_adqsw_min      =   0.0000000000000E+00
(PID.TID 0000.0001) %MON ad_extforcing_adqsw_mean     =   0.0000000000000E+00
(PID.TID 0000.0001) %MON ad_extforcing_adqsw_sd       =   0.0000000000000E+00
(PID.TID 0000.0001) %MON ad_extforcing_adqsw_del2     =   0.0000000000000E+00
(PID.TID 0000.0001) %MON ad_extforcing_adempmr_max    =   0.0000000000000E+00
(PID.TID 0000.0001) %MON ad_extforcing_adempmr_min    =   0.0000000000000E+00
(PID.TID 0000.0001) %MON ad_extforcing_adempmr_mean   =   0.0000000000000E+00
(PID.TID 0000.0001) %MON ad_extforcing_adempmr_sd     =   0.0000000000000E+00
(PID.TID 0000.0001) %MON ad_extforcing_adempmr_del2   =   0.0000000000000E+00
(PID.TID 0000.0001) %MON ad_extforcing_adfu_max       =   0.0000000000000E+00
(PID.TID 0000.0001) %MON ad_extforcing_adfu_min       =   0.0000000000000E+00
(PID.TID 0000.0001) %MON ad_extforcing_adfu_mean      =   0.0000000000000E+00
(PID.TID 0000.0001) %MON ad_extforcing_adfu_sd        =   0.0000000000000E+00
(PID.TID 0000.0001) %MON ad_extforcing_adfu_del2      =   0.0000000000000E+00
(PID.TID 0000.0001) %MON ad_extforcing_adfv_max       =   0.0000000000000E+00
(PID.TID 0000.0001) %MON ad_extforcing_adfv_min       =   0.0000000000000E+00
(PID.TID 0000.0001) %MON ad_extforcing_adfv_mean      =   0.0000000000000E+00
(PID.TID 0000.0001) %MON ad_extforcing_adfv_sd        =   0.0000000000000E+00
(PID.TID 0000.0001) %MON ad_extforcing_adfv_del2      =   0.0000000000000E+00
(PID.TID 0000.0001) %MON ad_advcfl_aduvel_max         =   1.4682605780764E+07
(PID.TID 0000.0001) %MON ad_advcfl_advvel_max         =   6.6379512165237E+06
(PID.TID 0000.0001) %MON ad_advcfl_adwvel_max         =   1.0856944968016E+15
(PID.TID 0000.0001) %MON ad_advcfl_adW_hf_max         =   2.1713889936031E+15
(PID.TID 0000.0001) // =======================================================
(PID.TID 0000.0001) // End MONITOR dynamic field statistics
(PID.TID 0000.0001) // =======================================================
 cg2d: Sum(rhs),rhsMax =   9.59630525976078E-10  4.89570925113096E+05
(PID.TID 0000.0001) // =======================================================
(PID.TID 0000.0001) // Begin MONITOR EXF statistics
(PID.TID 0000.0001) // =======================================================
(PID.TID 0000.0001) %MON exf_tsnumber                 =                     3
(PID.TID 0000.0001) %MON exf_time_sec                 =   1.0800000000000E+04
(PID.TID 0000.0001) %MON exf_ustress_max              =   5.2220278364572E-02
(PID.TID 0000.0001) %MON exf_ustress_min              =  -9.3786644941843E-02
(PID.TID 0000.0001) %MON exf_ustress_mean             =   1.7925095706550E-02
(PID.TID 0000.0001) %MON exf_ustress_sd               =   2.3700143525746E-02
(PID.TID 0000.0001) %MON exf_ustress_del2             =   2.8158746957697E-03
(PID.TID 0000.0001) %MON exf_vstress_max              =   5.3827196762903E-02
(PID.TID 0000.0001) %MON exf_vstress_min              =  -5.8480358160305E-02
(PID.TID 0000.0001) %MON exf_vstress_mean             =  -5.4532182115270E-03
(PID.TID 0000.0001) %MON exf_vstress_sd               =   1.4440792530157E-02
(PID.TID 0000.0001) %MON exf_vstress_del2             =   1.6929393308108E-03
(PID.TID 0000.0001) %MON exf_hflux_max                =   6.2482499785037E+02
(PID.TID 0000.0001) %MON exf_hflux_min                =  -5.1652096229497E+01
(PID.TID 0000.0001) %MON exf_hflux_mean               =   1.4608871041864E+02
(PID.TID 0000.0001) %MON exf_hflux_sd                 =   1.8003233595359E+02
(PID.TID 0000.0001) %MON exf_hflux_del2               =   1.6307605461400E+01
(PID.TID 0000.0001) %MON exf_sflux_max                =   3.9014761130189E-08
(PID.TID 0000.0001) %MON exf_sflux_min                =  -8.8949891199064E-08
(PID.TID 0000.0001) %MON exf_sflux_mean               =  -2.5974537170783E-08
(PID.TID 0000.0001) %MON exf_sflux_sd                 =   3.0366720984824E-08
(PID.TID 0000.0001) %MON exf_sflux_del2               =   3.1622834204673E-09
(PID.TID 0000.0001) %MON exf_uwind_max                =   6.4658968995829E+00
(PID.TID 0000.0001) %MON exf_uwind_min                =  -6.8373184184559E+00
(PID.TID 0000.0001) %MON exf_uwind_mean               =   2.7700953906364E+00
(PID.TID 0000.0001) %MON exf_uwind_sd                 =   2.9908682681638E+00
(PID.TID 0000.0001) %MON exf_uwind_del2               =   3.1573366006031E-01
(PID.TID 0000.0001) %MON exf_vwind_max                =   3.9241587548959E+00
(PID.TID 0000.0001) %MON exf_vwind_min                =  -6.0169856587394E+00
(PID.TID 0000.0001) %MON exf_vwind_mean               =  -7.5904536197929E-01
(PID.TID 0000.0001) %MON exf_vwind_sd                 =   1.7296682234552E+00
(PID.TID 0000.0001) %MON exf_vwind_del2               =   1.9331202479855E-01
(PID.TID 0000.0001) %MON exf_wspeed_max               =   7.8833967989048E+00
(PID.TID 0000.0001) %MON exf_wspeed_min               =   4.5962367887737E-01
(PID.TID 0000.0001) %MON exf_wspeed_mean              =   4.1984294286706E+00
(PID.TID 0000.0001) %MON exf_wspeed_sd                =   1.5999418201857E+00
(PID.TID 0000.0001) %MON exf_wspeed_del2              =   3.7709664625274E-01
(PID.TID 0000.0001) %MON exf_atemp_max                =   2.8187767604140E+02
(PID.TID 0000.0001) %MON exf_atemp_min                =   2.3644837420104E+02
(PID.TID 0000.0001) %MON exf_atemp_mean               =   2.6393212558534E+02
(PID.TID 0000.0001) %MON exf_atemp_sd                 =   1.1987800753926E+01
(PID.TID 0000.0001) %MON exf_atemp_del2               =   6.4948075883375E-01
(PID.TID 0000.0001) %MON exf_aqh_max                  =   6.3210833210834E-03
(PID.TID 0000.0001) %MON exf_aqh_min                  =   1.6341043767886E-04
(PID.TID 0000.0001) %MON exf_aqh_mean                 =   2.4786818409748E-03
(PID.TID 0000.0001) %MON exf_aqh_sd                   =   1.4261982746893E-03
(PID.TID 0000.0001) %MON exf_aqh_del2                 =   6.8100777916201E-05
(PID.TID 0000.0001) %MON exf_lwflux_max               =   1.8153866759519E+02
(PID.TID 0000.0001) %MON exf_lwflux_min               =   2.7117659269148E+01
(PID.TID 0000.0001) %MON exf_lwflux_mean              =   7.5167336267018E+01
(PID.TID 0000.0001) %MON exf_lwflux_sd                =   4.2791334919690E+01
(PID.TID 0000.0001) %MON exf_lwflux_del2              =   3.2353470329106E+00
(PID.TID 0000.0001) %MON exf_precip_max               =   1.0499180733557E-07
(PID.TID 0000.0001) %MON exf_precip_min               =   2.7319320752566E-10
(PID.TID 0000.0001) %MON exf_precip_mean              =   3.6390048010982E-08
(PID.TID 0000.0001) %MON exf_precip_sd                =   2.0579501435483E-08
(PID.TID 0000.0001) %MON exf_precip_del2              =   2.5567380653122E-09
(PID.TID 0000.0001) %MON exf_snowprecip_max           =   0.0000000000000E+00
(PID.TID 0000.0001) %MON exf_snowprecip_min           =   0.0000000000000E+00
(PID.TID 0000.0001) %MON exf_snowprecip_mean          =   0.0000000000000E+00
(PID.TID 0000.0001) %MON exf_snowprecip_sd            =   0.0000000000000E+00
(PID.TID 0000.0001) %MON exf_snowprecip_del2          =   0.0000000000000E+00
(PID.TID 0000.0001) %MON exf_swflux_max               =  -8.1206604105527E-02
(PID.TID 0000.0001) %MON exf_swflux_min               =  -6.4029725065388E+01
(PID.TID 0000.0001) %MON exf_swflux_mean              =  -2.6484819670573E+01
(PID.TID 0000.0001) %MON exf_swflux_sd                =   1.9637409707136E+01
(PID.TID 0000.0001) %MON exf_swflux_del2              =   4.7933338739073E-01
(PID.TID 0000.0001) %MON exf_evap_max                 =   4.5336980821491E-08
(PID.TID 0000.0001) %MON exf_evap_min                 =  -4.2852111092978E-09
(PID.TID 0000.0001) %MON exf_evap_mean                =   1.0415510840199E-08
(PID.TID 0000.0001) %MON exf_evap_sd                  =   1.1091288891026E-08
(PID.TID 0000.0001) %MON exf_evap_del2                =   1.3330271329587E-09
(PID.TID 0000.0001) %MON exf_swdown_max               =   7.1144138961542E+01
(PID.TID 0000.0001) %MON exf_swdown_min               =   9.0229560117253E-02
(PID.TID 0000.0001) %MON exf_swdown_mean              =   2.9427577411748E+01
(PID.TID 0000.0001) %MON exf_swdown_sd                =   2.1819344119040E+01
(PID.TID 0000.0001) %MON exf_swdown_del2              =   5.3259265265636E-01
(PID.TID 0000.0001) %MON exf_lwdown_max               =   3.0565323976611E+02
(PID.TID 0000.0001) %MON exf_lwdown_min               =   1.1595237147222E+02
(PID.TID 0000.0001) %MON exf_lwdown_mean              =   2.2590219497194E+02
(PID.TID 0000.0001) %MON exf_lwdown_sd                =   4.6289340871590E+01
(PID.TID 0000.0001) %MON exf_lwdown_del2              =   3.2438562169101E+00
(PID.TID 0000.0001) %MON exf_apressure_max            =   0.0000000000000E+00
(PID.TID 0000.0001) %MON exf_apressure_min            =   0.0000000000000E+00
(PID.TID 0000.0001) %MON exf_apressure_mean           =   0.0000000000000E+00
(PID.TID 0000.0001) %MON exf_apressure_sd             =   0.0000000000000E+00
(PID.TID 0000.0001) %MON exf_apressure_del2           =   0.0000000000000E+00
(PID.TID 0000.0001) %MON exf_runoff_max               =   0.0000000000000E+00
(PID.TID 0000.0001) %MON exf_runoff_min               =   0.0000000000000E+00
(PID.TID 0000.0001) %MON exf_runoff_mean              =   0.0000000000000E+00
(PID.TID 0000.0001) %MON exf_runoff_sd                =   0.0000000000000E+00
(PID.TID 0000.0001) %MON exf_runoff_del2              =   0.0000000000000E+00
(PID.TID 0000.0001) %MON exf_climsst_max              =   0.0000000000000E+00
(PID.TID 0000.0001) %MON exf_climsst_min              =   0.0000000000000E+00
(PID.TID 0000.0001) %MON exf_climsst_mean             =   0.0000000000000E+00
(PID.TID 0000.0001) %MON exf_climsst_sd               =   0.0000000000000E+00
(PID.TID 0000.0001) %MON exf_climsst_del2             =   0.0000000000000E+00
(PID.TID 0000.0001) %MON exf_climsss_max              =   3.5040885127959E+01
(PID.TID 0000.0001) %MON exf_climsss_min              =   3.0668591155380E+01
(PID.TID 0000.0001) %MON exf_climsss_mean             =   3.3460883601427E+01
(PID.TID 0000.0001) %MON exf_climsss_sd               =   1.0317405668875E+00
(PID.TID 0000.0001) %MON exf_climsss_del2             =   1.0014227359021E-01
(PID.TID 0000.0001) // =======================================================
(PID.TID 0000.0001) // End MONITOR EXF statistics
(PID.TID 0000.0001) // =======================================================
(PID.TID 0000.0001) // =======================================================
(PID.TID 0000.0001) // Begin MONITOR EXF statistics
(PID.TID 0000.0001) // =======================================================
(PID.TID 0000.0001) %MON exf_tsnumber                 =                     2
(PID.TID 0000.0001) %MON exf_time_sec                 =   7.2000000000000E+03
(PID.TID 0000.0001) %MON exf_ustress_max              =   5.2234389551241E-02
(PID.TID 0000.0001) %MON exf_ustress_min              =  -9.3783873525021E-02
(PID.TID 0000.0001) %MON exf_ustress_mean             =   1.7912602833757E-02
(PID.TID 0000.0001) %MON exf_ustress_sd               =   2.3689566701864E-02
(PID.TID 0000.0001) %MON exf_ustress_del2             =   2.8175390184118E-03
(PID.TID 0000.0001) %MON exf_vstress_max              =   5.3825403016462E-02
(PID.TID 0000.0001) %MON exf_vstress_min              =  -5.8501907463670E-02
(PID.TID 0000.0001) %MON exf_vstress_mean             =  -5.4571894771090E-03
(PID.TID 0000.0001) %MON exf_vstress_sd               =   1.4439148783740E-02
(PID.TID 0000.0001) %MON exf_vstress_del2             =   1.6937326092935E-03
(PID.TID 0000.0001) %MON exf_hflux_max                =   6.2473671698450E+02
(PID.TID 0000.0001) %MON exf_hflux_min                =  -5.1856944043789E+01
(PID.TID 0000.0001) %MON exf_hflux_mean               =   1.4603892063602E+02
(PID.TID 0000.0001) %MON exf_hflux_sd                 =   1.8006278490683E+02
(PID.TID 0000.0001) %MON exf_hflux_del2               =   1.6304064602313E+01
(PID.TID 0000.0001) %MON exf_sflux_max                =   3.9010172880204E-08
(PID.TID 0000.0001) %MON exf_sflux_min                =  -8.8920778732677E-08
(PID.TID 0000.0001) %MON exf_sflux_mean               =  -2.5980919502074E-08
(PID.TID 0000.0001) %MON exf_sflux_sd                 =   3.0374070281473E-08
(PID.TID 0000.0001) %MON exf_sflux_del2               =   3.1602146903807E-09
(PID.TID 0000.0001) %MON exf_uwind_max                =   6.4653894471340E+00
(PID.TID 0000.0001) %MON exf_uwind_min                =  -6.8372916367536E+00
(PID.TID 0000.0001) %MON exf_uwind_mean               =   2.7699878382920E+00
(PID.TID 0000.0001) %MON exf_uwind_sd                 =   2.9905922217476E+00
(PID.TID 0000.0001) %MON exf_uwind_del2               =   3.1572575583776E-01
(PID.TID 0000.0001) %MON exf_vwind_max                =   3.9241285741003E+00
(PID.TID 0000.0001) %MON exf_vwind_min                =  -6.0178915685643E+00
(PID.TID 0000.0001) %MON exf_vwind_mean               =  -7.5966313506940E-01
(PID.TID 0000.0001) %MON exf_vwind_sd                 =   1.7295599554900E+00
(PID.TID 0000.0001) %MON exf_vwind_del2               =   1.9331889614049E-01
(PID.TID 0000.0001) %MON exf_wspeed_max               =   7.8833585477315E+00
(PID.TID 0000.0001) %MON exf_wspeed_min               =   4.5986651533145E-01
(PID.TID 0000.0001) %MON exf_wspeed_mean              =   4.1983267266652E+00
(PID.TID 0000.0001) %MON exf_wspeed_sd                =   1.5996852426804E+00
(PID.TID 0000.0001) %MON exf_wspeed_del2              =   3.7704333058266E-01
(PID.TID 0000.0001) %MON exf_atemp_max                =   2.8187938819427E+02
(PID.TID 0000.0001) %MON exf_atemp_min                =   2.3645283916869E+02
(PID.TID 0000.0001) %MON exf_atemp_mean               =   2.6393676967070E+02
(PID.TID 0000.0001) %MON exf_atemp_sd                 =   1.1986339246462E+01
(PID.TID 0000.0001) %MON exf_atemp_del2               =   6.4946142589242E-01
(PID.TID 0000.0001) %MON exf_aqh_max                  =   6.3217798619445E-03
(PID.TID 0000.0001) %MON exf_aqh_min                  =   1.6350454117726E-04
(PID.TID 0000.0001) %MON exf_aqh_mean                 =   2.4792421973794E-03
(PID.TID 0000.0001) %MON exf_aqh_sd                   =   1.4263013062694E-03
(PID.TID 0000.0001) %MON exf_aqh_del2                 =   6.8114445477348E-05
(PID.TID 0000.0001) %MON exf_lwflux_max               =   1.8153743597504E+02
(PID.TID 0000.0001) %MON exf_lwflux_min               =   2.6999313161451E+01
(PID.TID 0000.0001) %MON exf_lwflux_mean              =   7.5148003035461E+01
(PID.TID 0000.0001) %MON exf_lwflux_sd                =   4.2803183326180E+01
(PID.TID 0000.0001) %MON exf_lwflux_del2              =   3.2353096159738E+00
(PID.TID 0000.0001) %MON exf_precip_max               =   1.0499042589295E-07
(PID.TID 0000.0001) %MON exf_precip_min               =   2.7332713399833E-10
(PID.TID 0000.0001) %MON exf_precip_mean              =   3.6390058855016E-08
(PID.TID 0000.0001) %MON exf_precip_sd                =   2.0579049691733E-08
(PID.TID 0000.0001) %MON exf_precip_del2              =   2.5562103721225E-09
(PID.TID 0000.0001) %MON exf_snowprecip_max           =   0.0000000000000E+00
(PID.TID 0000.0001) %MON exf_snowprecip_min           =   0.0000000000000E+00
(PID.TID 0000.0001) %MON exf_snowprecip_mean          =   0.0000000000000E+00
(PID.TID 0000.0001) %MON exf_snowprecip_sd            =   0.0000000000000E+00
(PID.TID 0000.0001) %MON exf_snowprecip_del2          =   0.0000000000000E+00
(PID.TID 0000.0001) %MON exf_swflux_max               =  -8.1206321227746E-02
(PID.TID 0000.0001) %MON exf_swflux_min               =  -6.4010854714816E+01
(PID.TID 0000.0001) %MON exf_swflux_mean              =  -2.6474287454698E+01
(PID.TID 0000.0001) %MON exf_swflux_sd                =   1.9633572905820E+01
(PID.TID 0000.0001) %MON exf_swflux_del2              =   4.7922651344477E-01
(PID.TID 0000.0001) %MON exf_evap_max                 =   4.5333055282436E-08
(PID.TID 0000.0001) %MON exf_evap_min                 =  -4.3262573270113E-09
(PID.TID 0000.0001) %MON exf_evap_mean                =   1.0409139352942E-08
(PID.TID 0000.0001) %MON exf_evap_sd                  =   1.1101640257605E-08
(PID.TID 0000.0001) %MON exf_evap_del2                =   1.3339356630849E-09
(PID.TID 0000.0001) %MON exf_swdown_max               =   7.1123171905351E+01
(PID.TID 0000.0001) %MON exf_swdown_min               =   9.0229245808607E-02
(PID.TID 0000.0001) %MON exf_swdown_mean              =   2.9415874949665E+01
(PID.TID 0000.0001) %MON exf_swdown_sd                =   2.1815081006466E+01
(PID.TID 0000.0001) %MON exf_swdown_del2              =   5.3247390382752E-01
(PID.TID 0000.0001) %MON exf_lwdown_max               =   3.0566206584993E+02
(PID.TID 0000.0001) %MON exf_lwdown_min               =   1.1596747835086E+02
(PID.TID 0000.0001) %MON exf_lwdown_mean              =   2.2591790230100E+02
(PID.TID 0000.0001) %MON exf_lwdown_sd                =   4.6285369157136E+01
(PID.TID 0000.0001) %MON exf_lwdown_del2              =   3.2438445768374E+00
(PID.TID 0000.0001) %MON exf_apressure_max            =   0.0000000000000E+00
(PID.TID 0000.0001) %MON exf_apressure_min            =   0.0000000000000E+00
(PID.TID 0000.0001) %MON exf_apressure_mean           =   0.0000000000000E+00
(PID.TID 0000.0001) %MON exf_apressure_sd             =   0.0000000000000E+00
(PID.TID 0000.0001) %MON exf_apressure_del2           =   0.0000000000000E+00
(PID.TID 0000.0001) %MON exf_runoff_max               =   0.0000000000000E+00
(PID.TID 0000.0001) %MON exf_runoff_min               =   0.0000000000000E+00
(PID.TID 0000.0001) %MON exf_runoff_mean              =   0.0000000000000E+00
(PID.TID 0000.0001) %MON exf_runoff_sd                =   0.0000000000000E+00
(PID.TID 0000.0001) %MON exf_runoff_del2              =   0.0000000000000E+00
(PID.TID 0000.0001) %MON exf_climsst_max              =   0.0000000000000E+00
(PID.TID 0000.0001) %MON exf_climsst_min              =   0.0000000000000E+00
(PID.TID 0000.0001) %MON exf_climsst_mean             =   0.0000000000000E+00
(PID.TID 0000.0001) %MON exf_climsst_sd               =   0.0000000000000E+00
(PID.TID 0000.0001) %MON exf_climsst_del2             =   0.0000000000000E+00
(PID.TID 0000.0001) %MON exf_climsss_max              =   3.5040700380919E+01
(PID.TID 0000.0001) %MON exf_climsss_min              =   3.0667831827383E+01
(PID.TID 0000.0001) %MON exf_climsss_mean             =   3.3460362267948E+01
(PID.TID 0000.0001) %MON exf_climsss_sd               =   1.0318117788237E+00
(PID.TID 0000.0001) %MON exf_climsss_del2             =   1.0015950288060E-01
(PID.TID 0000.0001) // =======================================================
(PID.TID 0000.0001) // End MONITOR EXF statistics
(PID.TID 0000.0001) // =======================================================
 ph-ice B  2  0.  0.  0.
 ph-ice C  2  1.54286126E+11
(PID.TID 0000.0001) // =======================================================
(PID.TID 0000.0001) // Begin MONITOR dynamic field statistics
(PID.TID 0000.0001) // =======================================================
(PID.TID 0000.0001) %MON ad_time_tsnumber             =                     3
(PID.TID 0000.0001) %MON ad_time_secondsf             =   1.0800000000000E+04
(PID.TID 0000.0001) %MON ad_dynstat_adeta_max         =   9.7744971862316E+08
(PID.TID 0000.0001) %MON ad_dynstat_adeta_min         =  -1.1568813707015E+09
(PID.TID 0000.0001) %MON ad_dynstat_adeta_mean        =  -9.6292692345250E+06
(PID.TID 0000.0001) %MON ad_dynstat_adeta_sd          =   3.8123450282468E+08
(PID.TID 0000.0001) %MON ad_dynstat_adeta_del2        =   7.7848503100239E+07
(PID.TID 0000.0001) %MON ad_dynstat_aduvel_max        =   6.1802648333363E+07
(PID.TID 0000.0001) %MON ad_dynstat_aduvel_min        =  -5.8556557404761E+08
(PID.TID 0000.0001) %MON ad_dynstat_aduvel_mean       =  -9.8501606037446E+07
(PID.TID 0000.0001) %MON ad_dynstat_aduvel_sd         =   8.0391126594648E+07
(PID.TID 0000.0001) %MON ad_dynstat_aduvel_del2       =   5.3324702877862E+06
(PID.TID 0000.0001) %MON ad_dynstat_advvel_max        =   4.5299315291206E+08
(PID.TID 0000.0001) %MON ad_dynstat_advvel_min        =  -1.4418560315029E+08
(PID.TID 0000.0001) %MON ad_dynstat_advvel_mean       =  -3.3922849858144E+07
(PID.TID 0000.0001) %MON ad_dynstat_advvel_sd         =   3.7408310858650E+07
(PID.TID 0000.0001) %MON ad_dynstat_advvel_del2       =   4.0942112667387E+06
(PID.TID 0000.0001) %MON ad_dynstat_adwvel_max        =   1.7112994446486E+12
(PID.TID 0000.0001) %MON ad_dynstat_adwvel_min        =  -3.4217482080421E+12
(PID.TID 0000.0001) %MON ad_dynstat_adwvel_mean       =  -8.3978686624090E+09
(PID.TID 0000.0001) %MON ad_dynstat_adwvel_sd         =   1.4140837910047E+11
(PID.TID 0000.0001) %MON ad_dynstat_adwvel_del2       =   1.4411412096407E+10
(PID.TID 0000.0001) %MON ad_dynstat_adtheta_max       =   5.0339769427761E+07
(PID.TID 0000.0001) %MON ad_dynstat_adtheta_min       =  -3.0911508348683E+09
(PID.TID 0000.0001) %MON ad_dynstat_adtheta_mean      =  -7.8731823350962E+06
(PID.TID 0000.0001) %MON ad_dynstat_adtheta_sd        =   1.3766790357065E+08
(PID.TID 0000.0001) %MON ad_dynstat_adtheta_del2      =   1.0942967315251E+07
(PID.TID 0000.0001) %MON ad_dynstat_adsalt_max        =   2.5785581197943E+08
(PID.TID 0000.0001) %MON ad_dynstat_adsalt_min        =  -1.9701678724524E+08
(PID.TID 0000.0001) %MON ad_dynstat_adsalt_mean       =  -2.8724326416505E+06
(PID.TID 0000.0001) %MON ad_dynstat_adsalt_sd         =   6.5888834643493E+07
(PID.TID 0000.0001) %MON ad_dynstat_adsalt_del2       =   9.3051587004872E+06
(PID.TID 0000.0001) %MON ad_dynstat_adsst_max         =   5.0339769427761E+07
(PID.TID 0000.0001) %MON ad_dynstat_adsst_min         =  -3.0911508348683E+09
(PID.TID 0000.0001) %MON ad_dynstat_adsst_mean        =  -1.2614341548822E+09
(PID.TID 0000.0001) %MON ad_dynstat_adsst_sd          =   1.1045902192099E+09
(PID.TID 0000.0001) %MON ad_dynstat_adsst_del2        =   1.1707301567391E+08
(PID.TID 0000.0001) %MON ad_dynstat_adsss_max         =   6.7071763391790E+06
(PID.TID 0000.0001) %MON ad_dynstat_adsss_min         =  -1.1758142799704E+07
(PID.TID 0000.0001) %MON ad_dynstat_adsss_mean        =  -4.9542203026515E+05
(PID.TID 0000.0001) %MON ad_dynstat_adsss_sd          =   2.6728973798176E+06
(PID.TID 0000.0001) %MON ad_dynstat_adsss_del2        =   8.1154544344677E+05
(PID.TID 0000.0001) %MON ad_extforcing_adqnet_max     =   0.0000000000000E+00
(PID.TID 0000.0001) %MON ad_extforcing_adqnet_min     =   0.0000000000000E+00
(PID.TID 0000.0001) %MON ad_extforcing_adqnet_mean    =   0.0000000000000E+00
(PID.TID 0000.0001) %MON ad_extforcing_adqnet_sd      =   0.0000000000000E+00
(PID.TID 0000.0001) %MON ad_extforcing_adqnet_del2    =   0.0000000000000E+00
(PID.TID 0000.0001) %MON ad_extforcing_adqsw_max      =   0.0000000000000E+00
(PID.TID 0000.0001) %MON ad_extforcing_adqsw_min      =   0.0000000000000E+00
(PID.TID 0000.0001) %MON ad_extforcing_adqsw_mean     =   0.0000000000000E+00
(PID.TID 0000.0001) %MON ad_extforcing_adqsw_sd       =   0.0000000000000E+00
(PID.TID 0000.0001) %MON ad_extforcing_adqsw_del2     =   0.0000000000000E+00
(PID.TID 0000.0001) %MON ad_extforcing_adempmr_max    =   0.0000000000000E+00
(PID.TID 0000.0001) %MON ad_extforcing_adempmr_min    =   0.0000000000000E+00
(PID.TID 0000.0001) %MON ad_extforcing_adempmr_mean   =   0.0000000000000E+00
(PID.TID 0000.0001) %MON ad_extforcing_adempmr_sd     =   0.0000000000000E+00
(PID.TID 0000.0001) %MON ad_extforcing_adempmr_del2   =   0.0000000000000E+00
(PID.TID 0000.0001) %MON ad_extforcing_adfu_max       =   0.0000000000000E+00
(PID.TID 0000.0001) %MON ad_extforcing_adfu_min       =   0.0000000000000E+00
(PID.TID 0000.0001) %MON ad_extforcing_adfu_mean      =   0.0000000000000E+00
(PID.TID 0000.0001) %MON ad_extforcing_adfu_sd        =   0.0000000000000E+00
(PID.TID 0000.0001) %MON ad_extforcing_adfu_del2      =   0.0000000000000E+00
(PID.TID 0000.0001) %MON ad_extforcing_adfv_max       =   0.0000000000000E+00
(PID.TID 0000.0001) %MON ad_extforcing_adfv_min       =   0.0000000000000E+00
(PID.TID 0000.0001) %MON ad_extforcing_adfv_mean      =   0.0000000000000E+00
(PID.TID 0000.0001) %MON ad_extforcing_adfv_sd        =   0.0000000000000E+00
(PID.TID 0000.0001) %MON ad_extforcing_adfv_del2      =   0.0000000000000E+00
(PID.TID 0000.0001) %MON ad_advcfl_aduvel_max         =   1.6561014437051E+07
(PID.TID 0000.0001) %MON ad_advcfl_advvel_max         =   7.3329575354472E+06
(PID.TID 0000.0001) %MON ad_advcfl_adwvel_max         =   1.2318293548952E+15
(PID.TID 0000.0001) %MON ad_advcfl_adW_hf_max         =   2.4636587097903E+15
(PID.TID 0000.0001) // =======================================================
(PID.TID 0000.0001) // End MONITOR dynamic field statistics
(PID.TID 0000.0001) // =======================================================
 cg2d: Sum(rhs),rhsMax =   7.56236220671690E-10  5.59234184444118E+05
(PID.TID 0000.0001) // =======================================================
(PID.TID 0000.0001) // Begin MONITOR EXF statistics
(PID.TID 0000.0001) // =======================================================
(PID.TID 0000.0001) %MON exf_tsnumber                 =                     2
(PID.TID 0000.0001) %MON exf_time_sec                 =   7.2000000000000E+03
(PID.TID 0000.0001) %MON exf_ustress_max              =   5.2234389551241E-02
(PID.TID 0000.0001) %MON exf_ustress_min              =  -9.3783873525021E-02
(PID.TID 0000.0001) %MON exf_ustress_mean             =   1.7912602833757E-02
(PID.TID 0000.0001) %MON exf_ustress_sd               =   2.3689566701864E-02
(PID.TID 0000.0001) %MON exf_ustress_del2             =   2.8175390184118E-03
(PID.TID 0000.0001) %MON exf_vstress_max              =   5.3825403016462E-02
(PID.TID 0000.0001) %MON exf_vstress_min              =  -5.8501907463670E-02
(PID.TID 0000.0001) %MON exf_vstress_mean             =  -5.4571894771090E-03
(PID.TID 0000.0001) %MON exf_vstress_sd               =   1.4439148783740E-02
(PID.TID 0000.0001) %MON exf_vstress_del2             =   1.6937326092935E-03
(PID.TID 0000.0001) %MON exf_hflux_max                =   6.2473671698450E+02
(PID.TID 0000.0001) %MON exf_hflux_min                =  -5.1856944043789E+01
(PID.TID 0000.0001) %MON exf_hflux_mean               =   1.4603892063602E+02
(PID.TID 0000.0001) %MON exf_hflux_sd                 =   1.8006278490683E+02
(PID.TID 0000.0001) %MON exf_hflux_del2               =   1.6304064602313E+01
(PID.TID 0000.0001) %MON exf_sflux_max                =   3.9010172880204E-08
(PID.TID 0000.0001) %MON exf_sflux_min                =  -8.8920778732677E-08
(PID.TID 0000.0001) %MON exf_sflux_mean               =  -2.5980919502074E-08
(PID.TID 0000.0001) %MON exf_sflux_sd                 =   3.0374070281473E-08
(PID.TID 0000.0001) %MON exf_sflux_del2               =   3.1602146903807E-09
(PID.TID 0000.0001) %MON exf_uwind_max                =   6.4653894471340E+00
(PID.TID 0000.0001) %MON exf_uwind_min                =  -6.8372916367536E+00
(PID.TID 0000.0001) %MON exf_uwind_mean               =   2.7699878382920E+00
(PID.TID 0000.0001) %MON exf_uwind_sd                 =   2.9905922217476E+00
(PID.TID 0000.0001) %MON exf_uwind_del2               =   3.1572575583776E-01
(PID.TID 0000.0001) %MON exf_vwind_max                =   3.9241285741003E+00
(PID.TID 0000.0001) %MON exf_vwind_min                =  -6.0178915685643E+00
(PID.TID 0000.0001) %MON exf_vwind_mean               =  -7.5966313506940E-01
(PID.TID 0000.0001) %MON exf_vwind_sd                 =   1.7295599554900E+00
(PID.TID 0000.0001) %MON exf_vwind_del2               =   1.9331889614049E-01
(PID.TID 0000.0001) %MON exf_wspeed_max               =   7.8833585477315E+00
(PID.TID 0000.0001) %MON exf_wspeed_min               =   4.5986651533145E-01
(PID.TID 0000.0001) %MON exf_wspeed_mean              =   4.1983267266652E+00
(PID.TID 0000.0001) %MON exf_wspeed_sd                =   1.5996852426804E+00
(PID.TID 0000.0001) %MON exf_wspeed_del2              =   3.7704333058266E-01
(PID.TID 0000.0001) %MON exf_atemp_max                =   2.8187938819427E+02
(PID.TID 0000.0001) %MON exf_atemp_min                =   2.3645283916869E+02
(PID.TID 0000.0001) %MON exf_atemp_mean               =   2.6393676967070E+02
(PID.TID 0000.0001) %MON exf_atemp_sd                 =   1.1986339246462E+01
(PID.TID 0000.0001) %MON exf_atemp_del2               =   6.4946142589242E-01
(PID.TID 0000.0001) %MON exf_aqh_max                  =   6.3217798619445E-03
(PID.TID 0000.0001) %MON exf_aqh_min                  =   1.6350454117726E-04
(PID.TID 0000.0001) %MON exf_aqh_mean                 =   2.4792421973794E-03
(PID.TID 0000.0001) %MON exf_aqh_sd                   =   1.4263013062694E-03
(PID.TID 0000.0001) %MON exf_aqh_del2                 =   6.8114445477348E-05
(PID.TID 0000.0001) %MON exf_lwflux_max               =   1.8153743597504E+02
(PID.TID 0000.0001) %MON exf_lwflux_min               =   2.6999313161451E+01
(PID.TID 0000.0001) %MON exf_lwflux_mean              =   7.5148003035461E+01
(PID.TID 0000.0001) %MON exf_lwflux_sd                =   4.2803183326180E+01
(PID.TID 0000.0001) %MON exf_lwflux_del2              =   3.2353096159738E+00
(PID.TID 0000.0001) %MON exf_precip_max               =   1.0499042589295E-07
(PID.TID 0000.0001) %MON exf_precip_min               =   2.7332713399833E-10
(PID.TID 0000.0001) %MON exf_precip_mean              =   3.6390058855016E-08
(PID.TID 0000.0001) %MON exf_precip_sd                =   2.0579049691733E-08
(PID.TID 0000.0001) %MON exf_precip_del2              =   2.5562103721225E-09
(PID.TID 0000.0001) %MON exf_snowprecip_max           =   0.0000000000000E+00
(PID.TID 0000.0001) %MON exf_snowprecip_min           =   0.0000000000000E+00
(PID.TID 0000.0001) %MON exf_snowprecip_mean          =   0.0000000000000E+00
(PID.TID 0000.0001) %MON exf_snowprecip_sd            =   0.0000000000000E+00
(PID.TID 0000.0001) %MON exf_snowprecip_del2          =   0.0000000000000E+00
(PID.TID 0000.0001) %MON exf_swflux_max               =  -8.1206321227746E-02
(PID.TID 0000.0001) %MON exf_swflux_min               =  -6.4010854714816E+01
(PID.TID 0000.0001) %MON exf_swflux_mean              =  -2.6474287454698E+01
(PID.TID 0000.0001) %MON exf_swflux_sd                =   1.9633572905820E+01
(PID.TID 0000.0001) %MON exf_swflux_del2              =   4.7922651344477E-01
(PID.TID 0000.0001) %MON exf_evap_max                 =   4.5333055282436E-08
(PID.TID 0000.0001) %MON exf_evap_min                 =  -4.3262573270113E-09
(PID.TID 0000.0001) %MON exf_evap_mean                =   1.0409139352942E-08
(PID.TID 0000.0001) %MON exf_evap_sd                  =   1.1101640257605E-08
(PID.TID 0000.0001) %MON exf_evap_del2                =   1.3339356630849E-09
(PID.TID 0000.0001) %MON exf_swdown_max               =   7.1123171905351E+01
(PID.TID 0000.0001) %MON exf_swdown_min               =   9.0229245808607E-02
(PID.TID 0000.0001) %MON exf_swdown_mean              =   2.9415874949665E+01
(PID.TID 0000.0001) %MON exf_swdown_sd                =   2.1815081006466E+01
(PID.TID 0000.0001) %MON exf_swdown_del2              =   5.3247390382752E-01
(PID.TID 0000.0001) %MON exf_lwdown_max               =   3.0566206584993E+02
(PID.TID 0000.0001) %MON exf_lwdown_min               =   1.1596747835086E+02
(PID.TID 0000.0001) %MON exf_lwdown_mean              =   2.2591790230100E+02
(PID.TID 0000.0001) %MON exf_lwdown_sd                =   4.6285369157136E+01
(PID.TID 0000.0001) %MON exf_lwdown_del2              =   3.2438445768374E+00
(PID.TID 0000.0001) %MON exf_apressure_max            =   0.0000000000000E+00
(PID.TID 0000.0001) %MON exf_apressure_min            =   0.0000000000000E+00
(PID.TID 0000.0001) %MON exf_apressure_mean           =   0.0000000000000E+00
(PID.TID 0000.0001) %MON exf_apressure_sd             =   0.0000000000000E+00
(PID.TID 0000.0001) %MON exf_apressure_del2           =   0.0000000000000E+00
(PID.TID 0000.0001) %MON exf_runoff_max               =   0.0000000000000E+00
(PID.TID 0000.0001) %MON exf_runoff_min               =   0.0000000000000E+00
(PID.TID 0000.0001) %MON exf_runoff_mean              =   0.0000000000000E+00
(PID.TID 0000.0001) %MON exf_runoff_sd                =   0.0000000000000E+00
(PID.TID 0000.0001) %MON exf_runoff_del2              =   0.0000000000000E+00
(PID.TID 0000.0001) %MON exf_climsst_max              =   0.0000000000000E+00
(PID.TID 0000.0001) %MON exf_climsst_min              =   0.0000000000000E+00
(PID.TID 0000.0001) %MON exf_climsst_mean             =   0.0000000000000E+00
(PID.TID 0000.0001) %MON exf_climsst_sd               =   0.0000000000000E+00
(PID.TID 0000.0001) %MON exf_climsst_del2             =   0.0000000000000E+00
(PID.TID 0000.0001) %MON exf_climsss_max              =   3.5040700380919E+01
(PID.TID 0000.0001) %MON exf_climsss_min              =   3.0667831827383E+01
(PID.TID 0000.0001) %MON exf_climsss_mean             =   3.3460362267948E+01
(PID.TID 0000.0001) %MON exf_climsss_sd               =   1.0318117788237E+00
(PID.TID 0000.0001) %MON exf_climsss_del2             =   1.0015950288060E-01
(PID.TID 0000.0001) // =======================================================
(PID.TID 0000.0001) // End MONITOR EXF statistics
(PID.TID 0000.0001) // =======================================================
(PID.TID 0000.0001) // =======================================================
(PID.TID 0000.0001) // Begin MONITOR EXF statistics
(PID.TID 0000.0001) // =======================================================
(PID.TID 0000.0001) %MON exf_tsnumber                 =                     1
(PID.TID 0000.0001) %MON exf_time_sec                 =   3.6000000000000E+03
(PID.TID 0000.0001) %MON exf_ustress_max              =   5.2215336216899E-02
(PID.TID 0000.0001) %MON exf_ustress_min              =  -9.3781516255246E-02
(PID.TID 0000.0001) %MON exf_ustress_mean             =   1.7908664813945E-02
(PID.TID 0000.0001) %MON exf_ustress_sd               =   2.3677824520119E-02
(PID.TID 0000.0001) %MON exf_ustress_del2             =   2.8185945121624E-03
(PID.TID 0000.0001) %MON exf_vstress_max              =   5.3823846971061E-02
(PID.TID 0000.0001) %MON exf_vstress_min              =  -5.8521115502029E-02
(PID.TID 0000.0001) %MON exf_vstress_mean             =  -5.4709257304531E-03
(PID.TID 0000.0001) %MON exf_vstress_sd               =   1.4440702294892E-02
(PID.TID 0000.0001) %MON exf_vstress_del2             =   1.6942466375470E-03
(PID.TID 0000.0001) %MON exf_hflux_max                =   6.2467472133264E+02
(PID.TID 0000.0001) %MON exf_hflux_min                =  -5.4116825759641E+01
(PID.TID 0000.0001) %MON exf_hflux_mean               =   1.4693364847073E+02
(PID.TID 0000.0001) %MON exf_hflux_sd                 =   1.8156698860139E+02
(PID.TID 0000.0001) %MON exf_hflux_del2               =   1.6567547708346E+01
(PID.TID 0000.0001) %MON exf_sflux_max                =   3.9008935708334E-08
(PID.TID 0000.0001) %MON exf_sflux_min                =  -8.8902774357601E-08
(PID.TID 0000.0001) %MON exf_sflux_mean               =  -2.5876940685263E-08
(PID.TID 0000.0001) %MON exf_sflux_sd                 =   3.0537598406995E-08
(PID.TID 0000.0001) %MON exf_sflux_del2               =   3.1605976719929E-09
(PID.TID 0000.0001) %MON exf_uwind_max                =   6.4648819946852E+00
(PID.TID 0000.0001) %MON exf_uwind_min                =  -6.8372648550513E+00
(PID.TID 0000.0001) %MON exf_uwind_mean               =   2.7698802859476E+00
(PID.TID 0000.0001) %MON exf_uwind_sd                 =   2.9903162155877E+00
(PID.TID 0000.0001) %MON exf_uwind_del2               =   3.1571785161521E-01
(PID.TID 0000.0001) %MON exf_vwind_max                =   3.9240983933048E+00
(PID.TID 0000.0001) %MON exf_vwind_min                =  -6.0187974783892E+00
(PID.TID 0000.0001) %MON exf_vwind_mean               =  -7.6028090815952E-01
(PID.TID 0000.0001) %MON exf_vwind_sd                 =   1.7294518007626E+00
(PID.TID 0000.0001) %MON exf_vwind_del2               =   1.9332576748242E-01
(PID.TID 0000.0001) %MON exf_wspeed_max               =   7.8833202965791E+00
(PID.TID 0000.0001) %MON exf_wspeed_min               =   4.6010935417159E-01
(PID.TID 0000.0001) %MON exf_wspeed_mean              =   4.1982241536133E+00
(PID.TID 0000.0001) %MON exf_wspeed_sd                =   1.5994287774633E+00
(PID.TID 0000.0001) %MON exf_wspeed_del2              =   3.7699000842292E-01
(PID.TID 0000.0001) %MON exf_atemp_max                =   2.8188110034713E+02
(PID.TID 0000.0001) %MON exf_atemp_min                =   2.3645730413635E+02
(PID.TID 0000.0001) %MON exf_atemp_mean               =   2.6394141375606E+02
(PID.TID 0000.0001) %MON exf_atemp_sd                 =   1.1984878226631E+01
(PID.TID 0000.0001) %MON exf_atemp_del2               =   6.4944209295109E-01
(PID.TID 0000.0001) %MON exf_aqh_max                  =   6.3224764028055E-03
(PID.TID 0000.0001) %MON exf_aqh_min                  =   1.6359864467567E-04
(PID.TID 0000.0001) %MON exf_aqh_mean                 =   2.4798025537840E-03
(PID.TID 0000.0001) %MON exf_aqh_sd                   =   1.4264043737180E-03
(PID.TID 0000.0001) %MON exf_aqh_del2                 =   6.8128113038494E-05
(PID.TID 0000.0001) %MON exf_lwflux_max               =   1.8380784776361E+02
(PID.TID 0000.0001) %MON exf_lwflux_min               =   2.6472644798215E+01
(PID.TID 0000.0001) %MON exf_lwflux_mean              =   7.5350572632925E+01
(PID.TID 0000.0001) %MON exf_lwflux_sd                =   4.3134595524386E+01
(PID.TID 0000.0001) %MON exf_lwflux_del2              =   3.2390977067912E+00
(PID.TID 0000.0001) %MON exf_precip_max               =   1.0498904445033E-07
(PID.TID 0000.0001) %MON exf_precip_min               =   2.7346106047101E-10
(PID.TID 0000.0001) %MON exf_precip_mean              =   3.6390069699050E-08
(PID.TID 0000.0001) %MON exf_precip_sd                =   2.0578598603627E-08
(PID.TID 0000.0001) %MON exf_precip_del2              =   2.5556826789328E-09
(PID.TID 0000.0001) %MON exf_snowprecip_max           =   0.0000000000000E+00
(PID.TID 0000.0001) %MON exf_snowprecip_min           =   0.0000000000000E+00
(PID.TID 0000.0001) %MON exf_snowprecip_mean          =   0.0000000000000E+00
(PID.TID 0000.0001) %MON exf_snowprecip_sd            =   0.0000000000000E+00
(PID.TID 0000.0001) %MON exf_snowprecip_del2          =   0.0000000000000E+00
(PID.TID 0000.0001) %MON exf_swflux_max               =  -8.1206038349965E-02
(PID.TID 0000.0001) %MON exf_swflux_min               =  -6.3991984364244E+01
(PID.TID 0000.0001) %MON exf_swflux_mean              =  -2.6463755238823E+01
(PID.TID 0000.0001) %MON exf_swflux_sd                =   1.9629736696482E+01
(PID.TID 0000.0001) %MON exf_swflux_del2              =   4.7911963949881E-01
(PID.TID 0000.0001) %MON exf_evap_max                 =   4.5332480821497E-08
(PID.TID 0000.0001) %MON exf_evap_min                 =  -4.7524365011618E-09
(PID.TID 0000.0001) %MON exf_evap_mean                =   1.0513129013787E-08
(PID.TID 0000.0001) %MON exf_evap_sd                  =   1.1274583021708E-08
(PID.TID 0000.0001) %MON exf_evap_del2                =   1.3716110068495E-09
(PID.TID 0000.0001) %MON exf_swdown_max               =   7.1102204849160E+01
(PID.TID 0000.0001) %MON exf_swdown_min               =   9.0228931499961E-02
(PID.TID 0000.0001) %MON exf_swdown_mean              =   2.9404172487581E+01
(PID.TID 0000.0001) %MON exf_swdown_sd                =   2.1810818551646E+01
(PID.TID 0000.0001) %MON exf_swdown_del2              =   5.3235515499868E-01
(PID.TID 0000.0001) %MON exf_lwdown_max               =   3.0567089193375E+02
(PID.TID 0000.0001) %MON exf_lwdown_min               =   1.1598258522951E+02
(PID.TID 0000.0001) %MON exf_lwdown_mean              =   2.2593360963007E+02
(PID.TID 0000.0001) %MON exf_lwdown_sd                =   4.6281398610271E+01
(PID.TID 0000.0001) %MON exf_lwdown_del2              =   3.2438329367646E+00
(PID.TID 0000.0001) %MON exf_apressure_max            =   0.0000000000000E+00
(PID.TID 0000.0001) %MON exf_apressure_min            =   0.0000000000000E+00
(PID.TID 0000.0001) %MON exf_apressure_mean           =   0.0000000000000E+00
(PID.TID 0000.0001) %MON exf_apressure_sd             =   0.0000000000000E+00
(PID.TID 0000.0001) %MON exf_apressure_del2           =   0.0000000000000E+00
(PID.TID 0000.0001) %MON exf_runoff_max               =   0.0000000000000E+00
(PID.TID 0000.0001) %MON exf_runoff_min               =   0.0000000000000E+00
(PID.TID 0000.0001) %MON exf_runoff_mean              =   0.0000000000000E+00
(PID.TID 0000.0001) %MON exf_runoff_sd                =   0.0000000000000E+00
(PID.TID 0000.0001) %MON exf_runoff_del2              =   0.0000000000000E+00
(PID.TID 0000.0001) %MON exf_climsst_max              =   0.0000000000000E+00
(PID.TID 0000.0001) %MON exf_climsst_min              =   0.0000000000000E+00
(PID.TID 0000.0001) %MON exf_climsst_mean             =   0.0000000000000E+00
(PID.TID 0000.0001) %MON exf_climsst_sd               =   0.0000000000000E+00
(PID.TID 0000.0001) %MON exf_climsst_del2             =   0.0000000000000E+00
(PID.TID 0000.0001) %MON exf_climsss_max              =   3.5040515633880E+01
(PID.TID 0000.0001) %MON exf_climsss_min              =   3.0667072499385E+01
(PID.TID 0000.0001) %MON exf_climsss_mean             =   3.3459840934468E+01
(PID.TID 0000.0001) %MON exf_climsss_sd               =   1.0318832207269E+00
(PID.TID 0000.0001) %MON exf_climsss_del2             =   1.0017673217099E-01
(PID.TID 0000.0001) // =======================================================
(PID.TID 0000.0001) // End MONITOR EXF statistics
(PID.TID 0000.0001) // =======================================================
 ph-ice B  1  0.  0.  0.
 ph-ice C  1  1.03662085E+11
(PID.TID 0000.0001) // =======================================================
(PID.TID 0000.0001) // Begin MONITOR dynamic field statistics
(PID.TID 0000.0001) // =======================================================
(PID.TID 0000.0001) %MON ad_time_tsnumber             =                     2
(PID.TID 0000.0001) %MON ad_time_secondsf             =   7.2000000000000E+03
(PID.TID 0000.0001) %MON ad_dynstat_adeta_max         =   3.8849427571098E+09
(PID.TID 0000.0001) %MON ad_dynstat_adeta_min         =  -4.4777915339658E+09
(PID.TID 0000.0001) %MON ad_dynstat_adeta_mean        =  -1.4161694167632E+07
(PID.TID 0000.0001) %MON ad_dynstat_adeta_sd          =   5.6644171440145E+08
(PID.TID 0000.0001) %MON ad_dynstat_adeta_del2        =   1.6869656735662E+08
(PID.TID 0000.0001) %MON ad_dynstat_aduvel_max        =   1.2392354802865E+10
(PID.TID 0000.0001) %MON ad_dynstat_aduvel_min        =  -3.3876684894957E+09
(PID.TID 0000.0001) %MON ad_dynstat_aduvel_mean       =  -1.1487211004392E+08
(PID.TID 0000.0001) %MON ad_dynstat_aduvel_sd         =   1.2308939408589E+08
(PID.TID 0000.0001) %MON ad_dynstat_aduvel_del2       =   1.6633913900119E+07
(PID.TID 0000.0001) %MON ad_dynstat_advvel_max        =   3.1185305242775E+09
(PID.TID 0000.0001) %MON ad_dynstat_advvel_min        =  -2.7908825990698E+09
(PID.TID 0000.0001) %MON ad_dynstat_advvel_mean       =   1.8976750002188E+07
(PID.TID 0000.0001) %MON ad_dynstat_advvel_sd         =   4.3581338673947E+07
(PID.TID 0000.0001) %MON ad_dynstat_advvel_del2       =   9.3012836859392E+06
(PID.TID 0000.0001) %MON ad_dynstat_adwvel_max        =   1.9297126927454E+12
(PID.TID 0000.0001) %MON ad_dynstat_adwvel_min        =  -3.8345802240680E+12
(PID.TID 0000.0001) %MON ad_dynstat_adwvel_mean       =  -9.3877398159228E+09
(PID.TID 0000.0001) %MON ad_dynstat_adwvel_sd         =   1.5882687938003E+11
(PID.TID 0000.0001) %MON ad_dynstat_adwvel_del2       =   1.5799657695059E+10
(PID.TID 0000.0001) %MON ad_dynstat_adtheta_max       =   4.4659923643166E+07
(PID.TID 0000.0001) %MON ad_dynstat_adtheta_min       =  -3.5030546533880E+09
(PID.TID 0000.0001) %MON ad_dynstat_adtheta_mean      =  -8.9598489542351E+06
(PID.TID 0000.0001) %MON ad_dynstat_adtheta_sd        =   1.5743448820529E+08
(PID.TID 0000.0001) %MON ad_dynstat_adtheta_del2      =   1.2440224124850E+07
(PID.TID 0000.0001) %MON ad_dynstat_adsalt_max        =   3.0623196414157E+08
(PID.TID 0000.0001) %MON ad_dynstat_adsalt_min        =  -2.5506659616838E+08
(PID.TID 0000.0001) %MON ad_dynstat_adsalt_mean       =  -3.5715662464898E+06
(PID.TID 0000.0001) %MON ad_dynstat_adsalt_sd         =   7.9925603680060E+07
(PID.TID 0000.0001) %MON ad_dynstat_adsalt_del2       =   1.1479358218882E+07
(PID.TID 0000.0001) %MON ad_dynstat_adsst_max         =   8.7307635300683E+06
(PID.TID 0000.0001) %MON ad_dynstat_adsst_min         =  -3.5030546533880E+09
(PID.TID 0000.0001) %MON ad_dynstat_adsst_mean        =  -1.4422368330870E+09
(PID.TID 0000.0001) %MON ad_dynstat_adsst_sd          =   1.2621858289794E+09
(PID.TID 0000.0001) %MON ad_dynstat_adsst_del2        =   1.3131251152948E+08
(PID.TID 0000.0001) %MON ad_dynstat_adsss_max         =   9.5504814792489E+06
(PID.TID 0000.0001) %MON ad_dynstat_adsss_min         =  -1.4808794824285E+07
(PID.TID 0000.0001) %MON ad_dynstat_adsss_mean        =  -7.4155663163239E+05
(PID.TID 0000.0001) %MON ad_dynstat_adsss_sd          =   3.1074535920904E+06
(PID.TID 0000.0001) %MON ad_dynstat_adsss_del2        =   1.0350750259447E+06
(PID.TID 0000.0001) %MON ad_extforcing_adqnet_max     =   0.0000000000000E+00
(PID.TID 0000.0001) %MON ad_extforcing_adqnet_min     =   0.0000000000000E+00
(PID.TID 0000.0001) %MON ad_extforcing_adqnet_mean    =   0.0000000000000E+00
(PID.TID 0000.0001) %MON ad_extforcing_adqnet_sd      =   0.0000000000000E+00
(PID.TID 0000.0001) %MON ad_extforcing_adqnet_del2    =   0.0000000000000E+00
(PID.TID 0000.0001) %MON ad_extforcing_adqsw_max      =   0.0000000000000E+00
(PID.TID 0000.0001) %MON ad_extforcing_adqsw_min      =   0.0000000000000E+00
(PID.TID 0000.0001) %MON ad_extforcing_adqsw_mean     =   0.0000000000000E+00
(PID.TID 0000.0001) %MON ad_extforcing_adqsw_sd       =   0.0000000000000E+00
(PID.TID 0000.0001) %MON ad_extforcing_adqsw_del2     =   0.0000000000000E+00
(PID.TID 0000.0001) %MON ad_extforcing_adempmr_max    =   0.0000000000000E+00
(PID.TID 0000.0001) %MON ad_extforcing_adempmr_min    =   0.0000000000000E+00
(PID.TID 0000.0001) %MON ad_extforcing_adempmr_mean   =   0.0000000000000E+00
(PID.TID 0000.0001) %MON ad_extforcing_adempmr_sd     =   0.0000000000000E+00
(PID.TID 0000.0001) %MON ad_extforcing_adempmr_del2   =   0.0000000000000E+00
(PID.TID 0000.0001) %MON ad_extforcing_adfu_max       =   0.0000000000000E+00
(PID.TID 0000.0001) %MON ad_extforcing_adfu_min       =   0.0000000000000E+00
(PID.TID 0000.0001) %MON ad_extforcing_adfu_mean      =   0.0000000000000E+00
(PID.TID 0000.0001) %MON ad_extforcing_adfu_sd        =   0.0000000000000E+00
(PID.TID 0000.0001) %MON ad_extforcing_adfu_del2      =   0.0000000000000E+00
(PID.TID 0000.0001) %MON ad_extforcing_adfv_max       =   0.0000000000000E+00
(PID.TID 0000.0001) %MON ad_extforcing_adfv_min       =   0.0000000000000E+00
(PID.TID 0000.0001) %MON ad_extforcing_adfv_mean      =   0.0000000000000E+00
(PID.TID 0000.0001) %MON ad_extforcing_adfv_sd        =   0.0000000000000E+00
(PID.TID 0000.0001) %MON ad_extforcing_adfv_del2      =   0.0000000000000E+00
(PID.TID 0000.0001) %MON ad_advcfl_aduvel_max         =   7.7507751998786E+08
(PID.TID 0000.0001) %MON ad_advcfl_advvel_max         =   5.0482113825598E+07
(PID.TID 0000.0001) %MON ad_advcfl_adwvel_max         =   1.3804488806645E+15
(PID.TID 0000.0001) %MON ad_advcfl_adW_hf_max         =   2.7608977613290E+15
(PID.TID 0000.0001) // =======================================================
(PID.TID 0000.0001) // End MONITOR dynamic field statistics
(PID.TID 0000.0001) // =======================================================
 cg2d: Sum(rhs),rhsMax =   4.55138557701670E-10  6.27223604311092E+05
(PID.TID 0000.0001) // =======================================================
(PID.TID 0000.0001) // Begin MONITOR EXF statistics
(PID.TID 0000.0001) // =======================================================
(PID.TID 0000.0001) %MON exf_tsnumber                 =                     1
(PID.TID 0000.0001) %MON exf_time_sec                 =   3.6000000000000E+03
(PID.TID 0000.0001) %MON exf_ustress_max              =   5.2215336216899E-02
(PID.TID 0000.0001) %MON exf_ustress_min              =  -9.3781516255246E-02
(PID.TID 0000.0001) %MON exf_ustress_mean             =   1.7908664813945E-02
(PID.TID 0000.0001) %MON exf_ustress_sd               =   2.3677824520119E-02
(PID.TID 0000.0001) %MON exf_ustress_del2             =   2.8185945121624E-03
(PID.TID 0000.0001) %MON exf_vstress_max              =   5.3823846971061E-02
(PID.TID 0000.0001) %MON exf_vstress_min              =  -5.8521115502029E-02
(PID.TID 0000.0001) %MON exf_vstress_mean             =  -5.4709257304531E-03
(PID.TID 0000.0001) %MON exf_vstress_sd               =   1.4440702294892E-02
(PID.TID 0000.0001) %MON exf_vstress_del2             =   1.6942466375470E-03
(PID.TID 0000.0001) %MON exf_hflux_max                =   6.2467472133264E+02
(PID.TID 0000.0001) %MON exf_hflux_min                =  -5.4116825759641E+01
(PID.TID 0000.0001) %MON exf_hflux_mean               =   1.4693364847073E+02
(PID.TID 0000.0001) %MON exf_hflux_sd                 =   1.8156698860139E+02
(PID.TID 0000.0001) %MON exf_hflux_del2               =   1.6567547708346E+01
(PID.TID 0000.0001) %MON exf_sflux_max                =   3.9008935708334E-08
(PID.TID 0000.0001) %MON exf_sflux_min                =  -8.8902774357601E-08
(PID.TID 0000.0001) %MON exf_sflux_mean               =  -2.5876940685263E-08
(PID.TID 0000.0001) %MON exf_sflux_sd                 =   3.0537598406995E-08
(PID.TID 0000.0001) %MON exf_sflux_del2               =   3.1605976719929E-09
(PID.TID 0000.0001) %MON exf_uwind_max                =   6.4648819946852E+00
(PID.TID 0000.0001) %MON exf_uwind_min                =  -6.8372648550513E+00
(PID.TID 0000.0001) %MON exf_uwind_mean               =   2.7698802859476E+00
(PID.TID 0000.0001) %MON exf_uwind_sd                 =   2.9903162155877E+00
(PID.TID 0000.0001) %MON exf_uwind_del2               =   3.1571785161521E-01
(PID.TID 0000.0001) %MON exf_vwind_max                =   3.9240983933048E+00
(PID.TID 0000.0001) %MON exf_vwind_min                =  -6.0187974783892E+00
(PID.TID 0000.0001) %MON exf_vwind_mean               =  -7.6028090815952E-01
(PID.TID 0000.0001) %MON exf_vwind_sd                 =   1.7294518007626E+00
(PID.TID 0000.0001) %MON exf_vwind_del2               =   1.9332576748242E-01
(PID.TID 0000.0001) %MON exf_wspeed_max               =   7.8833202965791E+00
(PID.TID 0000.0001) %MON exf_wspeed_min               =   4.6010935417159E-01
(PID.TID 0000.0001) %MON exf_wspeed_mean              =   4.1982241536133E+00
(PID.TID 0000.0001) %MON exf_wspeed_sd                =   1.5994287774633E+00
(PID.TID 0000.0001) %MON exf_wspeed_del2              =   3.7699000842292E-01
(PID.TID 0000.0001) %MON exf_atemp_max                =   2.8188110034713E+02
(PID.TID 0000.0001) %MON exf_atemp_min                =   2.3645730413635E+02
(PID.TID 0000.0001) %MON exf_atemp_mean               =   2.6394141375606E+02
(PID.TID 0000.0001) %MON exf_atemp_sd                 =   1.1984878226631E+01
(PID.TID 0000.0001) %MON exf_atemp_del2               =   6.4944209295109E-01
(PID.TID 0000.0001) %MON exf_aqh_max                  =   6.3224764028055E-03
(PID.TID 0000.0001) %MON exf_aqh_min                  =   1.6359864467567E-04
(PID.TID 0000.0001) %MON exf_aqh_mean                 =   2.4798025537840E-03
(PID.TID 0000.0001) %MON exf_aqh_sd                   =   1.4264043737180E-03
(PID.TID 0000.0001) %MON exf_aqh_del2                 =   6.8128113038494E-05
(PID.TID 0000.0001) %MON exf_lwflux_max               =   1.8380784776361E+02
(PID.TID 0000.0001) %MON exf_lwflux_min               =   2.6472644798215E+01
(PID.TID 0000.0001) %MON exf_lwflux_mean              =   7.5350572632925E+01
(PID.TID 0000.0001) %MON exf_lwflux_sd                =   4.3134595524386E+01
(PID.TID 0000.0001) %MON exf_lwflux_del2              =   3.2390977067912E+00
(PID.TID 0000.0001) %MON exf_precip_max               =   1.0498904445033E-07
(PID.TID 0000.0001) %MON exf_precip_min               =   2.7346106047101E-10
(PID.TID 0000.0001) %MON exf_precip_mean              =   3.6390069699050E-08
(PID.TID 0000.0001) %MON exf_precip_sd                =   2.0578598603627E-08
(PID.TID 0000.0001) %MON exf_precip_del2              =   2.5556826789328E-09
(PID.TID 0000.0001) %MON exf_snowprecip_max           =   0.0000000000000E+00
(PID.TID 0000.0001) %MON exf_snowprecip_min           =   0.0000000000000E+00
(PID.TID 0000.0001) %MON exf_snowprecip_mean          =   0.0000000000000E+00
(PID.TID 0000.0001) %MON exf_snowprecip_sd            =   0.0000000000000E+00
(PID.TID 0000.0001) %MON exf_snowprecip_del2          =   0.0000000000000E+00
(PID.TID 0000.0001) %MON exf_swflux_max               =  -8.1206038349965E-02
(PID.TID 0000.0001) %MON exf_swflux_min               =  -6.3991984364244E+01
(PID.TID 0000.0001) %MON exf_swflux_mean              =  -2.6463755238823E+01
(PID.TID 0000.0001) %MON exf_swflux_sd                =   1.9629736696482E+01
(PID.TID 0000.0001) %MON exf_swflux_del2              =   4.7911963949881E-01
(PID.TID 0000.0001) %MON exf_evap_max                 =   4.5332480821497E-08
(PID.TID 0000.0001) %MON exf_evap_min                 =  -4.7524365011618E-09
(PID.TID 0000.0001) %MON exf_evap_mean                =   1.0513129013787E-08
(PID.TID 0000.0001) %MON exf_evap_sd                  =   1.1274583021708E-08
(PID.TID 0000.0001) %MON exf_evap_del2                =   1.3716110068495E-09
(PID.TID 0000.0001) %MON exf_swdown_max               =   7.1102204849160E+01
(PID.TID 0000.0001) %MON exf_swdown_min               =   9.0228931499961E-02
(PID.TID 0000.0001) %MON exf_swdown_mean              =   2.9404172487581E+01
(PID.TID 0000.0001) %MON exf_swdown_sd                =   2.1810818551646E+01
(PID.TID 0000.0001) %MON exf_swdown_del2              =   5.3235515499868E-01
(PID.TID 0000.0001) %MON exf_lwdown_max               =   3.0567089193375E+02
(PID.TID 0000.0001) %MON exf_lwdown_min               =   1.1598258522951E+02
(PID.TID 0000.0001) %MON exf_lwdown_mean              =   2.2593360963007E+02
(PID.TID 0000.0001) %MON exf_lwdown_sd                =   4.6281398610271E+01
(PID.TID 0000.0001) %MON exf_lwdown_del2              =   3.2438329367646E+00
(PID.TID 0000.0001) %MON exf_apressure_max            =   0.0000000000000E+00
(PID.TID 0000.0001) %MON exf_apressure_min            =   0.0000000000000E+00
(PID.TID 0000.0001) %MON exf_apressure_mean           =   0.0000000000000E+00
(PID.TID 0000.0001) %MON exf_apressure_sd             =   0.0000000000000E+00
(PID.TID 0000.0001) %MON exf_apressure_del2           =   0.0000000000000E+00
(PID.TID 0000.0001) %MON exf_runoff_max               =   0.0000000000000E+00
(PID.TID 0000.0001) %MON exf_runoff_min               =   0.0000000000000E+00
(PID.TID 0000.0001) %MON exf_runoff_mean              =   0.0000000000000E+00
(PID.TID 0000.0001) %MON exf_runoff_sd                =   0.0000000000000E+00
(PID.TID 0000.0001) %MON exf_runoff_del2              =   0.0000000000000E+00
(PID.TID 0000.0001) %MON exf_climsst_max              =   0.0000000000000E+00
(PID.TID 0000.0001) %MON exf_climsst_min              =   0.0000000000000E+00
(PID.TID 0000.0001) %MON exf_climsst_mean             =   0.0000000000000E+00
(PID.TID 0000.0001) %MON exf_climsst_sd               =   0.0000000000000E+00
(PID.TID 0000.0001) %MON exf_climsst_del2             =   0.0000000000000E+00
(PID.TID 0000.0001) %MON exf_climsss_max              =   3.5040515633880E+01
(PID.TID 0000.0001) %MON exf_climsss_min              =   3.0667072499385E+01
(PID.TID 0000.0001) %MON exf_climsss_mean             =   3.3459840934468E+01
(PID.TID 0000.0001) %MON exf_climsss_sd               =   1.0318832207269E+00
(PID.TID 0000.0001) %MON exf_climsss_del2             =   1.0017673217099E-01
(PID.TID 0000.0001) // =======================================================
(PID.TID 0000.0001) // End MONITOR EXF statistics
(PID.TID 0000.0001) // =======================================================
(PID.TID 0000.0001)  MDS_READ_FIELD: opening file: xx_atemp.0000000000.001.001.data
(PID.TID 0000.0001)  MDS_READ_FIELD: opening file: xx_atemp.0000000000.001.001.data
(PID.TID 0000.0001)  MDS_READ_FIELD: opening file: xx_aqh.0000000000.001.001.data
(PID.TID 0000.0001)  MDS_READ_FIELD: opening file: xx_aqh.0000000000.001.001.data
(PID.TID 0000.0001)  MDS_READ_FIELD: opening file: xx_precip.0000000000.001.001.data
(PID.TID 0000.0001)  MDS_READ_FIELD: opening file: xx_precip.0000000000.001.001.data
(PID.TID 0000.0001)  MDS_READ_FIELD: opening file: xx_swdown.0000000000.001.001.data
(PID.TID 0000.0001)  MDS_READ_FIELD: opening file: xx_swdown.0000000000.001.001.data
(PID.TID 0000.0001)  MDS_READ_FIELD: opening file: xx_lwdown.0000000000.001.001.data
(PID.TID 0000.0001)  MDS_READ_FIELD: opening file: xx_lwdown.0000000000.001.001.data
(PID.TID 0000.0001)  MDS_READ_FIELD: opening file: xx_snowprecip.0000000000.001.001.data
(PID.TID 0000.0001)  MDS_READ_FIELD: opening file: xx_snowprecip.0000000000.001.001.data
(PID.TID 0000.0001)  MDS_READ_FIELD: opening file: xx_apressure.0000000000.001.001.data
(PID.TID 0000.0001)  MDS_READ_FIELD: opening file: xx_apressure.0000000000.001.001.data
(PID.TID 0000.0001)  MDS_READ_FIELD: opening file: xx_uwind.0000000000.001.001.data
(PID.TID 0000.0001)  MDS_READ_FIELD: opening file: xx_uwind.0000000000.001.001.data
(PID.TID 0000.0001)  MDS_READ_FIELD: opening file: xx_vwind.0000000000.001.001.data
(PID.TID 0000.0001)  MDS_READ_FIELD: opening file: xx_vwind.0000000000.001.001.data
(PID.TID 0000.0001) // =======================================================
(PID.TID 0000.0001) // Begin MONITOR EXF statistics
(PID.TID 0000.0001) // =======================================================
(PID.TID 0000.0001) %MON exf_tsnumber                 =                     0
(PID.TID 0000.0001) %MON exf_time_sec                 =   0.0000000000000E+00
(PID.TID 0000.0001) %MON exf_ustress_max              =   6.3903775845771E-02
(PID.TID 0000.0001) %MON exf_ustress_min              =  -9.5324050318348E-02
(PID.TID 0000.0001) %MON exf_ustress_mean             =   2.2585162028781E-02
(PID.TID 0000.0001) %MON exf_ustress_sd               =   2.7275779997355E-02
(PID.TID 0000.0001) %MON exf_ustress_del2             =   2.9464928316532E-03
(PID.TID 0000.0001) %MON exf_vstress_max              =   5.4708944127586E-02
(PID.TID 0000.0001) %MON exf_vstress_min              =  -6.2488440618747E-02
(PID.TID 0000.0001) %MON exf_vstress_mean             =  -5.6174743223315E-03
(PID.TID 0000.0001) %MON exf_vstress_sd               =   1.5596129749990E-02
(PID.TID 0000.0001) %MON exf_vstress_del2             =   1.7930354012150E-03
(PID.TID 0000.0001) %MON exf_hflux_max                =   7.3111020636161E+02
(PID.TID 0000.0001) %MON exf_hflux_min                =   1.0991726570245E+02
(PID.TID 0000.0001) %MON exf_hflux_mean               =   2.7655955077737E+02
(PID.TID 0000.0001) %MON exf_hflux_sd                 =   1.5872019352493E+02
(PID.TID 0000.0001) %MON exf_hflux_del2               =   1.9324680413847E+01
(PID.TID 0000.0001) %MON exf_sflux_max                =   5.3473262221640E-08
(PID.TID 0000.0001) %MON exf_sflux_min                =  -6.1385296755754E-08
(PID.TID 0000.0001) %MON exf_sflux_mean               =  -7.3062646151542E-09
(PID.TID 0000.0001) %MON exf_sflux_sd                 =   2.6562207566842E-08
(PID.TID 0000.0001) %MON exf_sflux_del2               =   3.6392856083892E-09
(PID.TID 0000.0001) %MON exf_uwind_max                =   6.4643745422363E+00
(PID.TID 0000.0001) %MON exf_uwind_min                =  -6.8372380733490E+00
(PID.TID 0000.0001) %MON exf_uwind_mean               =   2.7697727336031E+00
(PID.TID 0000.0001) %MON exf_uwind_sd                 =   2.9900402496951E+00
(PID.TID 0000.0001) %MON exf_uwind_del2               =   3.1570994739265E-01
(PID.TID 0000.0001) %MON exf_vwind_max                =   3.9240682125092E+00
(PID.TID 0000.0001) %MON exf_vwind_min                =  -6.0197033882141E+00
(PID.TID 0000.0001) %MON exf_vwind_mean               =  -7.6089868124963E-01
(PID.TID 0000.0001) %MON exf_vwind_sd                 =   1.7293437592941E+00
(PID.TID 0000.0001) %MON exf_vwind_del2               =   1.9333263882436E-01
(PID.TID 0000.0001) %MON exf_wspeed_max               =   7.8832820454477E+00
(PID.TID 0000.0001) %MON exf_wspeed_min               =   4.6035219539401E-01
(PID.TID 0000.0001) %MON exf_wspeed_mean              =   4.1981217095273E+00
(PID.TID 0000.0001) %MON exf_wspeed_sd                =   1.5991724245810E+00
(PID.TID 0000.0001) %MON exf_wspeed_del2              =   3.7693667977018E-01
(PID.TID 0000.0001) %MON exf_atemp_max                =   2.8188281250000E+02
(PID.TID 0000.0001) %MON exf_atemp_min                =   2.3646176910400E+02
(PID.TID 0000.0001) %MON exf_atemp_mean               =   2.6394605784141E+02
(PID.TID 0000.0001) %MON exf_atemp_sd                 =   1.1983417694612E+01
(PID.TID 0000.0001) %MON exf_atemp_del2               =   6.4942276000977E-01
(PID.TID 0000.0001) %MON exf_aqh_max                  =   6.3231729436666E-03
(PID.TID 0000.0001) %MON exf_aqh_min                  =   1.6369274817407E-04
(PID.TID 0000.0001) %MON exf_aqh_mean                 =   2.4803629101886E-03
(PID.TID 0000.0001) %MON exf_aqh_sd                   =   1.4265074770275E-03
(PID.TID 0000.0001) %MON exf_aqh_del2                 =   6.8141780599641E-05
(PID.TID 0000.0001) %MON exf_lwflux_max               =   1.9978966060501E+02
(PID.TID 0000.0001) %MON exf_lwflux_min               =   6.3304595803996E+01
(PID.TID 0000.0001) %MON exf_lwflux_mean              =   1.0410079899302E+02
(PID.TID 0000.0001) %MON exf_lwflux_sd                =   3.6519264181786E+01
(PID.TID 0000.0001) %MON exf_lwflux_del2              =   3.1286635970398E+00
(PID.TID 0000.0001) %MON exf_precip_max               =   1.0498766300771E-07
(PID.TID 0000.0001) %MON exf_precip_min               =   2.7359498694368E-10
(PID.TID 0000.0001) %MON exf_precip_mean              =   3.6390080543085E-08
(PID.TID 0000.0001) %MON exf_precip_sd                =   2.0578148171209E-08
(PID.TID 0000.0001) %MON exf_precip_del2              =   2.5551549857431E-09
(PID.TID 0000.0001) %MON exf_snowprecip_max           =   0.0000000000000E+00
(PID.TID 0000.0001) %MON exf_snowprecip_min           =   0.0000000000000E+00
(PID.TID 0000.0001) %MON exf_snowprecip_mean          =   0.0000000000000E+00
(PID.TID 0000.0001) %MON exf_snowprecip_sd            =   0.0000000000000E+00
(PID.TID 0000.0001) %MON exf_snowprecip_del2          =   0.0000000000000E+00
(PID.TID 0000.0001) %MON exf_swflux_max               =  -8.1205755472183E-02
(PID.TID 0000.0001) %MON exf_swflux_min               =  -6.3973114013672E+01
(PID.TID 0000.0001) %MON exf_swflux_mean              =  -2.6453223022948E+01
(PID.TID 0000.0001) %MON exf_swflux_sd                =   1.9625901079469E+01
(PID.TID 0000.0001) %MON exf_swflux_del2              =   4.7901276555285E-01
(PID.TID 0000.0001) %MON exf_evap_max                 =   5.9797470045733E-08
(PID.TID 0000.0001) %MON exf_evap_min                 =   1.0729148721654E-08
(PID.TID 0000.0001) %MON exf_evap_mean                =   2.9083815927930E-08
(PID.TID 0000.0001) %MON exf_evap_sd                  =   9.2938020844541E-09
(PID.TID 0000.0001) %MON exf_evap_del2                =   2.0154590676424E-09
(PID.TID 0000.0001) %MON exf_swdown_max               =   7.1081237792969E+01
(PID.TID 0000.0001) %MON exf_swdown_min               =   9.0228617191315E-02
(PID.TID 0000.0001) %MON exf_swdown_mean              =   2.9392470025498E+01
(PID.TID 0000.0001) %MON exf_swdown_sd                =   2.1806556754965E+01
(PID.TID 0000.0001) %MON exf_swdown_del2              =   5.3223640616983E-01
(PID.TID 0000.0001) %MON exf_lwdown_max               =   3.0567971801758E+02
(PID.TID 0000.0001) %MON exf_lwdown_min               =   1.1599769210815E+02
(PID.TID 0000.0001) %MON exf_lwdown_mean              =   2.2594931695913E+02
(PID.TID 0000.0001) %MON exf_lwdown_sd                =   4.6277429231296E+01
(PID.TID 0000.0001) %MON exf_lwdown_del2              =   3.2438212966919E+00
(PID.TID 0000.0001) %MON exf_apressure_max            =   0.0000000000000E+00
(PID.TID 0000.0001) %MON exf_apressure_min            =   0.0000000000000E+00
(PID.TID 0000.0001) %MON exf_apressure_mean           =   0.0000000000000E+00
(PID.TID 0000.0001) %MON exf_apressure_sd             =   0.0000000000000E+00
(PID.TID 0000.0001) %MON exf_apressure_del2           =   0.0000000000000E+00
(PID.TID 0000.0001) %MON exf_runoff_max               =   0.0000000000000E+00
(PID.TID 0000.0001) %MON exf_runoff_min               =   0.0000000000000E+00
(PID.TID 0000.0001) %MON exf_runoff_mean              =   0.0000000000000E+00
(PID.TID 0000.0001) %MON exf_runoff_sd                =   0.0000000000000E+00
(PID.TID 0000.0001) %MON exf_runoff_del2              =   0.0000000000000E+00
(PID.TID 0000.0001) %MON exf_climsst_max              =   0.0000000000000E+00
(PID.TID 0000.0001) %MON exf_climsst_min              =   0.0000000000000E+00
(PID.TID 0000.0001) %MON exf_climsst_mean             =   0.0000000000000E+00
(PID.TID 0000.0001) %MON exf_climsst_sd               =   0.0000000000000E+00
(PID.TID 0000.0001) %MON exf_climsst_del2             =   0.0000000000000E+00
(PID.TID 0000.0001) %MON exf_climsss_max              =   3.5040330886841E+01
(PID.TID 0000.0001) %MON exf_climsss_min              =   3.0666313171387E+01
(PID.TID 0000.0001) %MON exf_climsss_mean             =   3.3459319600989E+01
(PID.TID 0000.0001) %MON exf_climsss_sd               =   1.0319548925494E+00
(PID.TID 0000.0001) %MON exf_climsss_del2             =   1.0019396146139E-01
(PID.TID 0000.0001) // =======================================================
(PID.TID 0000.0001) // End MONITOR EXF statistics
(PID.TID 0000.0001) // =======================================================
 ph-ice B  0  0.  0.  0.
 ph-ice C  0  5.30354909E+10
(PID.TID 0000.0001) // =======================================================
(PID.TID 0000.0001) // Begin MONITOR dynamic field statistics
(PID.TID 0000.0001) // =======================================================
(PID.TID 0000.0001) %MON ad_time_tsnumber             =                     1
(PID.TID 0000.0001) %MON ad_time_secondsf             =   3.6000000000000E+03
(PID.TID 0000.0001) %MON ad_dynstat_adeta_max         =   3.9843220068185E+17
(PID.TID 0000.0001) %MON ad_dynstat_adeta_min         =  -4.3929396933204E+17
(PID.TID 0000.0001) %MON ad_dynstat_adeta_mean        =   6.2069410043708E+12
(PID.TID 0000.0001) %MON ad_dynstat_adeta_sd          =   3.3924117220190E+16
(PID.TID 0000.0001) %MON ad_dynstat_adeta_del2        =   8.8351728456702E+15
(PID.TID 0000.0001) %MON ad_dynstat_aduvel_max        =   9.3361118132934E+17
(PID.TID 0000.0001) %MON ad_dynstat_aduvel_min        =  -1.6661757772890E+17
(PID.TID 0000.0001) %MON ad_dynstat_aduvel_mean       =   2.2049424595534E+13
(PID.TID 0000.0001) %MON ad_dynstat_aduvel_sd         =   5.0755413598759E+15
(PID.TID 0000.0001) %MON ad_dynstat_aduvel_del2       =   1.0525865580608E+15
(PID.TID 0000.0001) %MON ad_dynstat_advvel_max        =   1.2636837947938E+17
(PID.TID 0000.0001) %MON ad_dynstat_advvel_min        =  -3.0907679157033E+16
(PID.TID 0000.0001) %MON ad_dynstat_advvel_mean       =   2.8563116568897E+12
(PID.TID 0000.0001) %MON ad_dynstat_advvel_sd         =   9.9979074987612E+14
(PID.TID 0000.0001) %MON ad_dynstat_advvel_del2       =   1.8210674156378E+14
(PID.TID 0000.0001) %MON ad_dynstat_adwvel_max        =   1.1039625224007E+10
(PID.TID 0000.0001) %MON ad_dynstat_adwvel_min        =  -4.3297956470501E+12
(PID.TID 0000.0001) %MON ad_dynstat_adwvel_mean       =  -1.0673616452007E+10
(PID.TID 0000.0001) %MON ad_dynstat_adwvel_sd         =   1.7854424927508E+11
(PID.TID 0000.0001) %MON ad_dynstat_adwvel_del2       =   1.6622473728721E+10
(PID.TID 0000.0001) %MON ad_dynstat_adtheta_max       =   1.3892134480770E+09
(PID.TID 0000.0001) %MON ad_dynstat_adtheta_min       =  -3.9293778335769E+09
(PID.TID 0000.0001) %MON ad_dynstat_adtheta_mean      =  -9.0869322165554E+06
(PID.TID 0000.0001) %MON ad_dynstat_adtheta_sd        =   1.7055921986339E+08
(PID.TID 0000.0001) %MON ad_dynstat_adtheta_del2      =   1.7006627798115E+07
(PID.TID 0000.0001) %MON ad_dynstat_adsalt_max        =   4.9691906734873E+08
(PID.TID 0000.0001) %MON ad_dynstat_adsalt_min        =  -3.8663983576239E+08
(PID.TID 0000.0001) %MON ad_dynstat_adsalt_mean       =  -4.3279216728424E+06
(PID.TID 0000.0001) %MON ad_dynstat_adsalt_sd         =   9.6225476041835E+07
(PID.TID 0000.0001) %MON ad_dynstat_adsalt_del2       =   1.8460726190077E+07
(PID.TID 0000.0001) %MON ad_dynstat_adsst_max         =   1.3892134480770E+09
(PID.TID 0000.0001) %MON ad_dynstat_adsst_min         =  -3.9293778335769E+09
(PID.TID 0000.0001) %MON ad_dynstat_adsst_mean        =  -1.4802358515433E+09
(PID.TID 0000.0001) %MON ad_dynstat_adsst_sd          =   1.4528795393165E+09
(PID.TID 0000.0001) %MON ad_dynstat_adsst_del2        =   1.8023550457442E+08
(PID.TID 0000.0001) %MON ad_dynstat_adsss_max         =   1.0914223643966E+08
(PID.TID 0000.0001) %MON ad_dynstat_adsss_min         =  -3.6492240979739E+08
(PID.TID 0000.0001) %MON ad_dynstat_adsss_mean        =  -2.7679433579051E+06
(PID.TID 0000.0001) %MON ad_dynstat_adsss_sd          =   2.6497094826817E+07
(PID.TID 0000.0001) %MON ad_dynstat_adsss_del2        =   5.9268973089884E+06
(PID.TID 0000.0001) %MON ad_extforcing_adqnet_max     =   0.0000000000000E+00
(PID.TID 0000.0001) %MON ad_extforcing_adqnet_min     =   0.0000000000000E+00
(PID.TID 0000.0001) %MON ad_extforcing_adqnet_mean    =   0.0000000000000E+00
(PID.TID 0000.0001) %MON ad_extforcing_adqnet_sd      =   0.0000000000000E+00
(PID.TID 0000.0001) %MON ad_extforcing_adqnet_del2    =   0.0000000000000E+00
(PID.TID 0000.0001) %MON ad_extforcing_adqsw_max      =   0.0000000000000E+00
(PID.TID 0000.0001) %MON ad_extforcing_adqsw_min      =   0.0000000000000E+00
(PID.TID 0000.0001) %MON ad_extforcing_adqsw_mean     =   0.0000000000000E+00
(PID.TID 0000.0001) %MON ad_extforcing_adqsw_sd       =   0.0000000000000E+00
(PID.TID 0000.0001) %MON ad_extforcing_adqsw_del2     =   0.0000000000000E+00
(PID.TID 0000.0001) %MON ad_extforcing_adempmr_max    =   0.0000000000000E+00
(PID.TID 0000.0001) %MON ad_extforcing_adempmr_min    =   0.0000000000000E+00
(PID.TID 0000.0001) %MON ad_extforcing_adempmr_mean   =   0.0000000000000E+00
(PID.TID 0000.0001) %MON ad_extforcing_adempmr_sd     =   0.0000000000000E+00
(PID.TID 0000.0001) %MON ad_extforcing_adempmr_del2   =   0.0000000000000E+00
(PID.TID 0000.0001) %MON ad_extforcing_adfu_max       =   0.0000000000000E+00
(PID.TID 0000.0001) %MON ad_extforcing_adfu_min       =   0.0000000000000E+00
(PID.TID 0000.0001) %MON ad_extforcing_adfu_mean      =   0.0000000000000E+00
(PID.TID 0000.0001) %MON ad_extforcing_adfu_sd        =   0.0000000000000E+00
(PID.TID 0000.0001) %MON ad_extforcing_adfu_del2      =   0.0000000000000E+00
(PID.TID 0000.0001) %MON ad_extforcing_adfv_max       =   0.0000000000000E+00
(PID.TID 0000.0001) %MON ad_extforcing_adfv_min       =   0.0000000000000E+00
(PID.TID 0000.0001) %MON ad_extforcing_adfv_mean      =   0.0000000000000E+00
(PID.TID 0000.0001) %MON ad_extforcing_adfv_sd        =   0.0000000000000E+00
(PID.TID 0000.0001) %MON ad_extforcing_adfv_del2      =   0.0000000000000E+00
(PID.TID 0000.0001) %MON ad_advcfl_aduvel_max         =   6.7183951496578E+16
(PID.TID 0000.0001) %MON ad_advcfl_advvel_max         =   2.0456246514734E+15
(PID.TID 0000.0001) %MON ad_advcfl_adwvel_max         =   1.5587264329380E+15
(PID.TID 0000.0001) %MON ad_advcfl_adW_hf_max         =   3.1174528658761E+15
(PID.TID 0000.0001) // =======================================================
(PID.TID 0000.0001) // End MONITOR dynamic field statistics
(PID.TID 0000.0001) // =======================================================
 cg2d: Sum(rhs),rhsMax =   1.38777878078145E-16  1.92154545787720E+13
(PID.TID 0000.0001)  MDS_READ_FIELD: opening file: xx_atemp.0000000000.001.001.data
(PID.TID 0000.0001)  MDS_READ_FIELD: opening file: xx_atemp.0000000000.001.001.data
(PID.TID 0000.0001)  MDS_READ_FIELD: opening file: xx_aqh.0000000000.001.001.data
(PID.TID 0000.0001)  MDS_READ_FIELD: opening file: xx_aqh.0000000000.001.001.data
(PID.TID 0000.0001)  MDS_READ_FIELD: opening file: xx_precip.0000000000.001.001.data
(PID.TID 0000.0001)  MDS_READ_FIELD: opening file: xx_precip.0000000000.001.001.data
(PID.TID 0000.0001)  MDS_READ_FIELD: opening file: xx_swdown.0000000000.001.001.data
(PID.TID 0000.0001)  MDS_READ_FIELD: opening file: xx_swdown.0000000000.001.001.data
(PID.TID 0000.0001)  MDS_READ_FIELD: opening file: xx_lwdown.0000000000.001.001.data
(PID.TID 0000.0001)  MDS_READ_FIELD: opening file: xx_lwdown.0000000000.001.001.data
(PID.TID 0000.0001)  MDS_READ_FIELD: opening file: xx_snowprecip.0000000000.001.001.data
(PID.TID 0000.0001)  MDS_READ_FIELD: opening file: xx_snowprecip.0000000000.001.001.data
(PID.TID 0000.0001)  MDS_READ_FIELD: opening file: xx_apressure.0000000000.001.001.data
(PID.TID 0000.0001)  MDS_READ_FIELD: opening file: xx_apressure.0000000000.001.001.data
(PID.TID 0000.0001)  MDS_READ_FIELD: opening file: xx_uwind.0000000000.001.001.data
(PID.TID 0000.0001)  MDS_READ_FIELD: opening file: xx_uwind.0000000000.001.001.data
(PID.TID 0000.0001)  MDS_READ_FIELD: opening file: xx_vwind.0000000000.001.001.data
(PID.TID 0000.0001)  MDS_READ_FIELD: opening file: xx_vwind.0000000000.001.001.data
(PID.TID 0000.0001) // =======================================================
(PID.TID 0000.0001) // Begin MONITOR EXF statistics
(PID.TID 0000.0001) // =======================================================
(PID.TID 0000.0001) %MON exf_tsnumber                 =                     0
(PID.TID 0000.0001) %MON exf_time_sec                 =   0.0000000000000E+00
(PID.TID 0000.0001) %MON exf_ustress_max              =   6.3903775845771E-02
(PID.TID 0000.0001) %MON exf_ustress_min              =  -9.5324050318348E-02
(PID.TID 0000.0001) %MON exf_ustress_mean             =   2.2585162028781E-02
(PID.TID 0000.0001) %MON exf_ustress_sd               =   2.7275779997355E-02
(PID.TID 0000.0001) %MON exf_ustress_del2             =   2.9464928316532E-03
(PID.TID 0000.0001) %MON exf_vstress_max              =   5.4708944127586E-02
(PID.TID 0000.0001) %MON exf_vstress_min              =  -6.2488440618747E-02
(PID.TID 0000.0001) %MON exf_vstress_mean             =  -5.6174743223315E-03
(PID.TID 0000.0001) %MON exf_vstress_sd               =   1.5596129749990E-02
(PID.TID 0000.0001) %MON exf_vstress_del2             =   1.7930354012150E-03
(PID.TID 0000.0001) %MON exf_hflux_max                =   7.3111020636161E+02
(PID.TID 0000.0001) %MON exf_hflux_min                =   1.0991726570245E+02
(PID.TID 0000.0001) %MON exf_hflux_mean               =   2.7655955077737E+02
(PID.TID 0000.0001) %MON exf_hflux_sd                 =   1.5872019352493E+02
(PID.TID 0000.0001) %MON exf_hflux_del2               =   1.9324680413847E+01
(PID.TID 0000.0001) %MON exf_sflux_max                =   5.3473262221640E-08
(PID.TID 0000.0001) %MON exf_sflux_min                =  -6.1385296755754E-08
(PID.TID 0000.0001) %MON exf_sflux_mean               =  -7.3062646151542E-09
(PID.TID 0000.0001) %MON exf_sflux_sd                 =   2.6562207566842E-08
(PID.TID 0000.0001) %MON exf_sflux_del2               =   3.6392856083892E-09
(PID.TID 0000.0001) %MON exf_uwind_max                =   6.4643745422363E+00
(PID.TID 0000.0001) %MON exf_uwind_min                =  -6.8372380733490E+00
(PID.TID 0000.0001) %MON exf_uwind_mean               =   2.7697727336031E+00
(PID.TID 0000.0001) %MON exf_uwind_sd                 =   2.9900402496951E+00
(PID.TID 0000.0001) %MON exf_uwind_del2               =   3.1570994739265E-01
(PID.TID 0000.0001) %MON exf_vwind_max                =   3.9240682125092E+00
(PID.TID 0000.0001) %MON exf_vwind_min                =  -6.0197033882141E+00
(PID.TID 0000.0001) %MON exf_vwind_mean               =  -7.6089868124963E-01
(PID.TID 0000.0001) %MON exf_vwind_sd                 =   1.7293437592941E+00
(PID.TID 0000.0001) %MON exf_vwind_del2               =   1.9333263882436E-01
(PID.TID 0000.0001) %MON exf_wspeed_max               =   7.8832820454477E+00
(PID.TID 0000.0001) %MON exf_wspeed_min               =   4.6035219539401E-01
(PID.TID 0000.0001) %MON exf_wspeed_mean              =   4.1981217095273E+00
(PID.TID 0000.0001) %MON exf_wspeed_sd                =   1.5991724245810E+00
(PID.TID 0000.0001) %MON exf_wspeed_del2              =   3.7693667977018E-01
(PID.TID 0000.0001) %MON exf_atemp_max                =   2.8188281250000E+02
(PID.TID 0000.0001) %MON exf_atemp_min                =   2.3646176910400E+02
(PID.TID 0000.0001) %MON exf_atemp_mean               =   2.6394605784141E+02
(PID.TID 0000.0001) %MON exf_atemp_sd                 =   1.1983417694612E+01
(PID.TID 0000.0001) %MON exf_atemp_del2               =   6.4942276000977E-01
(PID.TID 0000.0001) %MON exf_aqh_max                  =   6.3231729436666E-03
(PID.TID 0000.0001) %MON exf_aqh_min                  =   1.6369274817407E-04
(PID.TID 0000.0001) %MON exf_aqh_mean                 =   2.4803629101886E-03
(PID.TID 0000.0001) %MON exf_aqh_sd                   =   1.4265074770275E-03
(PID.TID 0000.0001) %MON exf_aqh_del2                 =   6.8141780599641E-05
(PID.TID 0000.0001) %MON exf_lwflux_max               =   1.9978966060501E+02
(PID.TID 0000.0001) %MON exf_lwflux_min               =   6.3304595803996E+01
(PID.TID 0000.0001) %MON exf_lwflux_mean              =   1.0410079899302E+02
(PID.TID 0000.0001) %MON exf_lwflux_sd                =   3.6519264181786E+01
(PID.TID 0000.0001) %MON exf_lwflux_del2              =   3.1286635970398E+00
(PID.TID 0000.0001) %MON exf_precip_max               =   1.0498766300771E-07
(PID.TID 0000.0001) %MON exf_precip_min               =   2.7359498694368E-10
(PID.TID 0000.0001) %MON exf_precip_mean              =   3.6390080543085E-08
(PID.TID 0000.0001) %MON exf_precip_sd                =   2.0578148171209E-08
(PID.TID 0000.0001) %MON exf_precip_del2              =   2.5551549857431E-09
(PID.TID 0000.0001) %MON exf_snowprecip_max           =   0.0000000000000E+00
(PID.TID 0000.0001) %MON exf_snowprecip_min           =   0.0000000000000E+00
(PID.TID 0000.0001) %MON exf_snowprecip_mean          =   0.0000000000000E+00
(PID.TID 0000.0001) %MON exf_snowprecip_sd            =   0.0000000000000E+00
(PID.TID 0000.0001) %MON exf_snowprecip_del2          =   0.0000000000000E+00
(PID.TID 0000.0001) %MON exf_swflux_max               =  -8.1205755472183E-02
(PID.TID 0000.0001) %MON exf_swflux_min               =  -6.3973114013672E+01
(PID.TID 0000.0001) %MON exf_swflux_mean              =  -2.6453223022948E+01
(PID.TID 0000.0001) %MON exf_swflux_sd                =   1.9625901079469E+01
(PID.TID 0000.0001) %MON exf_swflux_del2              =   4.7901276555285E-01
(PID.TID 0000.0001) %MON exf_evap_max                 =   5.9797470045733E-08
(PID.TID 0000.0001) %MON exf_evap_min                 =   1.0729148721654E-08
(PID.TID 0000.0001) %MON exf_evap_mean                =   2.9083815927930E-08
(PID.TID 0000.0001) %MON exf_evap_sd                  =   9.2938020844541E-09
(PID.TID 0000.0001) %MON exf_evap_del2                =   2.0154590676424E-09
(PID.TID 0000.0001) %MON exf_swdown_max               =   7.1081237792969E+01
(PID.TID 0000.0001) %MON exf_swdown_min               =   9.0228617191315E-02
(PID.TID 0000.0001) %MON exf_swdown_mean              =   2.9392470025498E+01
(PID.TID 0000.0001) %MON exf_swdown_sd                =   2.1806556754965E+01
(PID.TID 0000.0001) %MON exf_swdown_del2              =   5.3223640616983E-01
(PID.TID 0000.0001) %MON exf_lwdown_max               =   3.0567971801758E+02
(PID.TID 0000.0001) %MON exf_lwdown_min               =   1.1599769210815E+02
(PID.TID 0000.0001) %MON exf_lwdown_mean              =   2.2594931695913E+02
(PID.TID 0000.0001) %MON exf_lwdown_sd                =   4.6277429231296E+01
(PID.TID 0000.0001) %MON exf_lwdown_del2              =   3.2438212966919E+00
(PID.TID 0000.0001) %MON exf_apressure_max            =   0.0000000000000E+00
(PID.TID 0000.0001) %MON exf_apressure_min            =   0.0000000000000E+00
(PID.TID 0000.0001) %MON exf_apressure_mean           =   0.0000000000000E+00
(PID.TID 0000.0001) %MON exf_apressure_sd             =   0.0000000000000E+00
(PID.TID 0000.0001) %MON exf_apressure_del2           =   0.0000000000000E+00
(PID.TID 0000.0001) %MON exf_runoff_max               =   0.0000000000000E+00
(PID.TID 0000.0001) %MON exf_runoff_min               =   0.0000000000000E+00
(PID.TID 0000.0001) %MON exf_runoff_mean              =   0.0000000000000E+00
(PID.TID 0000.0001) %MON exf_runoff_sd                =   0.0000000000000E+00
(PID.TID 0000.0001) %MON exf_runoff_del2              =   0.0000000000000E+00
(PID.TID 0000.0001) %MON exf_climsst_max              =   0.0000000000000E+00
(PID.TID 0000.0001) %MON exf_climsst_min              =   0.0000000000000E+00
(PID.TID 0000.0001) %MON exf_climsst_mean             =   0.0000000000000E+00
(PID.TID 0000.0001) %MON exf_climsst_sd               =   0.0000000000000E+00
(PID.TID 0000.0001) %MON exf_climsst_del2             =   0.0000000000000E+00
(PID.TID 0000.0001) %MON exf_climsss_max              =   3.5040330886841E+01
(PID.TID 0000.0001) %MON exf_climsss_min              =   3.0666313171387E+01
(PID.TID 0000.0001) %MON exf_climsss_mean             =   3.3459319600989E+01
(PID.TID 0000.0001) %MON exf_climsss_sd               =   1.0319548925494E+00
(PID.TID 0000.0001) %MON exf_climsss_del2             =   1.0019396146139E-01
(PID.TID 0000.0001) // =======================================================
(PID.TID 0000.0001) // End MONITOR EXF statistics
(PID.TID 0000.0001) // =======================================================
(PID.TID 0000.0001)  MDS_READ_FIELD: opening file: xx_atemp.0000000000.001.001.data
(PID.TID 0000.0001)  MDS_READ_FIELD: opening file: xx_atemp.0000000000.001.001.data
(PID.TID 0000.0001)  MDS_READ_FIELD: opening file: xx_aqh.0000000000.001.001.data
(PID.TID 0000.0001)  MDS_READ_FIELD: opening file: xx_aqh.0000000000.001.001.data
(PID.TID 0000.0001)  MDS_READ_FIELD: opening file: xx_precip.0000000000.001.001.data
(PID.TID 0000.0001)  MDS_READ_FIELD: opening file: xx_precip.0000000000.001.001.data
(PID.TID 0000.0001)  MDS_READ_FIELD: opening file: xx_swdown.0000000000.001.001.data
(PID.TID 0000.0001)  MDS_READ_FIELD: opening file: xx_swdown.0000000000.001.001.data
(PID.TID 0000.0001)  MDS_READ_FIELD: opening file: xx_lwdown.0000000000.001.001.data
(PID.TID 0000.0001)  MDS_READ_FIELD: opening file: xx_lwdown.0000000000.001.001.data
(PID.TID 0000.0001)  MDS_READ_FIELD: opening file: xx_snowprecip.0000000000.001.001.data
(PID.TID 0000.0001)  MDS_READ_FIELD: opening file: xx_snowprecip.0000000000.001.001.data
(PID.TID 0000.0001)  MDS_READ_FIELD: opening file: xx_apressure.0000000000.001.001.data
(PID.TID 0000.0001)  MDS_READ_FIELD: opening file: xx_apressure.0000000000.001.001.data
(PID.TID 0000.0001)  MDS_READ_FIELD: opening file: xx_uwind.0000000000.001.001.data
(PID.TID 0000.0001)  MDS_READ_FIELD: opening file: xx_uwind.0000000000.001.001.data
(PID.TID 0000.0001)  MDS_READ_FIELD: opening file: xx_vwind.0000000000.001.001.data
(PID.TID 0000.0001)  MDS_READ_FIELD: opening file: xx_vwind.0000000000.001.001.data
(PID.TID 0000.0001)  MDS_READ_FIELD: opening file: adxx_vwind.0000000000.001.001.data
(PID.TID 0000.0001)  MDS_READ_FIELD: opening file: adxx_vwind.0000000000.001.001.data
(PID.TID 0000.0001)  MDS_READ_FIELD: opening file: adxx_uwind.0000000000.001.001.data
(PID.TID 0000.0001)  MDS_READ_FIELD: opening file: adxx_uwind.0000000000.001.001.data
(PID.TID 0000.0001)  MDS_READ_FIELD: opening file: adxx_apressure.0000000000.001.001.data
(PID.TID 0000.0001)  MDS_READ_FIELD: opening file: adxx_apressure.0000000000.001.001.data
(PID.TID 0000.0001)  MDS_READ_FIELD: opening file: adxx_snowprecip.0000000000.001.001.data
(PID.TID 0000.0001)  MDS_READ_FIELD: opening file: adxx_snowprecip.0000000000.001.001.data
(PID.TID 0000.0001)  MDS_READ_FIELD: opening file: adxx_lwdown.0000000000.001.001.data
(PID.TID 0000.0001)  MDS_READ_FIELD: opening file: adxx_lwdown.0000000000.001.001.data
(PID.TID 0000.0001)  MDS_READ_FIELD: opening file: adxx_swdown.0000000000.001.001.data
(PID.TID 0000.0001)  MDS_READ_FIELD: opening file: adxx_swdown.0000000000.001.001.data
(PID.TID 0000.0001)  MDS_READ_FIELD: opening file: adxx_precip.0000000000.001.001.data
(PID.TID 0000.0001)  MDS_READ_FIELD: opening file: adxx_precip.0000000000.001.001.data
(PID.TID 0000.0001)  MDS_READ_FIELD: opening file: adxx_aqh.0000000000.001.001.data
(PID.TID 0000.0001)  MDS_READ_FIELD: opening file: adxx_aqh.0000000000.001.001.data
(PID.TID 0000.0001)  MDS_READ_FIELD: opening file: adxx_atemp.0000000000.001.001.data
(PID.TID 0000.0001)  MDS_READ_FIELD: opening file: adxx_atemp.0000000000.001.001.data
(PID.TID 0000.0001) // =======================================================
(PID.TID 0000.0001) // Field Model R_low (ini_masks_etc) at iteration          1
(PID.TID 0000.0001) // CMIN =         -4.200000000000000E+03
(PID.TID 0000.0001) // CMAX =         -5.500000000000000E+01
(PID.TID 0000.0001) // CINT =          1.535185185185185E+02
(PID.TID 0000.0001) // SYMBOLS (CMIN->CMAX): -abcdefghijklmnopqrstuvwxyz+
(PID.TID 0000.0001) //                  0.0: .
(PID.TID 0000.0001) // RANGE I (Lo:Hi:Step):(  -2:  23:   1)
(PID.TID 0000.0001) // RANGE J (Lo:Hi:Step):(  19:  -2:  -1)
(PID.TID 0000.0001) // RANGE K (Lo:Hi:Step):(   1:   1:   1)
(PID.TID 0000.0001) // =======================================================
(PID.TID 0000.0001) K =   1
(PID.TID 0000.0001) //                I=7       I=17
(PID.TID 0000.0001) // |--J--|210123456|890123456|890123
(PID.TID 0000.0001) //     19 cc-..........+.zzxmgcc-...
(PID.TID 0000.0001) //     18 jc-.......+zzz..zzsmjc-...
(PID.TID 0000.0001) //     17 wc-........++z+++z+wwc-...
(PID.TID 0000.0001) //     16 ....zyyz................zy
(PID.TID 0000.0001) //     15 ...yxwwuspxyxz.........yxw
(PID.TID 0000.0001) //     14 ....+wwspppsxzz.........+w
(PID.TID 0000.0001) //     13 .......zwsppsyz...........
(PID.TID 0000.0001) //     12 .........+ypswzz+.........
(PID.TID 0000.0001) //     11 ...........+wwy+..........
(PID.TID 0000.0001) //     10 ..........zzzywy+.........
(PID.TID 0000.0001) //      9 ..z.......+zxsmmm+....z...
(PID.TID 0000.0001) //      8 ..s.....zzzxumjjjjuz..s...
(PID.TID 0000.0001) //      7 pmj......z.+zmjggggjpmj...
(PID.TID 0000.0001) //      6 ggg.........zxmjggggggg...
(PID.TID 0000.0001) //      5 ggg..........zzsjgggggg...
(PID.TID 0000.0001) //      4 ccg............zzmgcccg...
(PID.TID 0000.0001) //      3 cc-..........+.zzxmgcc-...
(PID.TID 0000.0001) //      2 jc-.......+zzz..zzsmjc-...
(PID.TID 0000.0001) //      1 wc-........++z+++z+wwc-...
(PID.TID 0000.0001) //      0 ....zyyz................zy
(PID.TID 0000.0001) //     -1 ...yxwwuspxyxz.........yxw
(PID.TID 0000.0001) //     -2 ....+wwspppsxzz.........+w
(PID.TID 0000.0001) // =======================================================
(PID.TID 0000.0001) // END OF FIELD                                          =
(PID.TID 0000.0001) // =======================================================
(PID.TID 0000.0001) 
(PID.TID 0000.0001) // =======================================================
(PID.TID 0000.0001) // Field Model Ro_surf (ini_masks_etc) at iteration          1
(PID.TID 0000.0001) // CMIN =          1.000000000000000E+32
(PID.TID 0000.0001) // CMAX =         -1.000000000000000E+32
(PID.TID 0000.0001) // CINT =          0.000000000000000E+00
(PID.TID 0000.0001) // SYMBOLS (CMIN->CMAX): -abcdefghijklmnopqrstuvwxyz+
(PID.TID 0000.0001) //                  0.0: .
(PID.TID 0000.0001) // RANGE I (Lo:Hi:Step):(  -2:  23:   1)
(PID.TID 0000.0001) // RANGE J (Lo:Hi:Step):(  19:  -2:  -1)
(PID.TID 0000.0001) // RANGE K (Lo:Hi:Step):(   1:   1:   1)
(PID.TID 0000.0001) // =======================================================
(PID.TID 0000.0001) // =======================================================
(PID.TID 0000.0001) // END OF FIELD                                          =
(PID.TID 0000.0001) // =======================================================
(PID.TID 0000.0001) 
(PID.TID 0000.0001) // =======================================================
(PID.TID 0000.0001) // Field hFacC at iteration          1
(PID.TID 0000.0001) // CMIN =          1.000000000000000E+00
(PID.TID 0000.0001) // CMAX =          1.000000000000000E+00
(PID.TID 0000.0001) // CINT =          0.000000000000000E+00
(PID.TID 0000.0001) // SYMBOLS (CMIN->CMAX): -abcdefghijklmnopqrstuvwxyz+
(PID.TID 0000.0001) //                  0.0: .
(PID.TID 0000.0001) // RANGE I (Lo:Hi:Step):(  -2:  23:   1)
(PID.TID 0000.0001) // RANGE J (Lo:Hi:Step):(  19:  -2:  -1)
(PID.TID 0000.0001) // RANGE K (Lo:Hi:Step):(   1:   1:   1)
(PID.TID 0000.0001) // =======================================================
(PID.TID 0000.0001) // =======================================================
(PID.TID 0000.0001) // END OF FIELD                                          =
(PID.TID 0000.0001) // =======================================================
(PID.TID 0000.0001) 
(PID.TID 0000.0001) // =======================================================
(PID.TID 0000.0001) // Field hFacW at iteration          1
(PID.TID 0000.0001) // CMIN =          1.000000000000000E+00
(PID.TID 0000.0001) // CMAX =          1.000000000000000E+00
(PID.TID 0000.0001) // CINT =          0.000000000000000E+00
(PID.TID 0000.0001) // SYMBOLS (CMIN->CMAX): -abcdefghijklmnopqrstuvwxyz+
(PID.TID 0000.0001) //                  0.0: .
(PID.TID 0000.0001) // RANGE I (Lo:Hi:Step):(  -2:  23:   1)
(PID.TID 0000.0001) // RANGE J (Lo:Hi:Step):(  19:  -2:  -1)
(PID.TID 0000.0001) // RANGE K (Lo:Hi:Step):(   1:   1:   1)
(PID.TID 0000.0001) // =======================================================
(PID.TID 0000.0001) // =======================================================
(PID.TID 0000.0001) // END OF FIELD                                          =
(PID.TID 0000.0001) // =======================================================
(PID.TID 0000.0001) 
(PID.TID 0000.0001) // =======================================================
(PID.TID 0000.0001) // Field hFacS at iteration          1
(PID.TID 0000.0001) // CMIN =          1.000000000000000E+00
(PID.TID 0000.0001) // CMAX =          1.000000000000000E+00
(PID.TID 0000.0001) // CINT =          0.000000000000000E+00
(PID.TID 0000.0001) // SYMBOLS (CMIN->CMAX): -abcdefghijklmnopqrstuvwxyz+
(PID.TID 0000.0001) //                  0.0: .
(PID.TID 0000.0001) // RANGE I (Lo:Hi:Step):(  -2:  23:   1)
(PID.TID 0000.0001) // RANGE J (Lo:Hi:Step):(  19:  -2:  -1)
(PID.TID 0000.0001) // RANGE K (Lo:Hi:Step):(   1:   1:   1)
(PID.TID 0000.0001) // =======================================================
(PID.TID 0000.0001) // =======================================================
(PID.TID 0000.0001) // END OF FIELD                                          =
(PID.TID 0000.0001) // =======================================================
(PID.TID 0000.0001) 
(PID.TID 0000.0001) // =======================================================
(PID.TID 0000.0001) // Field Initial Temperature at iteration          1
(PID.TID 0000.0001) // CMIN =          9.205863475799561E-01
(PID.TID 0000.0001) // CMAX =          1.333307647705078E+01
(PID.TID 0000.0001) // CINT =          4.597218566470676E-01
(PID.TID 0000.0001) // SYMBOLS (CMIN->CMAX): -abcdefghijklmnopqrstuvwxyz+
(PID.TID 0000.0001) //                  0.0: .
(PID.TID 0000.0001) // RANGE I (Lo:Hi:Step):(   1:  20:   1)
(PID.TID 0000.0001) // RANGE J (Lo:Hi:Step):(  16:   1:  -1)
(PID.TID 0000.0001) // RANGE K (Lo:Hi:Step):(   1:   1:   1)
(PID.TID 0000.0001) // =======================================================
(PID.TID 0000.0001) K =   1
(PID.TID 0000.0001)                I=10      I=20
(PID.TID 0000.0001) |--J--|123456789|123456789|
(PID.TID 0000.0001)     16 .----...............
(PID.TID 0000.0001)     15 aabaaaaaaaa.........
(PID.TID 0000.0001)     14 .ccccccbbbbc........
(PID.TID 0000.0001)     13 ....dddddddd........
(PID.TID 0000.0001)     12 ......dcdddddd......
(PID.TID 0000.0001)     11 ........cccdd.......
(PID.TID 0000.0001)     10 .......bbcdddd......
(PID.TID 0000.0001)      9 .......cdeeffff....j
(PID.TID 0000.0001)      8 .....ccdefgghhggh..k
(PID.TID 0000.0001)      7 ......d.fghiiiiiijkl
(PID.TID 0000.0001)      6 .........ghhijjjkklm
(PID.TID 0000.0001)      5 ..........hhhijklmnn
(PID.TID 0000.0001)      4 ............ghikmopq
(PID.TID 0000.0001)      3 ..........k.hhiknqsu
(PID.TID 0000.0001)      2 .......oonm..ijknqux
(PID.TID 0000.0001)      1 ........qponlkklosw+
(PID.TID 0000.0001) // =======================================================
(PID.TID 0000.0001) // END OF FIELD                                          =
(PID.TID 0000.0001) // =======================================================
(PID.TID 0000.0001) 
(PID.TID 0000.0001) // =======================================================
(PID.TID 0000.0001) // Field Initial Salinity at iteration          1
(PID.TID 0000.0001) // CMIN =          3.012869834899902E+01
(PID.TID 0000.0001) // CMAX =          3.487366104125977E+01
(PID.TID 0000.0001) // CINT =          1.757393589726201E-01
(PID.TID 0000.0001) // SYMBOLS (CMIN->CMAX): -abcdefghijklmnopqrstuvwxyz+
(PID.TID 0000.0001) //                  0.0: .
(PID.TID 0000.0001) // RANGE I (Lo:Hi:Step):(   1:  20:   1)
(PID.TID 0000.0001) // RANGE J (Lo:Hi:Step):(  16:   1:  -1)
(PID.TID 0000.0001) // RANGE K (Lo:Hi:Step):(   1:   1:   1)
(PID.TID 0000.0001) // =======================================================
(PID.TID 0000.0001) K =   1
(PID.TID 0000.0001)                I=10      I=20
(PID.TID 0000.0001) |--J--|123456789|123456789|
(PID.TID 0000.0001)     16 .nnos...............
(PID.TID 0000.0001)     15 lnoppppppol.........
(PID.TID 0000.0001)     14 .nponmllllmn........
(PID.TID 0000.0001)     13 ....ljhijkmo........
(PID.TID 0000.0001)     12 ......ghjlmors......
(PID.TID 0000.0001)     11 ........jmnpr.......
(PID.TID 0000.0001)     10 .......jlnpqrq......
(PID.TID 0000.0001)      9 .......noqsttts....w
(PID.TID 0000.0001)      8 .....jlnpsuvwwutu..x
(PID.TID 0000.0001)      7 ......j.rruwxyxxwxxy
(PID.TID 0000.0001)      6 .........ppruxyyzzzz
(PID.TID 0000.0001)      5 ..........ijoswyzzzz
(PID.TID 0000.0001)      4 ............iotwyzzz
(PID.TID 0000.0001)      3 ..........g.imquwyzz
(PID.TID 0000.0001)      2 .......-bef..knqtvxz
(PID.TID 0000.0001)      1 ........-cegijlosvy+
(PID.TID 0000.0001) // =======================================================
(PID.TID 0000.0001) // END OF FIELD                                          =
(PID.TID 0000.0001) // =======================================================
(PID.TID 0000.0001) 
(PID.TID 0000.0001) Start initial hydrostatic pressure computation
(PID.TID 0000.0001) Pressure is predetermined for buoyancyRelation OCEANIC
(PID.TID 0000.0001) 
(PID.TID 0000.0001) // =======================================================
(PID.TID 0000.0001) // Begin MONITOR dynamic field statistics
(PID.TID 0000.0001) // =======================================================
(PID.TID 0000.0001) %MON ad_time_tsnumber             =                     0
(PID.TID 0000.0001) %MON ad_time_secondsf             =   0.0000000000000E+00
(PID.TID 0000.0001) %MON ad_dynstat_adeta_max         =   4.5554978053704E+24
(PID.TID 0000.0001) %MON ad_dynstat_adeta_min         =  -3.5967357017252E+24
(PID.TID 0000.0001) %MON ad_dynstat_adeta_mean        =   5.8966979493532E+17
(PID.TID 0000.0001) %MON ad_dynstat_adeta_sd          =   4.0789919925014E+23
(PID.TID 0000.0001) %MON ad_dynstat_adeta_del2        =   1.8181546688982E+23
(PID.TID 0000.0001) %MON ad_dynstat_aduvel_max        =   3.4984734135793E+24
(PID.TID 0000.0001) %MON ad_dynstat_aduvel_min        =  -3.6485036431654E+24
(PID.TID 0000.0001) %MON ad_dynstat_aduvel_mean       =   2.9907465898632E+19
(PID.TID 0000.0001) %MON ad_dynstat_aduvel_sd         =   3.1171511718347E+22
(PID.TID 0000.0001) %MON ad_dynstat_aduvel_del2       =   1.2568418123465E+22
(PID.TID 0000.0001) %MON ad_dynstat_advvel_max        =   2.9699972887418E+23
(PID.TID 0000.0001) %MON ad_dynstat_advvel_min        =  -4.4439217682769E+23
(PID.TID 0000.0001) %MON ad_dynstat_advvel_mean       =   1.2892102603748E+17
(PID.TID 0000.0001) %MON ad_dynstat_advvel_sd         =   4.0259978125083E+21
(PID.TID 0000.0001) %MON ad_dynstat_advvel_del2       =   1.5770380083341E+21
(PID.TID 0000.0001) %MON ad_dynstat_adwvel_max        =   2.3870260472160E+11
(PID.TID 0000.0001) %MON ad_dynstat_adwvel_min        =  -3.6483389887377E+11
(PID.TID 0000.0001) %MON ad_dynstat_adwvel_mean       =   4.2160583333192E+08
(PID.TID 0000.0001) %MON ad_dynstat_adwvel_sd         =   7.9835529098699E+09
(PID.TID 0000.0001) %MON ad_dynstat_adwvel_del2       =   1.1768043897175E+09
(PID.TID 0000.0001) %MON ad_dynstat_adtheta_max       =   1.4109361668711E+16
(PID.TID 0000.0001) %MON ad_dynstat_adtheta_min       =  -1.0285827729867E+16
(PID.TID 0000.0001) %MON ad_dynstat_adtheta_mean      =   2.6564637170929E+11
(PID.TID 0000.0001) %MON ad_dynstat_adtheta_sd        =   1.1661995307752E+14
(PID.TID 0000.0001) %MON ad_dynstat_adtheta_del2      =   4.4680029140718E+13
(PID.TID 0000.0001) %MON ad_dynstat_adsalt_max        =   1.3929867899992E+16
(PID.TID 0000.0001) %MON ad_dynstat_adsalt_min        =  -1.1287061685942E+16
(PID.TID 0000.0001) %MON ad_dynstat_adsalt_mean       =   1.2889377004264E+11
(PID.TID 0000.0001) %MON ad_dynstat_adsalt_sd         =   7.7714172271012E+14
(PID.TID 0000.0001) %MON ad_dynstat_adsalt_del2       =   2.8706295017718E+14
(PID.TID 0000.0001) %MON ad_dynstat_adsst_max         =   1.4109361668711E+16
(PID.TID 0000.0001) %MON ad_dynstat_adsst_min         =  -1.0285827729867E+16
(PID.TID 0000.0001) %MON ad_dynstat_adsst_mean        =   4.2980633795336E+13
(PID.TID 0000.0001) %MON ad_dynstat_adsst_sd          =   1.1143208002711E+15
(PID.TID 0000.0001) %MON ad_dynstat_adsst_del2        =   3.1413251154301E+14
(PID.TID 0000.0001) %MON ad_dynstat_adsss_max         =   4.9207344450696E+15
(PID.TID 0000.0001) %MON ad_dynstat_adsss_min         =  -3.8147550264196E+15
(PID.TID 0000.0001) %MON ad_dynstat_adsss_mean        =   4.5444656763407E+12
(PID.TID 0000.0001) %MON ad_dynstat_adsss_sd          =   3.6059670595841E+14
(PID.TID 0000.0001) %MON ad_dynstat_adsss_del2        =   9.0741594002195E+13
(PID.TID 0000.0001) %MON ad_extforcing_adqnet_max     =   0.0000000000000E+00
(PID.TID 0000.0001) %MON ad_extforcing_adqnet_min     =   0.0000000000000E+00
(PID.TID 0000.0001) %MON ad_extforcing_adqnet_mean    =   0.0000000000000E+00
(PID.TID 0000.0001) %MON ad_extforcing_adqnet_sd      =   0.0000000000000E+00
(PID.TID 0000.0001) %MON ad_extforcing_adqnet_del2    =   0.0000000000000E+00
(PID.TID 0000.0001) %MON ad_extforcing_adqsw_max      =   0.0000000000000E+00
(PID.TID 0000.0001) %MON ad_extforcing_adqsw_min      =   0.0000000000000E+00
(PID.TID 0000.0001) %MON ad_extforcing_adqsw_mean     =   0.0000000000000E+00
(PID.TID 0000.0001) %MON ad_extforcing_adqsw_sd       =   0.0000000000000E+00
(PID.TID 0000.0001) %MON ad_extforcing_adqsw_del2     =   0.0000000000000E+00
(PID.TID 0000.0001) %MON ad_extforcing_adempmr_max    =   0.0000000000000E+00
(PID.TID 0000.0001) %MON ad_extforcing_adempmr_min    =   0.0000000000000E+00
(PID.TID 0000.0001) %MON ad_extforcing_adempmr_mean   =   0.0000000000000E+00
(PID.TID 0000.0001) %MON ad_extforcing_adempmr_sd     =   0.0000000000000E+00
(PID.TID 0000.0001) %MON ad_extforcing_adempmr_del2   =   0.0000000000000E+00
(PID.TID 0000.0001) %MON ad_extforcing_adfu_max       =   0.0000000000000E+00
(PID.TID 0000.0001) %MON ad_extforcing_adfu_min       =   0.0000000000000E+00
(PID.TID 0000.0001) %MON ad_extforcing_adfu_mean      =   0.0000000000000E+00
(PID.TID 0000.0001) %MON ad_extforcing_adfu_sd        =   0.0000000000000E+00
(PID.TID 0000.0001) %MON ad_extforcing_adfu_del2      =   0.0000000000000E+00
(PID.TID 0000.0001) %MON ad_extforcing_adfv_max       =   0.0000000000000E+00
(PID.TID 0000.0001) %MON ad_extforcing_adfv_min       =   0.0000000000000E+00
(PID.TID 0000.0001) %MON ad_extforcing_adfv_mean      =   0.0000000000000E+00
(PID.TID 0000.0001) %MON ad_extforcing_adfv_sd        =   0.0000000000000E+00
(PID.TID 0000.0001) %MON ad_extforcing_adfv_del2      =   0.0000000000000E+00
(PID.TID 0000.0001) %MON ad_advcfl_aduvel_max         =   2.2819497992081E+23
(PID.TID 0000.0001) %MON ad_advcfl_advvel_max         =   7.1937267502031E+21
(PID.TID 0000.0001) %MON ad_advcfl_adwvel_max         =   1.0507216287565E+14
(PID.TID 0000.0001) %MON ad_advcfl_adW_hf_max         =   1.7186587539955E+14
(PID.TID 0000.0001) // =======================================================
(PID.TID 0000.0001) // End MONITOR dynamic field statistics
(PID.TID 0000.0001) // =======================================================
(PID.TID 0000.0001)  MDS_READ_FIELD: opening file: xx_salt.0000000000.001.001.data
(PID.TID 0000.0001)  MDS_READ_FIELD: opening file: adxx_salt.0000000000.001.001.data
(PID.TID 0000.0001)  MDS_READ_FIELD: opening file: xx_theta.0000000000.001.001.data
(PID.TID 0000.0001)  MDS_READ_FIELD: opening file: xx_theta.0000000000.001.001.data
(PID.TID 0000.0001)  MDS_READ_FIELD: opening file: adxx_theta.0000000000.001.001.data
 ph-pack: packing ecco_cost
(PID.TID 0000.0001)  MDSREADFIELD_GL: opening file: maskCtrlC.001.001.data
(PID.TID 0000.0001)  MDSREADFIELD_GL: opening file: adxx_theta.0000000000.001.001.data
(PID.TID 0000.0001)  MDSREADFIELD_GL: opening file: maskCtrlC.001.001.data
(PID.TID 0000.0001)  MDSREADFIELD_GL: opening file: adxx_salt.0000000000.001.001.data
(PID.TID 0000.0001)  MDSREADFIELD_GL: opening file: watemp.001.001.data
(PID.TID 0000.0001)  MDSREADFIELD_GL: opening file: maskCtrlC.001.001.data
(PID.TID 0000.0001)  MDSREADFIELD_GL: opening file: adxx_atemp.0000000000.001.001.data
(PID.TID 0000.0001)  MDSREADFIELD_GL: opening file: adxx_atemp.0000000000.001.001.data
(PID.TID 0000.0001)  MDSREADFIELD_GL: opening file: waqh.001.001.data
(PID.TID 0000.0001)  MDSREADFIELD_GL: opening file: maskCtrlC.001.001.data
(PID.TID 0000.0001)  MDSREADFIELD_GL: opening file: adxx_aqh.0000000000.001.001.data
(PID.TID 0000.0001)  MDSREADFIELD_GL: opening file: adxx_aqh.0000000000.001.001.data
(PID.TID 0000.0001)  MDSREADFIELD_GL: opening file: wuwind.001.001.data
(PID.TID 0000.0001)  MDSREADFIELD_GL: opening file: maskCtrlC.001.001.data
(PID.TID 0000.0001)  MDSREADFIELD_GL: opening file: adxx_uwind.0000000000.001.001.data
(PID.TID 0000.0001)  MDSREADFIELD_GL: opening file: adxx_uwind.0000000000.001.001.data
(PID.TID 0000.0001)  MDSREADFIELD_GL: opening file: wvwind.001.001.data
(PID.TID 0000.0001)  MDSREADFIELD_GL: opening file: maskCtrlC.001.001.data
(PID.TID 0000.0001)  MDSREADFIELD_GL: opening file: adxx_vwind.0000000000.001.001.data
(PID.TID 0000.0001)  MDSREADFIELD_GL: opening file: adxx_vwind.0000000000.001.001.data
(PID.TID 0000.0001)  MDSREADFIELD_GL: opening file: wprecip.001.001.data
(PID.TID 0000.0001)  MDSREADFIELD_GL: opening file: maskCtrlC.001.001.data
(PID.TID 0000.0001)  MDSREADFIELD_GL: opening file: adxx_precip.0000000000.001.001.data
(PID.TID 0000.0001)  MDSREADFIELD_GL: opening file: adxx_precip.0000000000.001.001.data
(PID.TID 0000.0001)  MDSREADFIELD_GL: opening file: wswdown.001.001.data
(PID.TID 0000.0001)  MDSREADFIELD_GL: opening file: maskCtrlC.001.001.data
(PID.TID 0000.0001)  MDSREADFIELD_GL: opening file: adxx_swdown.0000000000.001.001.data
(PID.TID 0000.0001)  MDSREADFIELD_GL: opening file: adxx_swdown.0000000000.001.001.data
(PID.TID 0000.0001)  MDSREADFIELD_GL: opening file: wlwdown.001.001.data
(PID.TID 0000.0001)  MDSREADFIELD_GL: opening file: maskCtrlC.001.001.data
(PID.TID 0000.0001)  MDSREADFIELD_GL: opening file: adxx_lwdown.0000000000.001.001.data
(PID.TID 0000.0001)  MDSREADFIELD_GL: opening file: adxx_lwdown.0000000000.001.001.data
(PID.TID 0000.0001)  MDSREADFIELD_GL: opening file: wsnowprecip.001.001.data
(PID.TID 0000.0001)  MDSREADFIELD_GL: opening file: maskCtrlC.001.001.data
(PID.TID 0000.0001)  MDSREADFIELD_GL: opening file: adxx_snowprecip.0000000000.001.001.data
(PID.TID 0000.0001)  MDSREADFIELD_GL: opening file: adxx_snowprecip.0000000000.001.001.data
(PID.TID 0000.0001)  MDSREADFIELD_GL: opening file: wapressure.001.001.data
(PID.TID 0000.0001)  MDSREADFIELD_GL: opening file: maskCtrlC.001.001.data
(PID.TID 0000.0001)  MDSREADFIELD_GL: opening file: adxx_apressure.0000000000.001.001.data
(PID.TID 0000.0001)  MDSREADFIELD_GL: opening file: adxx_apressure.0000000000.001.001.data
 ph-pack: packing ecco_ctrl
(PID.TID 0000.0001)  MDSREADFIELD_GL: opening file: maskCtrlC.001.001.data
(PID.TID 0000.0001)  MDSREADFIELD_GL: opening file: xx_theta.0000000000.001.001.data
(PID.TID 0000.0001)  MDSREADFIELD_GL: opening file: maskCtrlC.001.001.data
(PID.TID 0000.0001)  MDSREADFIELD_GL: opening file: xx_salt.0000000000.001.001.data
(PID.TID 0000.0001)  MDSREADFIELD_GL: opening file: watemp.001.001.data
(PID.TID 0000.0001)  MDSREADFIELD_GL: opening file: maskCtrlC.001.001.data
(PID.TID 0000.0001)  MDSREADFIELD_GL: opening file: xx_atemp.0000000000.001.001.data
(PID.TID 0000.0001)  MDSREADFIELD_GL: opening file: xx_atemp.0000000000.001.001.data
(PID.TID 0000.0001)  MDSREADFIELD_GL: opening file: waqh.001.001.data
(PID.TID 0000.0001)  MDSREADFIELD_GL: opening file: maskCtrlC.001.001.data
(PID.TID 0000.0001)  MDSREADFIELD_GL: opening file: xx_aqh.0000000000.001.001.data
(PID.TID 0000.0001)  MDSREADFIELD_GL: opening file: xx_aqh.0000000000.001.001.data
(PID.TID 0000.0001)  MDSREADFIELD_GL: opening file: wuwind.001.001.data
(PID.TID 0000.0001)  MDSREADFIELD_GL: opening file: maskCtrlC.001.001.data
(PID.TID 0000.0001)  MDSREADFIELD_GL: opening file: xx_uwind.0000000000.001.001.data
(PID.TID 0000.0001)  MDSREADFIELD_GL: opening file: xx_uwind.0000000000.001.001.data
(PID.TID 0000.0001)  MDSREADFIELD_GL: opening file: wvwind.001.001.data
(PID.TID 0000.0001)  MDSREADFIELD_GL: opening file: maskCtrlC.001.001.data
(PID.TID 0000.0001)  MDSREADFIELD_GL: opening file: xx_vwind.0000000000.001.001.data
(PID.TID 0000.0001)  MDSREADFIELD_GL: opening file: xx_vwind.0000000000.001.001.data
(PID.TID 0000.0001)  MDSREADFIELD_GL: opening file: wprecip.001.001.data
(PID.TID 0000.0001)  MDSREADFIELD_GL: opening file: maskCtrlC.001.001.data
(PID.TID 0000.0001)  MDSREADFIELD_GL: opening file: xx_precip.0000000000.001.001.data
(PID.TID 0000.0001)  MDSREADFIELD_GL: opening file: xx_precip.0000000000.001.001.data
(PID.TID 0000.0001)  MDSREADFIELD_GL: opening file: wswdown.001.001.data
(PID.TID 0000.0001)  MDSREADFIELD_GL: opening file: maskCtrlC.001.001.data
(PID.TID 0000.0001)  MDSREADFIELD_GL: opening file: xx_swdown.0000000000.001.001.data
(PID.TID 0000.0001)  MDSREADFIELD_GL: opening file: xx_swdown.0000000000.001.001.data
(PID.TID 0000.0001)  MDSREADFIELD_GL: opening file: wlwdown.001.001.data
(PID.TID 0000.0001)  MDSREADFIELD_GL: opening file: maskCtrlC.001.001.data
(PID.TID 0000.0001)  MDSREADFIELD_GL: opening file: xx_lwdown.0000000000.001.001.data
(PID.TID 0000.0001)  MDSREADFIELD_GL: opening file: xx_lwdown.0000000000.001.001.data
(PID.TID 0000.0001)  MDSREADFIELD_GL: opening file: wsnowprecip.001.001.data
(PID.TID 0000.0001)  MDSREADFIELD_GL: opening file: maskCtrlC.001.001.data
(PID.TID 0000.0001)  MDSREADFIELD_GL: opening file: xx_snowprecip.0000000000.001.001.data
(PID.TID 0000.0001)  MDSREADFIELD_GL: opening file: xx_snowprecip.0000000000.001.001.data
(PID.TID 0000.0001)  MDSREADFIELD_GL: opening file: wapressure.001.001.data
(PID.TID 0000.0001)  MDSREADFIELD_GL: opening file: maskCtrlC.001.001.data
(PID.TID 0000.0001)  MDSREADFIELD_GL: opening file: xx_apressure.0000000000.001.001.data
(PID.TID 0000.0001)  MDSREADFIELD_GL: opening file: xx_apressure.0000000000.001.001.data
 ph-check entering grdchk_main 
 ph-check fcref =   5.08667309E+11
 grad-res -------------------------------
 grad-res  proc    #    i    j    k   bi   bj iobc               fc ref           fc + eps           fc - eps
 grad-res  proc    #    i    j    k   bi   bj iobc             adj grad            fd grad         1 - fd/adj
 ph-grd -->hit<--  12 1 1 1
(PID.TID 0000.0001)  MDS_READ_FIELD: opening file: adxx_atemp.0000000000.001.001.data
(PID.TID 0000.0001)  MDS_READ_FIELD: opening file: xx_atemp.0000000000.001.001.data
(PID.TID 0000.0001) 
(PID.TID 0000.0001)  cal_TimeStamp: iter =          0 time =  0.00000000E+00
(PID.TID 0000.0001)                 date =   19790101           0
(PID.TID 0000.0001) 
(PID.TID 0000.0001) // =======================================================
(PID.TID 0000.0001) // Field Model R_low (ini_masks_etc) at iteration          1
(PID.TID 0000.0001) // CMIN =         -4.200000000000000E+03
(PID.TID 0000.0001) // CMAX =         -5.500000000000000E+01
(PID.TID 0000.0001) // CINT =          1.535185185185185E+02
(PID.TID 0000.0001) // SYMBOLS (CMIN->CMAX): -abcdefghijklmnopqrstuvwxyz+
(PID.TID 0000.0001) //                  0.0: .
(PID.TID 0000.0001) // RANGE I (Lo:Hi:Step):(  -2:  23:   1)
(PID.TID 0000.0001) // RANGE J (Lo:Hi:Step):(  19:  -2:  -1)
(PID.TID 0000.0001) // RANGE K (Lo:Hi:Step):(   1:   1:   1)
(PID.TID 0000.0001) // =======================================================
(PID.TID 0000.0001) K =   1
(PID.TID 0000.0001) //                I=7       I=17
(PID.TID 0000.0001) // |--J--|210123456|890123456|890123
(PID.TID 0000.0001) //     19 cc-..........+.zzxmgcc-...
(PID.TID 0000.0001) //     18 jc-.......+zzz..zzsmjc-...
(PID.TID 0000.0001) //     17 wc-........++z+++z+wwc-...
(PID.TID 0000.0001) //     16 ....zyyz................zy
(PID.TID 0000.0001) //     15 ...yxwwuspxyxz.........yxw
(PID.TID 0000.0001) //     14 ....+wwspppsxzz.........+w
(PID.TID 0000.0001) //     13 .......zwsppsyz...........
(PID.TID 0000.0001) //     12 .........+ypswzz+.........
(PID.TID 0000.0001) //     11 ...........+wwy+..........
(PID.TID 0000.0001) //     10 ..........zzzywy+.........
(PID.TID 0000.0001) //      9 ..z.......+zxsmmm+....z...
(PID.TID 0000.0001) //      8 ..s.....zzzxumjjjjuz..s...
(PID.TID 0000.0001) //      7 pmj......z.+zmjggggjpmj...
(PID.TID 0000.0001) //      6 ggg.........zxmjggggggg...
(PID.TID 0000.0001) //      5 ggg..........zzsjgggggg...
(PID.TID 0000.0001) //      4 ccg............zzmgcccg...
(PID.TID 0000.0001) //      3 cc-..........+.zzxmgcc-...
(PID.TID 0000.0001) //      2 jc-.......+zzz..zzsmjc-...
(PID.TID 0000.0001) //      1 wc-........++z+++z+wwc-...
(PID.TID 0000.0001) //      0 ....zyyz................zy
(PID.TID 0000.0001) //     -1 ...yxwwuspxyxz.........yxw
(PID.TID 0000.0001) //     -2 ....+wwspppsxzz.........+w
(PID.TID 0000.0001) // =======================================================
(PID.TID 0000.0001) // END OF FIELD                                          =
(PID.TID 0000.0001) // =======================================================
(PID.TID 0000.0001) 
(PID.TID 0000.0001) // =======================================================
(PID.TID 0000.0001) // Field Model Ro_surf (ini_masks_etc) at iteration          1
(PID.TID 0000.0001) // CMIN =          1.000000000000000E+32
(PID.TID 0000.0001) // CMAX =         -1.000000000000000E+32
(PID.TID 0000.0001) // CINT =          0.000000000000000E+00
(PID.TID 0000.0001) // SYMBOLS (CMIN->CMAX): -abcdefghijklmnopqrstuvwxyz+
(PID.TID 0000.0001) //                  0.0: .
(PID.TID 0000.0001) // RANGE I (Lo:Hi:Step):(  -2:  23:   1)
(PID.TID 0000.0001) // RANGE J (Lo:Hi:Step):(  19:  -2:  -1)
(PID.TID 0000.0001) // RANGE K (Lo:Hi:Step):(   1:   1:   1)
(PID.TID 0000.0001) // =======================================================
(PID.TID 0000.0001) // =======================================================
(PID.TID 0000.0001) // END OF FIELD                                          =
(PID.TID 0000.0001) // =======================================================
(PID.TID 0000.0001) 
(PID.TID 0000.0001) // =======================================================
(PID.TID 0000.0001) // Field hFacC at iteration          1
(PID.TID 0000.0001) // CMIN =          1.000000000000000E+00
(PID.TID 0000.0001) // CMAX =          1.000000000000000E+00
(PID.TID 0000.0001) // CINT =          0.000000000000000E+00
(PID.TID 0000.0001) // SYMBOLS (CMIN->CMAX): -abcdefghijklmnopqrstuvwxyz+
(PID.TID 0000.0001) //                  0.0: .
(PID.TID 0000.0001) // RANGE I (Lo:Hi:Step):(  -2:  23:   1)
(PID.TID 0000.0001) // RANGE J (Lo:Hi:Step):(  19:  -2:  -1)
(PID.TID 0000.0001) // RANGE K (Lo:Hi:Step):(   1:   1:   1)
(PID.TID 0000.0001) // =======================================================
(PID.TID 0000.0001) // =======================================================
(PID.TID 0000.0001) // END OF FIELD                                          =
(PID.TID 0000.0001) // =======================================================
(PID.TID 0000.0001) 
(PID.TID 0000.0001) // =======================================================
(PID.TID 0000.0001) // Field hFacW at iteration          1
(PID.TID 0000.0001) // CMIN =          1.000000000000000E+00
(PID.TID 0000.0001) // CMAX =          1.000000000000000E+00
(PID.TID 0000.0001) // CINT =          0.000000000000000E+00
(PID.TID 0000.0001) // SYMBOLS (CMIN->CMAX): -abcdefghijklmnopqrstuvwxyz+
(PID.TID 0000.0001) //                  0.0: .
(PID.TID 0000.0001) // RANGE I (Lo:Hi:Step):(  -2:  23:   1)
(PID.TID 0000.0001) // RANGE J (Lo:Hi:Step):(  19:  -2:  -1)
(PID.TID 0000.0001) // RANGE K (Lo:Hi:Step):(   1:   1:   1)
(PID.TID 0000.0001) // =======================================================
(PID.TID 0000.0001) // =======================================================
(PID.TID 0000.0001) // END OF FIELD                                          =
(PID.TID 0000.0001) // =======================================================
(PID.TID 0000.0001) 
(PID.TID 0000.0001) // =======================================================
(PID.TID 0000.0001) // Field hFacS at iteration          1
(PID.TID 0000.0001) // CMIN =          1.000000000000000E+00
(PID.TID 0000.0001) // CMAX =          1.000000000000000E+00
(PID.TID 0000.0001) // CINT =          0.000000000000000E+00
(PID.TID 0000.0001) // SYMBOLS (CMIN->CMAX): -abcdefghijklmnopqrstuvwxyz+
(PID.TID 0000.0001) //                  0.0: .
(PID.TID 0000.0001) // RANGE I (Lo:Hi:Step):(  -2:  23:   1)
(PID.TID 0000.0001) // RANGE J (Lo:Hi:Step):(  19:  -2:  -1)
(PID.TID 0000.0001) // RANGE K (Lo:Hi:Step):(   1:   1:   1)
(PID.TID 0000.0001) // =======================================================
(PID.TID 0000.0001) // =======================================================
(PID.TID 0000.0001) // END OF FIELD                                          =
(PID.TID 0000.0001) // =======================================================
(PID.TID 0000.0001) 
(PID.TID 0000.0001) %MON ad_advcflfCori_max           =   1.4210453727344E-04
(PID.TID 0000.0001) %MON ad_advcflfCori_min           =   1.0666243053630E-04
(PID.TID 0000.0001) %MON ad_advcflfCori_mean          =   1.2711058365303E-04
(PID.TID 0000.0001) %MON ad_advcflfCori_sd            =   1.1031533875266E-05
(PID.TID 0000.0001) %MON ad_advcflfCoriG_max          =   1.4151032568025E-04
(PID.TID 0000.0001) %MON ad_advcflfCoriG_min          =   1.0491029349513E-04
(PID.TID 0000.0001) %MON ad_advcflfCoriG_mean         =   1.2591168756569E-04
(PID.TID 0000.0001) %MON ad_advcflfCoriG_sd           =   1.1383815633153E-05
(PID.TID 0000.0001) %MON ad_advcflfCoriCos_max        =   9.9464325599212E-05
(PID.TID 0000.0001) %MON ad_advcflfCoriCos_min        =   3.2807417471054E-05
(PID.TID 0000.0001) %MON ad_advcflfCoriCos_mean       =   6.7585896192312E-05
(PID.TID 0000.0001) %MON ad_advcflfCoriCos_sd         =   2.0576140902612E-05
(PID.TID 0000.0001) INI_CG2D: CG2D normalisation factor =  1.6094939840939192E-04
(PID.TID 0000.0001) 
(PID.TID 0000.0001) // =======================================================
(PID.TID 0000.0001) // Field Initial Temperature at iteration          1
(PID.TID 0000.0001) // CMIN =          9.205863475799561E-01
(PID.TID 0000.0001) // CMAX =          1.333307647705078E+01
(PID.TID 0000.0001) // CINT =          4.597218566470676E-01
(PID.TID 0000.0001) // SYMBOLS (CMIN->CMAX): -abcdefghijklmnopqrstuvwxyz+
(PID.TID 0000.0001) //                  0.0: .
(PID.TID 0000.0001) // RANGE I (Lo:Hi:Step):(   1:  20:   1)
(PID.TID 0000.0001) // RANGE J (Lo:Hi:Step):(  16:   1:  -1)
(PID.TID 0000.0001) // RANGE K (Lo:Hi:Step):(   1:   1:   1)
(PID.TID 0000.0001) // =======================================================
(PID.TID 0000.0001) K =   1
(PID.TID 0000.0001)                I=10      I=20
(PID.TID 0000.0001) |--J--|123456789|123456789|
(PID.TID 0000.0001)     16 .----...............
(PID.TID 0000.0001)     15 aabaaaaaaaa.........
(PID.TID 0000.0001)     14 .ccccccbbbbc........
(PID.TID 0000.0001)     13 ....dddddddd........
(PID.TID 0000.0001)     12 ......dcdddddd......
(PID.TID 0000.0001)     11 ........cccdd.......
(PID.TID 0000.0001)     10 .......bbcdddd......
(PID.TID 0000.0001)      9 .......cdeeffff....j
(PID.TID 0000.0001)      8 .....ccdefgghhggh..k
(PID.TID 0000.0001)      7 ......d.fghiiiiiijkl
(PID.TID 0000.0001)      6 .........ghhijjjkklm
(PID.TID 0000.0001)      5 ..........hhhijklmnn
(PID.TID 0000.0001)      4 ............ghikmopq
(PID.TID 0000.0001)      3 ..........k.hhiknqsu
(PID.TID 0000.0001)      2 .......oonm..ijknqux
(PID.TID 0000.0001)      1 ........qponlkklosw+
(PID.TID 0000.0001) // =======================================================
(PID.TID 0000.0001) // END OF FIELD                                          =
(PID.TID 0000.0001) // =======================================================
(PID.TID 0000.0001) 
(PID.TID 0000.0001) // =======================================================
(PID.TID 0000.0001) // Field Initial Salinity at iteration          1
(PID.TID 0000.0001) // CMIN =          3.012869834899902E+01
(PID.TID 0000.0001) // CMAX =          3.487366104125977E+01
(PID.TID 0000.0001) // CINT =          1.757393589726201E-01
(PID.TID 0000.0001) // SYMBOLS (CMIN->CMAX): -abcdefghijklmnopqrstuvwxyz+
(PID.TID 0000.0001) //                  0.0: .
(PID.TID 0000.0001) // RANGE I (Lo:Hi:Step):(   1:  20:   1)
(PID.TID 0000.0001) // RANGE J (Lo:Hi:Step):(  16:   1:  -1)
(PID.TID 0000.0001) // RANGE K (Lo:Hi:Step):(   1:   1:   1)
(PID.TID 0000.0001) // =======================================================
(PID.TID 0000.0001) K =   1
(PID.TID 0000.0001)                I=10      I=20
(PID.TID 0000.0001) |--J--|123456789|123456789|
(PID.TID 0000.0001)     16 .nnos...............
(PID.TID 0000.0001)     15 lnoppppppol.........
(PID.TID 0000.0001)     14 .nponmllllmn........
(PID.TID 0000.0001)     13 ....ljhijkmo........
(PID.TID 0000.0001)     12 ......ghjlmors......
(PID.TID 0000.0001)     11 ........jmnpr.......
(PID.TID 0000.0001)     10 .......jlnpqrq......
(PID.TID 0000.0001)      9 .......noqsttts....w
(PID.TID 0000.0001)      8 .....jlnpsuvwwutu..x
(PID.TID 0000.0001)      7 ......j.rruwxyxxwxxy
(PID.TID 0000.0001)      6 .........ppruxyyzzzz
(PID.TID 0000.0001)      5 ..........ijoswyzzzz
(PID.TID 0000.0001)      4 ............iotwyzzz
(PID.TID 0000.0001)      3 ..........g.imquwyzz
(PID.TID 0000.0001)      2 .......-bef..knqtvxz
(PID.TID 0000.0001)      1 ........-cegijlosvy+
(PID.TID 0000.0001) // =======================================================
(PID.TID 0000.0001) // END OF FIELD                                          =
(PID.TID 0000.0001) // =======================================================
(PID.TID 0000.0001) 
(PID.TID 0000.0001) Start initial hydrostatic pressure computation
(PID.TID 0000.0001) Pressure is predetermined for buoyancyRelation OCEANIC
(PID.TID 0000.0001) 
(PID.TID 0000.0001)  MDS_READ_FIELD: opening file: xx_theta.0000000000.001.001.data
 ph-ctrl theta0 a   0.
 ph-ctrl theta0 b   0.
(PID.TID 0000.0001)  MDS_READ_FIELD: opening file: xx_salt.0000000000.001.001.data
(PID.TID 0000.0001) // =======================================================
(PID.TID 0000.0001) // Model current state
(PID.TID 0000.0001) // =======================================================
(PID.TID 0000.0001) 
(PID.TID 0000.0001) // =======================================================
(PID.TID 0000.0001) // Begin MONITOR SEAICE statistics
(PID.TID 0000.0001) // =======================================================
(PID.TID 0000.0001) %MON seaice_tsnumber              =                     0
(PID.TID 0000.0001) %MON seaice_time_sec              =   0.0000000000000E+00
(PID.TID 0000.0001) %MON seaice_uice_max              =   0.0000000000000E+00
(PID.TID 0000.0001) %MON seaice_uice_min              =   0.0000000000000E+00
(PID.TID 0000.0001) %MON seaice_uice_mean             =   0.0000000000000E+00
(PID.TID 0000.0001) %MON seaice_uice_sd               =   0.0000000000000E+00
(PID.TID 0000.0001) %MON seaice_uice_del2             =   0.0000000000000E+00
(PID.TID 0000.0001) %MON seaice_vice_max              =   0.0000000000000E+00
(PID.TID 0000.0001) %MON seaice_vice_min              =   0.0000000000000E+00
(PID.TID 0000.0001) %MON seaice_vice_mean             =   0.0000000000000E+00
(PID.TID 0000.0001) %MON seaice_vice_sd               =   0.0000000000000E+00
(PID.TID 0000.0001) %MON seaice_vice_del2             =   0.0000000000000E+00
(PID.TID 0000.0001) %MON seaice_area_max              =   1.0000000000000E+00
(PID.TID 0000.0001) %MON seaice_area_min              =   1.0000000000000E+00
(PID.TID 0000.0001) %MON seaice_area_mean             =   1.0000000000000E+00
(PID.TID 0000.0001) %MON seaice_area_sd               =   0.0000000000000E+00
(PID.TID 0000.0001) %MON seaice_area_del2             =   0.0000000000000E+00
(PID.TID 0000.0001) %MON seaice_heff_max              =   1.0000000000000E+00
(PID.TID 0000.0001) %MON seaice_heff_min              =   1.0000000000000E+00
(PID.TID 0000.0001) %MON seaice_heff_mean             =   1.0000000000000E+00
(PID.TID 0000.0001) %MON seaice_heff_sd               =   0.0000000000000E+00
(PID.TID 0000.0001) %MON seaice_heff_del2             =   0.0000000000000E+00
(PID.TID 0000.0001) %MON seaice_hsnow_max             =   2.0000000298023E-01
(PID.TID 0000.0001) %MON seaice_hsnow_min             =   2.0000000298023E-01
(PID.TID 0000.0001) %MON seaice_hsnow_mean            =   2.0000000298023E-01
(PID.TID 0000.0001) %MON seaice_hsnow_sd              =   5.8286708792821E-16
(PID.TID 0000.0001) %MON seaice_hsnow_del2            =   0.0000000000000E+00
(PID.TID 0000.0001) // =======================================================
(PID.TID 0000.0001) // End MONITOR SEAICE statistics
(PID.TID 0000.0001) // =======================================================
(PID.TID 0000.0001)  MDS_READ_FIELD: opening file: xx_atemp.0000000000.001.001.data
(PID.TID 0000.0001)  MDS_READ_FIELD: opening file: xx_atemp.0000000000.001.001.data
(PID.TID 0000.0001)  MDS_READ_FIELD: opening file: xx_aqh.0000000000.001.001.data
(PID.TID 0000.0001)  MDS_READ_FIELD: opening file: xx_aqh.0000000000.001.001.data
(PID.TID 0000.0001)  MDS_READ_FIELD: opening file: xx_precip.0000000000.001.001.data
(PID.TID 0000.0001)  MDS_READ_FIELD: opening file: xx_precip.0000000000.001.001.data
(PID.TID 0000.0001)  MDS_READ_FIELD: opening file: xx_swdown.0000000000.001.001.data
(PID.TID 0000.0001)  MDS_READ_FIELD: opening file: xx_swdown.0000000000.001.001.data
(PID.TID 0000.0001)  MDS_READ_FIELD: opening file: xx_lwdown.0000000000.001.001.data
(PID.TID 0000.0001)  MDS_READ_FIELD: opening file: xx_lwdown.0000000000.001.001.data
(PID.TID 0000.0001)  MDS_READ_FIELD: opening file: xx_snowprecip.0000000000.001.001.data
(PID.TID 0000.0001)  MDS_READ_FIELD: opening file: xx_snowprecip.0000000000.001.001.data
(PID.TID 0000.0001)  MDS_READ_FIELD: opening file: xx_apressure.0000000000.001.001.data
(PID.TID 0000.0001)  MDS_READ_FIELD: opening file: xx_apressure.0000000000.001.001.data
(PID.TID 0000.0001)  MDS_READ_FIELD: opening file: xx_uwind.0000000000.001.001.data
(PID.TID 0000.0001)  MDS_READ_FIELD: opening file: xx_uwind.0000000000.001.001.data
(PID.TID 0000.0001)  MDS_READ_FIELD: opening file: xx_vwind.0000000000.001.001.data
(PID.TID 0000.0001)  MDS_READ_FIELD: opening file: xx_vwind.0000000000.001.001.data
(PID.TID 0000.0001) // =======================================================
(PID.TID 0000.0001) // Begin MONITOR EXF statistics
(PID.TID 0000.0001) // =======================================================
(PID.TID 0000.0001) %MON exf_tsnumber                 =                     0
(PID.TID 0000.0001) %MON exf_time_sec                 =   0.0000000000000E+00
(PID.TID 0000.0001) %MON exf_ustress_max              =   6.3903775845771E-02
(PID.TID 0000.0001) %MON exf_ustress_min              =  -9.5324050318348E-02
(PID.TID 0000.0001) %MON exf_ustress_mean             =   2.2585161820790E-02
(PID.TID 0000.0001) %MON exf_ustress_sd               =   2.7275780019018E-02
(PID.TID 0000.0001) %MON exf_ustress_del2             =   2.9464928316532E-03
(PID.TID 0000.0001) %MON exf_vstress_max              =   5.4708944127586E-02
(PID.TID 0000.0001) %MON exf_vstress_min              =  -6.2488440618747E-02
(PID.TID 0000.0001) %MON exf_vstress_mean             =  -5.6174743543688E-03
(PID.TID 0000.0001) %MON exf_vstress_sd               =   1.5596129732126E-02
(PID.TID 0000.0001) %MON exf_vstress_del2             =   1.7930353897952E-03
(PID.TID 0000.0001) %MON exf_hflux_max                =   7.3111020636161E+02
(PID.TID 0000.0001) %MON exf_hflux_min                =   1.0991726570245E+02
(PID.TID 0000.0001) %MON exf_hflux_mean               =   2.7655954258561E+02
(PID.TID 0000.0001) %MON exf_hflux_sd                 =   1.5872020057142E+02
(PID.TID 0000.0001) %MON exf_hflux_del2               =   1.9324680413847E+01
(PID.TID 0000.0001) %MON exf_sflux_max                =   5.3473262221640E-08
(PID.TID 0000.0001) %MON exf_sflux_min                =  -6.1385296755754E-08
(PID.TID 0000.0001) %MON exf_sflux_mean               =  -7.3062649378480E-09
(PID.TID 0000.0001) %MON exf_sflux_sd                 =   2.6562207669369E-08
(PID.TID 0000.0001) %MON exf_sflux_del2               =   3.6392854947740E-09
(PID.TID 0000.0001) %MON exf_uwind_max                =   6.4643745422363E+00
(PID.TID 0000.0001) %MON exf_uwind_min                =  -6.8372380733490E+00
(PID.TID 0000.0001) %MON exf_uwind_mean               =   2.7697727336031E+00
(PID.TID 0000.0001) %MON exf_uwind_sd                 =   2.9900402496951E+00
(PID.TID 0000.0001) %MON exf_uwind_del2               =   3.1570994739265E-01
(PID.TID 0000.0001) %MON exf_vwind_max                =   3.9240682125092E+00
(PID.TID 0000.0001) %MON exf_vwind_min                =  -6.0197033882141E+00
(PID.TID 0000.0001) %MON exf_vwind_mean               =  -7.6089868124963E-01
(PID.TID 0000.0001) %MON exf_vwind_sd                 =   1.7293437592941E+00
(PID.TID 0000.0001) %MON exf_vwind_del2               =   1.9333263882436E-01
(PID.TID 0000.0001) %MON exf_wspeed_max               =   7.8832820454477E+00
(PID.TID 0000.0001) %MON exf_wspeed_min               =   4.6035219539401E-01
(PID.TID 0000.0001) %MON exf_wspeed_mean              =   4.1981217095273E+00
(PID.TID 0000.0001) %MON exf_wspeed_sd                =   1.5991724245810E+00
(PID.TID 0000.0001) %MON exf_wspeed_del2              =   3.7693667977018E-01
(PID.TID 0000.0001) %MON exf_atemp_max                =   2.8188281250000E+02
(PID.TID 0000.0001) %MON exf_atemp_min                =   2.3646176910400E+02
(PID.TID 0000.0001) %MON exf_atemp_mean               =   2.6394605878816E+02
(PID.TID 0000.0001) %MON exf_atemp_sd                 =   1.1983418302162E+01
(PID.TID 0000.0001) %MON exf_atemp_del2               =   6.4942242667643E-01
(PID.TID 0000.0001) %MON exf_aqh_max                  =   6.3231729436666E-03
(PID.TID 0000.0001) %MON exf_aqh_min                  =   1.6369274817407E-04
(PID.TID 0000.0001) %MON exf_aqh_mean                 =   2.4803629101886E-03
(PID.TID 0000.0001) %MON exf_aqh_sd                   =   1.4265074770275E-03
(PID.TID 0000.0001) %MON exf_aqh_del2                 =   6.8141780599641E-05
(PID.TID 0000.0001) %MON exf_lwflux_max               =   1.9978966060501E+02
(PID.TID 0000.0001) %MON exf_lwflux_min               =   6.3304595803996E+01
(PID.TID 0000.0001) %MON exf_lwflux_mean              =   1.0410079899302E+02
(PID.TID 0000.0001) %MON exf_lwflux_sd                =   3.6519264181786E+01
(PID.TID 0000.0001) %MON exf_lwflux_del2              =   3.1286635970398E+00
(PID.TID 0000.0001) %MON exf_precip_max               =   1.0498766300771E-07
(PID.TID 0000.0001) %MON exf_precip_min               =   2.7359498694368E-10
(PID.TID 0000.0001) %MON exf_precip_mean              =   3.6390080543085E-08
(PID.TID 0000.0001) %MON exf_precip_sd                =   2.0578148171209E-08
(PID.TID 0000.0001) %MON exf_precip_del2              =   2.5551549857431E-09
(PID.TID 0000.0001) %MON exf_snowprecip_max           =   0.0000000000000E+00
(PID.TID 0000.0001) %MON exf_snowprecip_min           =   0.0000000000000E+00
(PID.TID 0000.0001) %MON exf_snowprecip_mean          =   0.0000000000000E+00
(PID.TID 0000.0001) %MON exf_snowprecip_sd            =   0.0000000000000E+00
(PID.TID 0000.0001) %MON exf_snowprecip_del2          =   0.0000000000000E+00
(PID.TID 0000.0001) %MON exf_swflux_max               =  -8.1205755472183E-02
(PID.TID 0000.0001) %MON exf_swflux_min               =  -6.3973114013672E+01
(PID.TID 0000.0001) %MON exf_swflux_mean              =  -2.6453223022948E+01
(PID.TID 0000.0001) %MON exf_swflux_sd                =   1.9625901079469E+01
(PID.TID 0000.0001) %MON exf_swflux_del2              =   4.7901276555285E-01
(PID.TID 0000.0001) %MON exf_evap_max                 =   5.9797470045733E-08
(PID.TID 0000.0001) %MON exf_evap_min                 =   1.0729148721654E-08
(PID.TID 0000.0001) %MON exf_evap_mean                =   2.9083815605237E-08
(PID.TID 0000.0001) %MON exf_evap_sd                  =   9.2938023071457E-09
(PID.TID 0000.0001) %MON exf_evap_del2                =   2.0154590676424E-09
(PID.TID 0000.0001) %MON exf_swdown_max               =   7.1081237792969E+01
(PID.TID 0000.0001) %MON exf_swdown_min               =   9.0228617191315E-02
(PID.TID 0000.0001) %MON exf_swdown_mean              =   2.9392470025498E+01
(PID.TID 0000.0001) %MON exf_swdown_sd                =   2.1806556754965E+01
(PID.TID 0000.0001) %MON exf_swdown_del2              =   5.3223640616983E-01
(PID.TID 0000.0001) %MON exf_lwdown_max               =   3.0567971801758E+02
(PID.TID 0000.0001) %MON exf_lwdown_min               =   1.1599769210815E+02
(PID.TID 0000.0001) %MON exf_lwdown_mean              =   2.2594931695913E+02
(PID.TID 0000.0001) %MON exf_lwdown_sd                =   4.6277429231296E+01
(PID.TID 0000.0001) %MON exf_lwdown_del2              =   3.2438212966919E+00
(PID.TID 0000.0001) %MON exf_apressure_max            =   0.0000000000000E+00
(PID.TID 0000.0001) %MON exf_apressure_min            =   0.0000000000000E+00
(PID.TID 0000.0001) %MON exf_apressure_mean           =   0.0000000000000E+00
(PID.TID 0000.0001) %MON exf_apressure_sd             =   0.0000000000000E+00
(PID.TID 0000.0001) %MON exf_apressure_del2           =   0.0000000000000E+00
(PID.TID 0000.0001) %MON exf_runoff_max               =   0.0000000000000E+00
(PID.TID 0000.0001) %MON exf_runoff_min               =   0.0000000000000E+00
(PID.TID 0000.0001) %MON exf_runoff_mean              =   0.0000000000000E+00
(PID.TID 0000.0001) %MON exf_runoff_sd                =   0.0000000000000E+00
(PID.TID 0000.0001) %MON exf_runoff_del2              =   0.0000000000000E+00
(PID.TID 0000.0001) %MON exf_climsst_max              =   0.0000000000000E+00
(PID.TID 0000.0001) %MON exf_climsst_min              =   0.0000000000000E+00
(PID.TID 0000.0001) %MON exf_climsst_mean             =   0.0000000000000E+00
(PID.TID 0000.0001) %MON exf_climsst_sd               =   0.0000000000000E+00
(PID.TID 0000.0001) %MON exf_climsst_del2             =   0.0000000000000E+00
(PID.TID 0000.0001) %MON exf_climsss_max              =   3.5040330886841E+01
(PID.TID 0000.0001) %MON exf_climsss_min              =   3.0666313171387E+01
(PID.TID 0000.0001) %MON exf_climsss_mean             =   3.3459319600989E+01
(PID.TID 0000.0001) %MON exf_climsss_sd               =   1.0319548925494E+00
(PID.TID 0000.0001) %MON exf_climsss_del2             =   1.0019396146139E-01
(PID.TID 0000.0001) // =======================================================
(PID.TID 0000.0001) // End MONITOR EXF statistics
(PID.TID 0000.0001) // =======================================================
 ph-ice B  0  0.  0.  0.
 ph-ice C  0  5.30354909E+10
 cg2d: Sum(rhs),rhsMax =   1.05818132034585E-15  9.93037467350620E-01
(PID.TID 0000.0001) // =======================================================
(PID.TID 0000.0001) // Begin MONITOR SEAICE statistics
(PID.TID 0000.0001) // =======================================================
(PID.TID 0000.0001) %MON seaice_tsnumber              =                     1
(PID.TID 0000.0001) %MON seaice_time_sec              =   3.6000000000000E+03
(PID.TID 0000.0001) %MON seaice_uice_max              =   1.1830188588838E-01
(PID.TID 0000.0001) %MON seaice_uice_min              =  -3.6947667601810E-02
(PID.TID 0000.0001) %MON seaice_uice_mean             =   4.6351011395841E-02
(PID.TID 0000.0001) %MON seaice_uice_sd               =   4.4551623876367E-02
(PID.TID 0000.0001) %MON seaice_uice_del2             =   2.6893939150909E-03
(PID.TID 0000.0001) %MON seaice_vice_max              =   3.8048078875392E-02
(PID.TID 0000.0001) %MON seaice_vice_min              =  -7.2208311040469E-02
(PID.TID 0000.0001) %MON seaice_vice_mean             =  -1.7212953413442E-02
(PID.TID 0000.0001) %MON seaice_vice_sd               =   2.7498420195410E-02
(PID.TID 0000.0001) %MON seaice_vice_del2             =   2.2712992187913E-03
(PID.TID 0000.0001) %MON seaice_area_max              =   1.0000000000000E+00
(PID.TID 0000.0001) %MON seaice_area_min              =   0.0000000000000E+00
(PID.TID 0000.0001) %MON seaice_area_mean             =   6.3240413682591E-01
(PID.TID 0000.0001) %MON seaice_area_sd               =   4.5166866370763E-01
(PID.TID 0000.0001) %MON seaice_area_del2             =   4.7454786192590E-02
(PID.TID 0000.0001) %MON seaice_heff_max              =   6.0076635272005E-01
(PID.TID 0000.0001) %MON seaice_heff_min              =   0.0000000000000E+00
(PID.TID 0000.0001) %MON seaice_heff_mean             =   1.4887451420742E-01
(PID.TID 0000.0001) %MON seaice_heff_sd               =   1.8287366827094E-01
(PID.TID 0000.0001) %MON seaice_heff_del2             =   1.0146605917084E-02
(PID.TID 0000.0001) %MON seaice_hsnow_max             =   2.0078474686707E-01
(PID.TID 0000.0001) %MON seaice_hsnow_min             =   0.0000000000000E+00
(PID.TID 0000.0001) %MON seaice_hsnow_mean            =   1.1848697056338E-01
(PID.TID 0000.0001) %MON seaice_hsnow_sd              =   9.6623972770983E-02
(PID.TID 0000.0001) %MON seaice_hsnow_del2            =   6.2688952170602E-03
(PID.TID 0000.0001) // =======================================================
(PID.TID 0000.0001) // End MONITOR SEAICE statistics
(PID.TID 0000.0001) // =======================================================
(PID.TID 0000.0001) // =======================================================
(PID.TID 0000.0001) // Begin MONITOR EXF statistics
(PID.TID 0000.0001) // =======================================================
(PID.TID 0000.0001) %MON exf_tsnumber                 =                     1
(PID.TID 0000.0001) %MON exf_time_sec                 =   3.6000000000000E+03
(PID.TID 0000.0001) %MON exf_ustress_max              =   5.2215336216899E-02
(PID.TID 0000.0001) %MON exf_ustress_min              =  -9.3781516255246E-02
(PID.TID 0000.0001) %MON exf_ustress_mean             =   1.7908663959772E-02
(PID.TID 0000.0001) %MON exf_ustress_sd               =   2.3677824564864E-02
(PID.TID 0000.0001) %MON exf_ustress_del2             =   2.8185945121624E-03
(PID.TID 0000.0001) %MON exf_vstress_max              =   5.3823846971061E-02
(PID.TID 0000.0001) %MON exf_vstress_min              =  -5.8521115502029E-02
(PID.TID 0000.0001) %MON exf_vstress_mean             =  -5.4709258621448E-03
(PID.TID 0000.0001) %MON exf_vstress_sd               =   1.4440702221273E-02
(PID.TID 0000.0001) %MON exf_vstress_del2             =   1.6942466375470E-03
(PID.TID 0000.0001) %MON exf_hflux_max                =   6.2467472133264E+02
(PID.TID 0000.0001) %MON exf_hflux_min                =  -5.4116825759641E+01
(PID.TID 0000.0001) %MON exf_hflux_mean               =   1.4693364238313E+02
(PID.TID 0000.0001) %MON exf_hflux_sd                 =   1.8156699353750E+02
(PID.TID 0000.0001) %MON exf_hflux_del2               =   1.6567545565001E+01
(PID.TID 0000.0001) %MON exf_sflux_max                =   3.9008935708334E-08
(PID.TID 0000.0001) %MON exf_sflux_min                =  -8.8902774357601E-08
(PID.TID 0000.0001) %MON exf_sflux_mean               =  -2.5876940875884E-08
(PID.TID 0000.0001) %MON exf_sflux_sd                 =   3.0537598464968E-08
(PID.TID 0000.0001) %MON exf_sflux_del2               =   3.1605976048785E-09
(PID.TID 0000.0001) %MON exf_uwind_max                =   6.4648819946852E+00
(PID.TID 0000.0001) %MON exf_uwind_min                =  -6.8372648550513E+00
(PID.TID 0000.0001) %MON exf_uwind_mean               =   2.7698802859476E+00
(PID.TID 0000.0001) %MON exf_uwind_sd                 =   2.9903162155877E+00
(PID.TID 0000.0001) %MON exf_uwind_del2               =   3.1571785161521E-01
(PID.TID 0000.0001) %MON exf_vwind_max                =   3.9240983933048E+00
(PID.TID 0000.0001) %MON exf_vwind_min                =  -6.0187974783892E+00
(PID.TID 0000.0001) %MON exf_vwind_mean               =  -7.6028090815952E-01
(PID.TID 0000.0001) %MON exf_vwind_sd                 =   1.7294518007626E+00
(PID.TID 0000.0001) %MON exf_vwind_del2               =   1.9332576748242E-01
(PID.TID 0000.0001) %MON exf_wspeed_max               =   7.8833202965791E+00
(PID.TID 0000.0001) %MON exf_wspeed_min               =   4.6010935417159E-01
(PID.TID 0000.0001) %MON exf_wspeed_mean              =   4.1982241536133E+00
(PID.TID 0000.0001) %MON exf_wspeed_sd                =   1.5994287774633E+00
(PID.TID 0000.0001) %MON exf_wspeed_del2              =   3.7699000842292E-01
(PID.TID 0000.0001) %MON exf_atemp_max                =   2.8188110034713E+02
(PID.TID 0000.0001) %MON exf_atemp_min                =   2.3645730413635E+02
(PID.TID 0000.0001) %MON exf_atemp_mean               =   2.6394141469886E+02
(PID.TID 0000.0001) %MON exf_atemp_sd                 =   1.1984878831642E+01
(PID.TID 0000.0001) %MON exf_atemp_del2               =   6.4944176100665E-01
(PID.TID 0000.0001) %MON exf_aqh_max                  =   6.3224764028055E-03
(PID.TID 0000.0001) %MON exf_aqh_min                  =   1.6359864467567E-04
(PID.TID 0000.0001) %MON exf_aqh_mean                 =   2.4798025537840E-03
(PID.TID 0000.0001) %MON exf_aqh_sd                   =   1.4264043737180E-03
(PID.TID 0000.0001) %MON exf_aqh_del2                 =   6.8128113038494E-05
(PID.TID 0000.0001) %MON exf_lwflux_max               =   1.8380784776361E+02
(PID.TID 0000.0001) %MON exf_lwflux_min               =   2.6472644798215E+01
(PID.TID 0000.0001) %MON exf_lwflux_mean              =   7.5350572632925E+01
(PID.TID 0000.0001) %MON exf_lwflux_sd                =   4.3134595524386E+01
(PID.TID 0000.0001) %MON exf_lwflux_del2              =   3.2390977067912E+00
(PID.TID 0000.0001) %MON exf_precip_max               =   1.0498904445033E-07
(PID.TID 0000.0001) %MON exf_precip_min               =   2.7346106047101E-10
(PID.TID 0000.0001) %MON exf_precip_mean              =   3.6390069699050E-08
(PID.TID 0000.0001) %MON exf_precip_sd                =   2.0578598603627E-08
(PID.TID 0000.0001) %MON exf_precip_del2              =   2.5556826789328E-09
(PID.TID 0000.0001) %MON exf_snowprecip_max           =   0.0000000000000E+00
(PID.TID 0000.0001) %MON exf_snowprecip_min           =   0.0000000000000E+00
(PID.TID 0000.0001) %MON exf_snowprecip_mean          =   0.0000000000000E+00
(PID.TID 0000.0001) %MON exf_snowprecip_sd            =   0.0000000000000E+00
(PID.TID 0000.0001) %MON exf_snowprecip_del2          =   0.0000000000000E+00
(PID.TID 0000.0001) %MON exf_swflux_max               =  -8.1206038349965E-02
(PID.TID 0000.0001) %MON exf_swflux_min               =  -6.3991984364244E+01
(PID.TID 0000.0001) %MON exf_swflux_mean              =  -2.6463755238823E+01
(PID.TID 0000.0001) %MON exf_swflux_sd                =   1.9629736696482E+01
(PID.TID 0000.0001) %MON exf_swflux_del2              =   4.7911963949881E-01
(PID.TID 0000.0001) %MON exf_evap_max                 =   4.5332480821497E-08
(PID.TID 0000.0001) %MON exf_evap_min                 =  -4.7524365011618E-09
(PID.TID 0000.0001) %MON exf_evap_mean                =   1.0513128823166E-08
(PID.TID 0000.0001) %MON exf_evap_sd                  =   1.1274583144435E-08
(PID.TID 0000.0001) %MON exf_evap_del2                =   1.3716110068495E-09
(PID.TID 0000.0001) %MON exf_swdown_max               =   7.1102204849160E+01
(PID.TID 0000.0001) %MON exf_swdown_min               =   9.0228931499961E-02
(PID.TID 0000.0001) %MON exf_swdown_mean              =   2.9404172487581E+01
(PID.TID 0000.0001) %MON exf_swdown_sd                =   2.1810818551646E+01
(PID.TID 0000.0001) %MON exf_swdown_del2              =   5.3235515499868E-01
(PID.TID 0000.0001) %MON exf_lwdown_max               =   3.0567089193375E+02
(PID.TID 0000.0001) %MON exf_lwdown_min               =   1.1598258522951E+02
(PID.TID 0000.0001) %MON exf_lwdown_mean              =   2.2593360963007E+02
(PID.TID 0000.0001) %MON exf_lwdown_sd                =   4.6281398610271E+01
(PID.TID 0000.0001) %MON exf_lwdown_del2              =   3.2438329367646E+00
(PID.TID 0000.0001) %MON exf_apressure_max            =   0.0000000000000E+00
(PID.TID 0000.0001) %MON exf_apressure_min            =   0.0000000000000E+00
(PID.TID 0000.0001) %MON exf_apressure_mean           =   0.0000000000000E+00
(PID.TID 0000.0001) %MON exf_apressure_sd             =   0.0000000000000E+00
(PID.TID 0000.0001) %MON exf_apressure_del2           =   0.0000000000000E+00
(PID.TID 0000.0001) %MON exf_runoff_max               =   0.0000000000000E+00
(PID.TID 0000.0001) %MON exf_runoff_min               =   0.0000000000000E+00
(PID.TID 0000.0001) %MON exf_runoff_mean              =   0.0000000000000E+00
(PID.TID 0000.0001) %MON exf_runoff_sd                =   0.0000000000000E+00
(PID.TID 0000.0001) %MON exf_runoff_del2              =   0.0000000000000E+00
(PID.TID 0000.0001) %MON exf_climsst_max              =   0.0000000000000E+00
(PID.TID 0000.0001) %MON exf_climsst_min              =   0.0000000000000E+00
(PID.TID 0000.0001) %MON exf_climsst_mean             =   0.0000000000000E+00
(PID.TID 0000.0001) %MON exf_climsst_sd               =   0.0000000000000E+00
(PID.TID 0000.0001) %MON exf_climsst_del2             =   0.0000000000000E+00
(PID.TID 0000.0001) %MON exf_climsss_max              =   3.5040515633880E+01
(PID.TID 0000.0001) %MON exf_climsss_min              =   3.0667072499385E+01
(PID.TID 0000.0001) %MON exf_climsss_mean             =   3.3459840934468E+01
(PID.TID 0000.0001) %MON exf_climsss_sd               =   1.0318832207269E+00
(PID.TID 0000.0001) %MON exf_climsss_del2             =   1.0017673217099E-01
(PID.TID 0000.0001) // =======================================================
(PID.TID 0000.0001) // End MONITOR EXF statistics
(PID.TID 0000.0001) // =======================================================
 ph-ice B  1  0.  0.  0.
 ph-ice C  1  1.03662084E+11
 cg2d: Sum(rhs),rhsMax =   9.71448643749540E-10  1.19254195625089E+00
(PID.TID 0000.0001) // =======================================================
(PID.TID 0000.0001) // Begin MONITOR SEAICE statistics
(PID.TID 0000.0001) // =======================================================
(PID.TID 0000.0001) %MON seaice_tsnumber              =                     2
(PID.TID 0000.0001) %MON seaice_time_sec              =   7.2000000000000E+03
(PID.TID 0000.0001) %MON seaice_uice_max              =   1.5575757111427E-01
(PID.TID 0000.0001) %MON seaice_uice_min              =  -8.0942741430966E-02
(PID.TID 0000.0001) %MON seaice_uice_mean             =   6.5168649731092E-02
(PID.TID 0000.0001) %MON seaice_uice_sd               =   6.1631643032811E-02
(PID.TID 0000.0001) %MON seaice_uice_del2             =   6.8706904468829E-03
(PID.TID 0000.0001) %MON seaice_vice_max              =   7.0616929311014E-02
(PID.TID 0000.0001) %MON seaice_vice_min              =  -1.3662299947234E-01
(PID.TID 0000.0001) %MON seaice_vice_mean             =  -2.1829812689504E-02
(PID.TID 0000.0001) %MON seaice_vice_sd               =   4.1312329518751E-02
(PID.TID 0000.0001) %MON seaice_vice_del2             =   5.3521934542567E-03
(PID.TID 0000.0001) %MON seaice_area_max              =   1.0000000000000E+00
(PID.TID 0000.0001) %MON seaice_area_min              =   0.0000000000000E+00
(PID.TID 0000.0001) %MON seaice_area_mean             =   6.2511450884161E-01
(PID.TID 0000.0001) %MON seaice_area_sd               =   4.5918077802076E-01
(PID.TID 0000.0001) %MON seaice_area_del2             =   5.3309135322965E-02
(PID.TID 0000.0001) %MON seaice_heff_max              =   5.5572638142240E-01
(PID.TID 0000.0001) %MON seaice_heff_min              =   0.0000000000000E+00
(PID.TID 0000.0001) %MON seaice_heff_mean             =   1.4211256276287E-01
(PID.TID 0000.0001) %MON seaice_heff_sd               =   1.7471336183630E-01
(PID.TID 0000.0001) %MON seaice_heff_del2             =   1.3300800056197E-02
(PID.TID 0000.0001) %MON seaice_hsnow_max             =   2.0156957952176E-01
(PID.TID 0000.0001) %MON seaice_hsnow_min             =   0.0000000000000E+00
(PID.TID 0000.0001) %MON seaice_hsnow_mean            =   1.1798259565184E-01
(PID.TID 0000.0001) %MON seaice_hsnow_sd              =   9.6675387962263E-02
(PID.TID 0000.0001) %MON seaice_hsnow_del2            =   6.3372971187470E-03
(PID.TID 0000.0001) // =======================================================
(PID.TID 0000.0001) // End MONITOR SEAICE statistics
(PID.TID 0000.0001) // =======================================================
(PID.TID 0000.0001) // =======================================================
(PID.TID 0000.0001) // Begin MONITOR EXF statistics
(PID.TID 0000.0001) // =======================================================
(PID.TID 0000.0001) %MON exf_tsnumber                 =                     2
(PID.TID 0000.0001) %MON exf_time_sec                 =   7.2000000000000E+03
(PID.TID 0000.0001) %MON exf_ustress_max              =   5.2234389551241E-02
(PID.TID 0000.0001) %MON exf_ustress_min              =  -9.3783873525021E-02
(PID.TID 0000.0001) %MON exf_ustress_mean             =   1.7912601986793E-02
(PID.TID 0000.0001) %MON exf_ustress_sd               =   2.3689566746111E-02
(PID.TID 0000.0001) %MON exf_ustress_del2             =   2.8175390184117E-03
(PID.TID 0000.0001) %MON exf_vstress_max              =   5.3825403016462E-02
(PID.TID 0000.0001) %MON exf_vstress_min              =  -5.8501907463670E-02
(PID.TID 0000.0001) %MON exf_vstress_mean             =  -5.4571896078099E-03
(PID.TID 0000.0001) %MON exf_vstress_sd               =   1.4439148710761E-02
(PID.TID 0000.0001) %MON exf_vstress_del2             =   1.6937326092935E-03
(PID.TID 0000.0001) %MON exf_hflux_max                =   6.2473671698450E+02
(PID.TID 0000.0001) %MON exf_hflux_min                =  -5.1856944043789E+01
(PID.TID 0000.0001) %MON exf_hflux_mean               =   1.4603891457765E+02
(PID.TID 0000.0001) %MON exf_hflux_sd                 =   1.8006278982764E+02
(PID.TID 0000.0001) %MON exf_hflux_del2               =   1.6304062469259E+01
(PID.TID 0000.0001) %MON exf_sflux_max                =   3.9010172880204E-08
(PID.TID 0000.0001) %MON exf_sflux_min                =  -8.8920778732677E-08
(PID.TID 0000.0001) %MON exf_sflux_mean               =  -2.5980919691027E-08
(PID.TID 0000.0001) %MON exf_sflux_sd                 =   3.0374070338555E-08
(PID.TID 0000.0001) %MON exf_sflux_del2               =   3.1602146238533E-09
(PID.TID 0000.0001) %MON exf_uwind_max                =   6.4653894471340E+00
(PID.TID 0000.0001) %MON exf_uwind_min                =  -6.8372916367536E+00
(PID.TID 0000.0001) %MON exf_uwind_mean               =   2.7699878382920E+00
(PID.TID 0000.0001) %MON exf_uwind_sd                 =   2.9905922217476E+00
(PID.TID 0000.0001) %MON exf_uwind_del2               =   3.1572575583776E-01
(PID.TID 0000.0001) %MON exf_vwind_max                =   3.9241285741003E+00
(PID.TID 0000.0001) %MON exf_vwind_min                =  -6.0178915685643E+00
(PID.TID 0000.0001) %MON exf_vwind_mean               =  -7.5966313506940E-01
(PID.TID 0000.0001) %MON exf_vwind_sd                 =   1.7295599554900E+00
(PID.TID 0000.0001) %MON exf_vwind_del2               =   1.9331889614049E-01
(PID.TID 0000.0001) %MON exf_wspeed_max               =   7.8833585477315E+00
(PID.TID 0000.0001) %MON exf_wspeed_min               =   4.5986651533145E-01
(PID.TID 0000.0001) %MON exf_wspeed_mean              =   4.1983267266652E+00
(PID.TID 0000.0001) %MON exf_wspeed_sd                =   1.5996852426804E+00
(PID.TID 0000.0001) %MON exf_wspeed_del2              =   3.7704333058266E-01
(PID.TID 0000.0001) %MON exf_atemp_max                =   2.8187938819427E+02
(PID.TID 0000.0001) %MON exf_atemp_min                =   2.3645283916869E+02
(PID.TID 0000.0001) %MON exf_atemp_mean               =   2.6393677060956E+02
(PID.TID 0000.0001) %MON exf_atemp_sd                 =   1.1986339848932E+01
(PID.TID 0000.0001) %MON exf_atemp_del2               =   6.4946109533687E-01
(PID.TID 0000.0001) %MON exf_aqh_max                  =   6.3217798619445E-03
(PID.TID 0000.0001) %MON exf_aqh_min                  =   1.6350454117726E-04
(PID.TID 0000.0001) %MON exf_aqh_mean                 =   2.4792421973794E-03
(PID.TID 0000.0001) %MON exf_aqh_sd                   =   1.4263013062694E-03
(PID.TID 0000.0001) %MON exf_aqh_del2                 =   6.8114445477348E-05
(PID.TID 0000.0001) %MON exf_lwflux_max               =   1.8153743597504E+02
(PID.TID 0000.0001) %MON exf_lwflux_min               =   2.6999313161451E+01
(PID.TID 0000.0001) %MON exf_lwflux_mean              =   7.5148003037555E+01
(PID.TID 0000.0001) %MON exf_lwflux_sd                =   4.2803183324651E+01
(PID.TID 0000.0001) %MON exf_lwflux_del2              =   3.2353096167107E+00
(PID.TID 0000.0001) %MON exf_precip_max               =   1.0499042589295E-07
(PID.TID 0000.0001) %MON exf_precip_min               =   2.7332713399833E-10
(PID.TID 0000.0001) %MON exf_precip_mean              =   3.6390058855016E-08
(PID.TID 0000.0001) %MON exf_precip_sd                =   2.0579049691733E-08
(PID.TID 0000.0001) %MON exf_precip_del2              =   2.5562103721225E-09
(PID.TID 0000.0001) %MON exf_snowprecip_max           =   0.0000000000000E+00
(PID.TID 0000.0001) %MON exf_snowprecip_min           =   0.0000000000000E+00
(PID.TID 0000.0001) %MON exf_snowprecip_mean          =   0.0000000000000E+00
(PID.TID 0000.0001) %MON exf_snowprecip_sd            =   0.0000000000000E+00
(PID.TID 0000.0001) %MON exf_snowprecip_del2          =   0.0000000000000E+00
(PID.TID 0000.0001) %MON exf_swflux_max               =  -8.1206321227746E-02
(PID.TID 0000.0001) %MON exf_swflux_min               =  -6.4010854714816E+01
(PID.TID 0000.0001) %MON exf_swflux_mean              =  -2.6474287454698E+01
(PID.TID 0000.0001) %MON exf_swflux_sd                =   1.9633572905820E+01
(PID.TID 0000.0001) %MON exf_swflux_del2              =   4.7922651344477E-01
(PID.TID 0000.0001) %MON exf_evap_max                 =   4.5333055282436E-08
(PID.TID 0000.0001) %MON exf_evap_min                 =  -4.3262573270113E-09
(PID.TID 0000.0001) %MON exf_evap_mean                =   1.0409139163989E-08
(PID.TID 0000.0001) %MON exf_evap_sd                  =   1.1101640379210E-08
(PID.TID 0000.0001) %MON exf_evap_del2                =   1.3339356630849E-09
(PID.TID 0000.0001) %MON exf_swdown_max               =   7.1123171905351E+01
(PID.TID 0000.0001) %MON exf_swdown_min               =   9.0229245808607E-02
(PID.TID 0000.0001) %MON exf_swdown_mean              =   2.9415874949665E+01
(PID.TID 0000.0001) %MON exf_swdown_sd                =   2.1815081006466E+01
(PID.TID 0000.0001) %MON exf_swdown_del2              =   5.3247390382752E-01
(PID.TID 0000.0001) %MON exf_lwdown_max               =   3.0566206584993E+02
(PID.TID 0000.0001) %MON exf_lwdown_min               =   1.1596747835086E+02
(PID.TID 0000.0001) %MON exf_lwdown_mean              =   2.2591790230100E+02
(PID.TID 0000.0001) %MON exf_lwdown_sd                =   4.6285369157136E+01
(PID.TID 0000.0001) %MON exf_lwdown_del2              =   3.2438445768374E+00
(PID.TID 0000.0001) %MON exf_apressure_max            =   0.0000000000000E+00
(PID.TID 0000.0001) %MON exf_apressure_min            =   0.0000000000000E+00
(PID.TID 0000.0001) %MON exf_apressure_mean           =   0.0000000000000E+00
(PID.TID 0000.0001) %MON exf_apressure_sd             =   0.0000000000000E+00
(PID.TID 0000.0001) %MON exf_apressure_del2           =   0.0000000000000E+00
(PID.TID 0000.0001) %MON exf_runoff_max               =   0.0000000000000E+00
(PID.TID 0000.0001) %MON exf_runoff_min               =   0.0000000000000E+00
(PID.TID 0000.0001) %MON exf_runoff_mean              =   0.0000000000000E+00
(PID.TID 0000.0001) %MON exf_runoff_sd                =   0.0000000000000E+00
(PID.TID 0000.0001) %MON exf_runoff_del2              =   0.0000000000000E+00
(PID.TID 0000.0001) %MON exf_climsst_max              =   0.0000000000000E+00
(PID.TID 0000.0001) %MON exf_climsst_min              =   0.0000000000000E+00
(PID.TID 0000.0001) %MON exf_climsst_mean             =   0.0000000000000E+00
(PID.TID 0000.0001) %MON exf_climsst_sd               =   0.0000000000000E+00
(PID.TID 0000.0001) %MON exf_climsst_del2             =   0.0000000000000E+00
(PID.TID 0000.0001) %MON exf_climsss_max              =   3.5040700380919E+01
(PID.TID 0000.0001) %MON exf_climsss_min              =   3.0667831827383E+01
(PID.TID 0000.0001) %MON exf_climsss_mean             =   3.3460362267948E+01
(PID.TID 0000.0001) %MON exf_climsss_sd               =   1.0318117788237E+00
(PID.TID 0000.0001) %MON exf_climsss_del2             =   1.0015950288060E-01
(PID.TID 0000.0001) // =======================================================
(PID.TID 0000.0001) // End MONITOR EXF statistics
(PID.TID 0000.0001) // =======================================================
 ph-ice B  2  0.  0.  0.
 ph-ice C  2  1.54286126E+11
 cg2d: Sum(rhs),rhsMax =  -4.69101198857791E-10  1.21345933319825E+00
(PID.TID 0000.0001) // =======================================================
(PID.TID 0000.0001) // Begin MONITOR SEAICE statistics
(PID.TID 0000.0001) // =======================================================
(PID.TID 0000.0001) %MON seaice_tsnumber              =                     3
(PID.TID 0000.0001) %MON seaice_time_sec              =   1.0800000000000E+04
(PID.TID 0000.0001) %MON seaice_uice_max              =   1.7677554872992E-01
(PID.TID 0000.0001) %MON seaice_uice_min              =  -9.9473388719801E-02
(PID.TID 0000.0001) %MON seaice_uice_mean             =   7.5385001154235E-02
(PID.TID 0000.0001) %MON seaice_uice_sd               =   7.1157132898647E-02
(PID.TID 0000.0001) %MON seaice_uice_del2             =   8.3170551567510E-03
(PID.TID 0000.0001) %MON seaice_vice_max              =   8.9019951965373E-02
(PID.TID 0000.0001) %MON seaice_vice_min              =  -1.7696029803934E-01
(PID.TID 0000.0001) %MON seaice_vice_mean             =  -2.9256776420922E-02
(PID.TID 0000.0001) %MON seaice_vice_sd               =   5.2264404162772E-02
(PID.TID 0000.0001) %MON seaice_vice_del2             =   6.1178194667153E-03
(PID.TID 0000.0001) %MON seaice_area_max              =   1.0000000000000E+00
(PID.TID 0000.0001) %MON seaice_area_min              =   0.0000000000000E+00
(PID.TID 0000.0001) %MON seaice_area_mean             =   6.2473160801955E-01
(PID.TID 0000.0001) %MON seaice_area_sd               =   4.5913422382416E-01
(PID.TID 0000.0001) %MON seaice_area_del2             =   5.3480646812417E-02
(PID.TID 0000.0001) %MON seaice_heff_max              =   5.5368221576291E-01
(PID.TID 0000.0001) %MON seaice_heff_min              =   0.0000000000000E+00
(PID.TID 0000.0001) %MON seaice_heff_mean             =   1.4210539861118E-01
(PID.TID 0000.0001) %MON seaice_heff_sd               =   1.7434508669080E-01
(PID.TID 0000.0001) %MON seaice_heff_del2             =   1.3231250028195E-02
(PID.TID 0000.0001) %MON seaice_hsnow_max             =   2.0235454638389E-01
(PID.TID 0000.0001) %MON seaice_hsnow_min             =   0.0000000000000E+00
(PID.TID 0000.0001) %MON seaice_hsnow_mean            =   1.1801725658723E-01
(PID.TID 0000.0001) %MON seaice_hsnow_sd              =   9.6786605530350E-02
(PID.TID 0000.0001) %MON seaice_hsnow_del2            =   6.3531464967009E-03
(PID.TID 0000.0001) // =======================================================
(PID.TID 0000.0001) // End MONITOR SEAICE statistics
(PID.TID 0000.0001) // =======================================================
(PID.TID 0000.0001) // =======================================================
(PID.TID 0000.0001) // Begin MONITOR EXF statistics
(PID.TID 0000.0001) // =======================================================
(PID.TID 0000.0001) %MON exf_tsnumber                 =                     3
(PID.TID 0000.0001) %MON exf_time_sec                 =   1.0800000000000E+04
(PID.TID 0000.0001) %MON exf_ustress_max              =   5.2220278364572E-02
(PID.TID 0000.0001) %MON exf_ustress_min              =  -9.3786644941843E-02
(PID.TID 0000.0001) %MON exf_ustress_mean             =   1.7925094867592E-02
(PID.TID 0000.0001) %MON exf_ustress_sd               =   2.3700143569706E-02
(PID.TID 0000.0001) %MON exf_ustress_del2             =   2.8158746957771E-03
(PID.TID 0000.0001) %MON exf_vstress_max              =   5.3827196762903E-02
(PID.TID 0000.0001) %MON exf_vstress_min              =  -5.8480358160305E-02
(PID.TID 0000.0001) %MON exf_vstress_mean             =  -5.4532183411097E-03
(PID.TID 0000.0001) %MON exf_vstress_sd               =   1.4440792457813E-02
(PID.TID 0000.0001) %MON exf_vstress_del2             =   1.6929393308095E-03
(PID.TID 0000.0001) %MON exf_hflux_max                =   6.2482499785037E+02
(PID.TID 0000.0001) %MON exf_hflux_min                =  -5.1652096229543E+01
(PID.TID 0000.0001) %MON exf_hflux_mean               =   1.4608870439060E+02
(PID.TID 0000.0001) %MON exf_hflux_sd                 =   1.8003234084903E+02
(PID.TID 0000.0001) %MON exf_hflux_del2               =   1.6307603339210E+01
(PID.TID 0000.0001) %MON exf_sflux_max                =   3.9014761130189E-08
(PID.TID 0000.0001) %MON exf_sflux_min                =  -8.8949891199065E-08
(PID.TID 0000.0001) %MON exf_sflux_mean               =  -2.5974537357862E-08
(PID.TID 0000.0001) %MON exf_sflux_sd                 =   3.0366721041331E-08
(PID.TID 0000.0001) %MON exf_sflux_del2               =   3.1622833545810E-09
(PID.TID 0000.0001) %MON exf_uwind_max                =   6.4658968995829E+00
(PID.TID 0000.0001) %MON exf_uwind_min                =  -6.8373184184559E+00
(PID.TID 0000.0001) %MON exf_uwind_mean               =   2.7700953906364E+00
(PID.TID 0000.0001) %MON exf_uwind_sd                 =   2.9908682681638E+00
(PID.TID 0000.0001) %MON exf_uwind_del2               =   3.1573366006031E-01
(PID.TID 0000.0001) %MON exf_vwind_max                =   3.9241587548959E+00
(PID.TID 0000.0001) %MON exf_vwind_min                =  -6.0169856587394E+00
(PID.TID 0000.0001) %MON exf_vwind_mean               =  -7.5904536197929E-01
(PID.TID 0000.0001) %MON exf_vwind_sd                 =   1.7296682234552E+00
(PID.TID 0000.0001) %MON exf_vwind_del2               =   1.9331202479855E-01
(PID.TID 0000.0001) %MON exf_wspeed_max               =   7.8833967989048E+00
(PID.TID 0000.0001) %MON exf_wspeed_min               =   4.5962367887737E-01
(PID.TID 0000.0001) %MON exf_wspeed_mean              =   4.1984294286706E+00
(PID.TID 0000.0001) %MON exf_wspeed_sd                =   1.5999418201857E+00
(PID.TID 0000.0001) %MON exf_wspeed_del2              =   3.7709664625274E-01
(PID.TID 0000.0001) %MON exf_atemp_max                =   2.8187767604140E+02
(PID.TID 0000.0001) %MON exf_atemp_min                =   2.3644837420104E+02
(PID.TID 0000.0001) %MON exf_atemp_mean               =   2.6393212652025E+02
(PID.TID 0000.0001) %MON exf_atemp_sd                 =   1.1987801353856E+01
(PID.TID 0000.0001) %MON exf_atemp_del2               =   6.4948042966709E-01
(PID.TID 0000.0001) %MON exf_aqh_max                  =   6.3210833210834E-03
(PID.TID 0000.0001) %MON exf_aqh_min                  =   1.6341043767886E-04
(PID.TID 0000.0001) %MON exf_aqh_mean                 =   2.4786818409748E-03
(PID.TID 0000.0001) %MON exf_aqh_sd                   =   1.4261982746893E-03
(PID.TID 0000.0001) %MON exf_aqh_del2                 =   6.8100777916201E-05
(PID.TID 0000.0001) %MON exf_lwflux_max               =   1.8153866759519E+02
(PID.TID 0000.0001) %MON exf_lwflux_min               =   2.7117659269129E+01
(PID.TID 0000.0001) %MON exf_lwflux_mean              =   7.5167336271735E+01
(PID.TID 0000.0001) %MON exf_lwflux_sd                =   4.2791334916261E+01
(PID.TID 0000.0001) %MON exf_lwflux_del2              =   3.2353470346331E+00
(PID.TID 0000.0001) %MON exf_precip_max               =   1.0499180733557E-07
(PID.TID 0000.0001) %MON exf_precip_min               =   2.7319320752566E-10
(PID.TID 0000.0001) %MON exf_precip_mean              =   3.6390048010982E-08
(PID.TID 0000.0001) %MON exf_precip_sd                =   2.0579501435483E-08
(PID.TID 0000.0001) %MON exf_precip_del2              =   2.5567380653122E-09
(PID.TID 0000.0001) %MON exf_snowprecip_max           =   0.0000000000000E+00
(PID.TID 0000.0001) %MON exf_snowprecip_min           =   0.0000000000000E+00
(PID.TID 0000.0001) %MON exf_snowprecip_mean          =   0.0000000000000E+00
(PID.TID 0000.0001) %MON exf_snowprecip_sd            =   0.0000000000000E+00
(PID.TID 0000.0001) %MON exf_snowprecip_del2          =   0.0000000000000E+00
(PID.TID 0000.0001) %MON exf_swflux_max               =  -8.1206604105527E-02
(PID.TID 0000.0001) %MON exf_swflux_min               =  -6.4029725065388E+01
(PID.TID 0000.0001) %MON exf_swflux_mean              =  -2.6484819670573E+01
(PID.TID 0000.0001) %MON exf_swflux_sd                =   1.9637409707136E+01
(PID.TID 0000.0001) %MON exf_swflux_del2              =   4.7933338739073E-01
(PID.TID 0000.0001) %MON exf_evap_max                 =   4.5336980821491E-08
(PID.TID 0000.0001) %MON exf_evap_min                 =  -4.2852111093064E-09
(PID.TID 0000.0001) %MON exf_evap_mean                =   1.0415510653120E-08
(PID.TID 0000.0001) %MON exf_evap_sd                  =   1.1091289011433E-08
(PID.TID 0000.0001) %MON exf_evap_del2                =   1.3330271329600E-09
(PID.TID 0000.0001) %MON exf_swdown_max               =   7.1144138961542E+01
(PID.TID 0000.0001) %MON exf_swdown_min               =   9.0229560117253E-02
(PID.TID 0000.0001) %MON exf_swdown_mean              =   2.9427577411748E+01
(PID.TID 0000.0001) %MON exf_swdown_sd                =   2.1819344119040E+01
(PID.TID 0000.0001) %MON exf_swdown_del2              =   5.3259265265636E-01
(PID.TID 0000.0001) %MON exf_lwdown_max               =   3.0565323976611E+02
(PID.TID 0000.0001) %MON exf_lwdown_min               =   1.1595237147222E+02
(PID.TID 0000.0001) %MON exf_lwdown_mean              =   2.2590219497194E+02
(PID.TID 0000.0001) %MON exf_lwdown_sd                =   4.6289340871590E+01
(PID.TID 0000.0001) %MON exf_lwdown_del2              =   3.2438562169101E+00
(PID.TID 0000.0001) %MON exf_apressure_max            =   0.0000000000000E+00
(PID.TID 0000.0001) %MON exf_apressure_min            =   0.0000000000000E+00
(PID.TID 0000.0001) %MON exf_apressure_mean           =   0.0000000000000E+00
(PID.TID 0000.0001) %MON exf_apressure_sd             =   0.0000000000000E+00
(PID.TID 0000.0001) %MON exf_apressure_del2           =   0.0000000000000E+00
(PID.TID 0000.0001) %MON exf_runoff_max               =   0.0000000000000E+00
(PID.TID 0000.0001) %MON exf_runoff_min               =   0.0000000000000E+00
(PID.TID 0000.0001) %MON exf_runoff_mean              =   0.0000000000000E+00
(PID.TID 0000.0001) %MON exf_runoff_sd                =   0.0000000000000E+00
(PID.TID 0000.0001) %MON exf_runoff_del2              =   0.0000000000000E+00
(PID.TID 0000.0001) %MON exf_climsst_max              =   0.0000000000000E+00
(PID.TID 0000.0001) %MON exf_climsst_min              =   0.0000000000000E+00
(PID.TID 0000.0001) %MON exf_climsst_mean             =   0.0000000000000E+00
(PID.TID 0000.0001) %MON exf_climsst_sd               =   0.0000000000000E+00
(PID.TID 0000.0001) %MON exf_climsst_del2             =   0.0000000000000E+00
(PID.TID 0000.0001) %MON exf_climsss_max              =   3.5040885127959E+01
(PID.TID 0000.0001) %MON exf_climsss_min              =   3.0668591155380E+01
(PID.TID 0000.0001) %MON exf_climsss_mean             =   3.3460883601427E+01
(PID.TID 0000.0001) %MON exf_climsss_sd               =   1.0317405668875E+00
(PID.TID 0000.0001) %MON exf_climsss_del2             =   1.0014227359021E-01
(PID.TID 0000.0001) // =======================================================
(PID.TID 0000.0001) // End MONITOR EXF statistics
(PID.TID 0000.0001) // =======================================================
 ph-ice B  3  0.  0.  0.
 ph-ice C  3  2.04933421E+11
 cg2d: Sum(rhs),rhsMax =   3.25075090561178E-08  1.21053584961057E+00
(PID.TID 0000.0001) // =======================================================
(PID.TID 0000.0001) // Begin MONITOR SEAICE statistics
(PID.TID 0000.0001) // =======================================================
(PID.TID 0000.0001) %MON seaice_tsnumber              =                     4
(PID.TID 0000.0001) %MON seaice_time_sec              =   1.4400000000000E+04
(PID.TID 0000.0001) %MON seaice_uice_max              =   2.0410589048717E-01
(PID.TID 0000.0001) %MON seaice_uice_min              =  -1.0820664027344E-01
(PID.TID 0000.0001) %MON seaice_uice_mean             =   8.1218831876520E-02
(PID.TID 0000.0001) %MON seaice_uice_sd               =   7.8521023595195E-02
(PID.TID 0000.0001) %MON seaice_uice_del2             =   9.4129550390131E-03
(PID.TID 0000.0001) %MON seaice_vice_max              =   9.9288343207283E-02
(PID.TID 0000.0001) %MON seaice_vice_min              =  -1.9612309364185E-01
(PID.TID 0000.0001) %MON seaice_vice_mean             =  -3.7794416054976E-02
(PID.TID 0000.0001) %MON seaice_vice_sd               =   6.1057438128367E-02
(PID.TID 0000.0001) %MON seaice_vice_del2             =   6.9481563470089E-03
(PID.TID 0000.0001) %MON seaice_area_max              =   1.0000000000000E+00
(PID.TID 0000.0001) %MON seaice_area_min              =   0.0000000000000E+00
(PID.TID 0000.0001) %MON seaice_area_mean             =   6.2448959807148E-01
(PID.TID 0000.0001) %MON seaice_area_sd               =   4.5884280256174E-01
(PID.TID 0000.0001) %MON seaice_area_del2             =   5.3567592036885E-02
(PID.TID 0000.0001) %MON seaice_heff_max              =   5.5146835059086E-01
(PID.TID 0000.0001) %MON seaice_heff_min              =   0.0000000000000E+00
(PID.TID 0000.0001) %MON seaice_heff_mean             =   1.4217067202338E-01
(PID.TID 0000.0001) %MON seaice_heff_sd               =   1.7418023534434E-01
(PID.TID 0000.0001) %MON seaice_heff_del2             =   1.3239961915551E-02
(PID.TID 0000.0001) %MON seaice_hsnow_max             =   2.0313961711978E-01
(PID.TID 0000.0001) %MON seaice_hsnow_min             =   0.0000000000000E+00
(PID.TID 0000.0001) %MON seaice_hsnow_mean            =   1.1810788894720E-01
(PID.TID 0000.0001) %MON seaice_hsnow_sd              =   9.6917239052142E-02
(PID.TID 0000.0001) %MON seaice_hsnow_del2            =   6.4249667979951E-03
(PID.TID 0000.0001) // =======================================================
(PID.TID 0000.0001) // End MONITOR SEAICE statistics
(PID.TID 0000.0001) // =======================================================
(PID.TID 0000.0001) // =======================================================
(PID.TID 0000.0001) // Begin MONITOR EXF statistics
(PID.TID 0000.0001) // =======================================================
(PID.TID 0000.0001) %MON exf_tsnumber                 =                     4
(PID.TID 0000.0001) %MON exf_time_sec                 =   1.4400000000000E+04
(PID.TID 0000.0001) %MON exf_ustress_max              =   5.2222749041046E-02
(PID.TID 0000.0001) %MON exf_ustress_min              =  -9.3790194486454E-02
(PID.TID 0000.0001) %MON exf_ustress_mean             =   1.7935662782554E-02
(PID.TID 0000.0001) %MON exf_ustress_sd               =   2.3707712300154E-02
(PID.TID 0000.0001) %MON exf_ustress_del2             =   2.8164274512195E-03
(PID.TID 0000.0001) %MON exf_vstress_max              =   5.3829437114216E-02
(PID.TID 0000.0001) %MON exf_vstress_min              =  -5.8464476572385E-02
(PID.TID 0000.0001) %MON exf_vstress_mean             =  -5.4495376908295E-03
(PID.TID 0000.0001) %MON exf_vstress_sd               =   1.4442680481914E-02
(PID.TID 0000.0001) %MON exf_vstress_del2             =   1.6931341852784E-03
(PID.TID 0000.0001) %MON exf_hflux_max                =   6.2496267398705E+02
(PID.TID 0000.0001) %MON exf_hflux_min                =  -5.1565362852709E+01
(PID.TID 0000.0001) %MON exf_hflux_mean               =   1.4615661520938E+02
(PID.TID 0000.0001) %MON exf_hflux_sd                 =   1.8002235616890E+02
(PID.TID 0000.0001) %MON exf_hflux_del2               =   1.6301994695341E+01
(PID.TID 0000.0001) %MON exf_sflux_max                =   3.9025647077273E-08
(PID.TID 0000.0001) %MON exf_sflux_min                =  -8.8952139751959E-08
(PID.TID 0000.0001) %MON exf_sflux_mean               =  -2.5966970128251E-08
(PID.TID 0000.0001) %MON exf_sflux_sd                 =   3.0361914850489E-08
(PID.TID 0000.0001) %MON exf_sflux_del2               =   3.1623391683758E-09
(PID.TID 0000.0001) %MON exf_uwind_max                =   6.4664043520318E+00
(PID.TID 0000.0001) %MON exf_uwind_min                =  -6.8373452001582E+00
(PID.TID 0000.0001) %MON exf_uwind_mean               =   2.7702029429808E+00
(PID.TID 0000.0001) %MON exf_uwind_sd                 =   2.9911443548250E+00
(PID.TID 0000.0001) %MON exf_uwind_del2               =   3.1574156428286E-01
(PID.TID 0000.0001) %MON exf_vwind_max                =   3.9241889356915E+00
(PID.TID 0000.0001) %MON exf_vwind_min                =  -6.0160797489145E+00
(PID.TID 0000.0001) %MON exf_vwind_mean               =  -7.5842758888917E-01
(PID.TID 0000.0001) %MON exf_vwind_sd                 =   1.7297766046368E+00
(PID.TID 0000.0001) %MON exf_vwind_del2               =   1.9330515345662E-01
(PID.TID 0000.0001) %MON exf_wspeed_max               =   7.8834350500991E+00
(PID.TID 0000.0001) %MON exf_wspeed_min               =   4.5938084481311E-01
(PID.TID 0000.0001) %MON exf_wspeed_mean              =   4.1985322596174E+00
(PID.TID 0000.0001) %MON exf_wspeed_sd                =   1.6001985099325E+00
(PID.TID 0000.0001) %MON exf_wspeed_del2              =   3.7714995543655E-01
(PID.TID 0000.0001) %MON exf_atemp_max                =   2.8187596388853E+02
(PID.TID 0000.0001) %MON exf_atemp_min                =   2.3644390923339E+02
(PID.TID 0000.0001) %MON exf_atemp_mean               =   2.6392748243095E+02
(PID.TID 0000.0001) %MON exf_atemp_sd                 =   1.1989263346233E+01
(PID.TID 0000.0001) %MON exf_atemp_del2               =   6.4949976399731E-01
(PID.TID 0000.0001) %MON exf_aqh_max                  =   6.3203867802223E-03
(PID.TID 0000.0001) %MON exf_aqh_min                  =   1.6331633418045E-04
(PID.TID 0000.0001) %MON exf_aqh_mean                 =   2.4781214845702E-03
(PID.TID 0000.0001) %MON exf_aqh_sd                   =   1.4260952789855E-03
(PID.TID 0000.0001) %MON exf_aqh_del2                 =   6.8087110355054E-05
(PID.TID 0000.0001) %MON exf_lwflux_max               =   1.8154800702574E+02
(PID.TID 0000.0001) %MON exf_lwflux_min               =   2.7104463755573E+01
(PID.TID 0000.0001) %MON exf_lwflux_mean              =   7.5190186584920E+01
(PID.TID 0000.0001) %MON exf_lwflux_sd                =   4.2783227285345E+01
(PID.TID 0000.0001) %MON exf_lwflux_del2              =   3.2333533323891E+00
(PID.TID 0000.0001) %MON exf_precip_max               =   1.0499318877820E-07
(PID.TID 0000.0001) %MON exf_precip_min               =   2.7305928105298E-10
(PID.TID 0000.0001) %MON exf_precip_mean              =   3.6390037166947E-08
(PID.TID 0000.0001) %MON exf_precip_sd                =   2.0579953834835E-08
(PID.TID 0000.0001) %MON exf_precip_del2              =   2.5572657585019E-09
(PID.TID 0000.0001) %MON exf_snowprecip_max           =   0.0000000000000E+00
(PID.TID 0000.0001) %MON exf_snowprecip_min           =   0.0000000000000E+00
(PID.TID 0000.0001) %MON exf_snowprecip_mean          =   0.0000000000000E+00
(PID.TID 0000.0001) %MON exf_snowprecip_sd            =   0.0000000000000E+00
(PID.TID 0000.0001) %MON exf_snowprecip_del2          =   0.0000000000000E+00
(PID.TID 0000.0001) %MON exf_swflux_max               =  -8.1206886983309E-02
(PID.TID 0000.0001) %MON exf_swflux_min               =  -6.4048595415960E+01
(PID.TID 0000.0001) %MON exf_swflux_mean              =  -2.6495351886448E+01
(PID.TID 0000.0001) %MON exf_swflux_sd                =   1.9641247100083E+01
(PID.TID 0000.0001) %MON exf_swflux_del2              =   4.7944026133668E-01
(PID.TID 0000.0001) %MON exf_evap_max                 =   4.5347204057645E-08
(PID.TID 0000.0001) %MON exf_evap_min                 =  -4.2663929306588E-09
(PID.TID 0000.0001) %MON exf_evap_mean                =   1.0423067038697E-08
(PID.TID 0000.0001) %MON exf_evap_sd                  =   1.1085437928241E-08
(PID.TID 0000.0001) %MON exf_evap_del2                =   1.3323739778287E-09
(PID.TID 0000.0001) %MON exf_swdown_max               =   7.1165106017733E+01
(PID.TID 0000.0001) %MON exf_swdown_min               =   9.0229874425898E-02
(PID.TID 0000.0001) %MON exf_swdown_mean              =   2.9439279873831E+01
(PID.TID 0000.0001) %MON exf_swdown_sd                =   2.1823607888981E+01
(PID.TID 0000.0001) %MON exf_swdown_del2              =   5.3271140148521E-01
(PID.TID 0000.0001) %MON exf_lwdown_max               =   3.0564441368228E+02
(PID.TID 0000.0001) %MON exf_lwdown_min               =   1.1593726459357E+02
(PID.TID 0000.0001) %MON exf_lwdown_mean              =   2.2588648764287E+02
(PID.TID 0000.0001) %MON exf_lwdown_sd                =   4.6293313753333E+01
(PID.TID 0000.0001) %MON exf_lwdown_del2              =   3.2438678569828E+00
(PID.TID 0000.0001) %MON exf_apressure_max            =   0.0000000000000E+00
(PID.TID 0000.0001) %MON exf_apressure_min            =   0.0000000000000E+00
(PID.TID 0000.0001) %MON exf_apressure_mean           =   0.0000000000000E+00
(PID.TID 0000.0001) %MON exf_apressure_sd             =   0.0000000000000E+00
(PID.TID 0000.0001) %MON exf_apressure_del2           =   0.0000000000000E+00
(PID.TID 0000.0001) %MON exf_runoff_max               =   0.0000000000000E+00
(PID.TID 0000.0001) %MON exf_runoff_min               =   0.0000000000000E+00
(PID.TID 0000.0001) %MON exf_runoff_mean              =   0.0000000000000E+00
(PID.TID 0000.0001) %MON exf_runoff_sd                =   0.0000000000000E+00
(PID.TID 0000.0001) %MON exf_runoff_del2              =   0.0000000000000E+00
(PID.TID 0000.0001) %MON exf_climsst_max              =   0.0000000000000E+00
(PID.TID 0000.0001) %MON exf_climsst_min              =   0.0000000000000E+00
(PID.TID 0000.0001) %MON exf_climsst_mean             =   0.0000000000000E+00
(PID.TID 0000.0001) %MON exf_climsst_sd               =   0.0000000000000E+00
(PID.TID 0000.0001) %MON exf_climsst_del2             =   0.0000000000000E+00
(PID.TID 0000.0001) %MON exf_climsss_max              =   3.5041069874998E+01
(PID.TID 0000.0001) %MON exf_climsss_min              =   3.0669350483378E+01
(PID.TID 0000.0001) %MON exf_climsss_mean             =   3.3461404934907E+01
(PID.TID 0000.0001) %MON exf_climsss_sd               =   1.0316695849659E+00
(PID.TID 0000.0001) %MON exf_climsss_del2             =   1.0012504429982E-01
(PID.TID 0000.0001) // =======================================================
(PID.TID 0000.0001) // End MONITOR EXF statistics
(PID.TID 0000.0001) // =======================================================
 ph-ice B  4  0.  0.  0.
 ph-ice C  4  2.5560439E+11
 cg2d: Sum(rhs),rhsMax =   3.22655263479410E-08  1.20538351318685E+00
(PID.TID 0000.0001) // =======================================================
(PID.TID 0000.0001) // Begin MONITOR SEAICE statistics
(PID.TID 0000.0001) // =======================================================
(PID.TID 0000.0001) %MON seaice_tsnumber              =                     5
(PID.TID 0000.0001) %MON seaice_time_sec              =   1.8000000000000E+04
(PID.TID 0000.0001) %MON seaice_uice_max              =   2.1945394874924E-01
(PID.TID 0000.0001) %MON seaice_uice_min              =  -1.0939009902186E-01
(PID.TID 0000.0001) %MON seaice_uice_mean             =   8.3080851213413E-02
(PID.TID 0000.0001) %MON seaice_uice_sd               =   8.3462754076787E-02
(PID.TID 0000.0001) %MON seaice_uice_del2             =   1.0024638737908E-02
(PID.TID 0000.0001) %MON seaice_vice_max              =   1.0086669146992E-01
(PID.TID 0000.0001) %MON seaice_vice_min              =  -1.9808188881180E-01
(PID.TID 0000.0001) %MON seaice_vice_mean             =  -4.6968560251214E-02
(PID.TID 0000.0001) %MON seaice_vice_sd               =   6.7920803767857E-02
(PID.TID 0000.0001) %MON seaice_vice_del2             =   7.5957001449761E-03
(PID.TID 0000.0001) %MON seaice_area_max              =   1.0000000000000E+00
(PID.TID 0000.0001) %MON seaice_area_min              =   0.0000000000000E+00
(PID.TID 0000.0001) %MON seaice_area_mean             =   6.2430145716379E-01
(PID.TID 0000.0001) %MON seaice_area_sd               =   4.5848061279950E-01
(PID.TID 0000.0001) %MON seaice_area_del2             =   5.3614995840002E-02
(PID.TID 0000.0001) %MON seaice_heff_max              =   5.4903937822394E-01
(PID.TID 0000.0001) %MON seaice_heff_min              =   0.0000000000000E+00
(PID.TID 0000.0001) %MON seaice_heff_mean             =   1.4223712847879E-01
(PID.TID 0000.0001) %MON seaice_heff_sd               =   1.7414910895088E-01
(PID.TID 0000.0001) %MON seaice_heff_del2             =   1.3251337875321E-02
(PID.TID 0000.0001) %MON seaice_hsnow_max             =   2.0392476353420E-01
(PID.TID 0000.0001) %MON seaice_hsnow_min             =   0.0000000000000E+00
(PID.TID 0000.0001) %MON seaice_hsnow_mean            =   1.1825099134626E-01
(PID.TID 0000.0001) %MON seaice_hsnow_sd              =   9.7044356048239E-02
(PID.TID 0000.0001) %MON seaice_hsnow_del2            =   6.4762509696287E-03
(PID.TID 0000.0001) // =======================================================
(PID.TID 0000.0001) // End MONITOR SEAICE statistics
(PID.TID 0000.0001) // =======================================================
(PID.TID 0000.0001) // =======================================================
(PID.TID 0000.0001) // Begin MONITOR EXF statistics
(PID.TID 0000.0001) // =======================================================
(PID.TID 0000.0001) %MON exf_tsnumber                 =                     5
(PID.TID 0000.0001) %MON exf_time_sec                 =   1.8000000000000E+04
(PID.TID 0000.0001) %MON exf_ustress_max              =   5.2230884117583E-02
(PID.TID 0000.0001) %MON exf_ustress_min              =  -9.3792692313509E-02
(PID.TID 0000.0001) %MON exf_ustress_mean             =   1.7944939389779E-02
(PID.TID 0000.0001) %MON exf_ustress_sd               =   2.3713963692261E-02
(PID.TID 0000.0001) %MON exf_ustress_del2             =   2.8173056609576E-03
(PID.TID 0000.0001) %MON exf_vstress_max              =   5.3831073859948E-02
(PID.TID 0000.0001) %MON exf_vstress_min              =  -5.8456785540531E-02
(PID.TID 0000.0001) %MON exf_vstress_mean             =  -5.4464516477818E-03
(PID.TID 0000.0001) %MON exf_vstress_sd               =   1.4444944930948E-02
(PID.TID 0000.0001) %MON exf_vstress_del2             =   1.6932729359128E-03
(PID.TID 0000.0001) %MON exf_hflux_max                =   6.2503361232607E+02
(PID.TID 0000.0001) %MON exf_hflux_min                =  -5.1451597528377E+01
(PID.TID 0000.0001) %MON exf_hflux_mean               =   1.4623265293664E+02
(PID.TID 0000.0001) %MON exf_hflux_sd                 =   1.8002328114270E+02
(PID.TID 0000.0001) %MON exf_hflux_del2               =   1.6300993889249E+01
(PID.TID 0000.0001) %MON exf_sflux_max                =   3.9028023656348E-08
(PID.TID 0000.0001) %MON exf_sflux_min                =  -8.8915527500607E-08
(PID.TID 0000.0001) %MON exf_sflux_mean               =  -2.5958886913894E-08
(PID.TID 0000.0001) %MON exf_sflux_sd                 =   3.0357856739946E-08
(PID.TID 0000.0001) %MON exf_sflux_del2               =   3.1625193945016E-09
(PID.TID 0000.0001) %MON exf_uwind_max                =   6.4669118044806E+00
(PID.TID 0000.0001) %MON exf_uwind_min                =  -6.8373719818605E+00
(PID.TID 0000.0001) %MON exf_uwind_mean               =   2.7703104953252E+00
(PID.TID 0000.0001) %MON exf_uwind_sd                 =   2.9914204817202E+00
(PID.TID 0000.0001) %MON exf_uwind_del2               =   3.1574946850541E-01
(PID.TID 0000.0001) %MON exf_vwind_max                =   3.9242191164871E+00
(PID.TID 0000.0001) %MON exf_vwind_min                =  -6.0151738390896E+00
(PID.TID 0000.0001) %MON exf_vwind_mean               =  -7.5780981579906E-01
(PID.TID 0000.0001) %MON exf_vwind_sd                 =   1.7298850990135E+00
(PID.TID 0000.0001) %MON exf_vwind_del2               =   1.9329828211469E-01
(PID.TID 0000.0001) %MON exf_wspeed_max               =   7.8834733013142E+00
(PID.TID 0000.0001) %MON exf_wspeed_min               =   4.5913801314248E-01
(PID.TID 0000.0001) %MON exf_wspeed_mean              =   4.1986352194932E+00
(PID.TID 0000.0001) %MON exf_wspeed_sd                =   1.6004553118739E+00
(PID.TID 0000.0001) %MON exf_wspeed_del2              =   3.7720325813743E-01
(PID.TID 0000.0001) %MON exf_atemp_max                =   2.8187425173567E+02
(PID.TID 0000.0001) %MON exf_atemp_min                =   2.3643944426573E+02
(PID.TID 0000.0001) %MON exf_atemp_mean               =   2.6392283834165E+02
(PID.TID 0000.0001) %MON exf_atemp_sd                 =   1.1990725825888E+01
(PID.TID 0000.0001) %MON exf_atemp_del2               =   6.4951909832753E-01
(PID.TID 0000.0001) %MON exf_aqh_max                  =   6.3196902393613E-03
(PID.TID 0000.0001) %MON exf_aqh_min                  =   1.6322223068205E-04
(PID.TID 0000.0001) %MON exf_aqh_mean                 =   2.4775611281656E-03
(PID.TID 0000.0001) %MON exf_aqh_sd                   =   1.4259923191659E-03
(PID.TID 0000.0001) %MON exf_aqh_del2                 =   6.8073442793907E-05
(PID.TID 0000.0001) %MON exf_lwflux_max               =   1.8156112611884E+02
(PID.TID 0000.0001) %MON exf_lwflux_min               =   2.7075633018946E+01
(PID.TID 0000.0001) %MON exf_lwflux_mean              =   7.5214645819272E+01
(PID.TID 0000.0001) %MON exf_lwflux_sd                =   4.2777642460333E+01
(PID.TID 0000.0001) %MON exf_lwflux_del2              =   3.2323839369965E+00
(PID.TID 0000.0001) %MON exf_precip_max               =   1.0499457022082E-07
(PID.TID 0000.0001) %MON exf_precip_min               =   2.7292535458031E-10
(PID.TID 0000.0001) %MON exf_precip_mean              =   3.6390026322913E-08
(PID.TID 0000.0001) %MON exf_precip_sd                =   2.0580406889746E-08
(PID.TID 0000.0001) %MON exf_precip_del2              =   2.5577934516916E-09
(PID.TID 0000.0001) %MON exf_snowprecip_max           =   0.0000000000000E+00
(PID.TID 0000.0001) %MON exf_snowprecip_min           =   0.0000000000000E+00
(PID.TID 0000.0001) %MON exf_snowprecip_mean          =   0.0000000000000E+00
(PID.TID 0000.0001) %MON exf_snowprecip_sd            =   0.0000000000000E+00
(PID.TID 0000.0001) %MON exf_snowprecip_del2          =   0.0000000000000E+00
(PID.TID 0000.0001) %MON exf_swflux_max               =  -8.1207169861090E-02
(PID.TID 0000.0001) %MON exf_swflux_min               =  -6.4067465766532E+01
(PID.TID 0000.0001) %MON exf_swflux_mean              =  -2.6505884102323E+01
(PID.TID 0000.0001) %MON exf_swflux_sd                =   1.9645085084315E+01
(PID.TID 0000.0001) %MON exf_swflux_del2              =   4.7954713528264E-01
(PID.TID 0000.0001) %MON exf_evap_max                 =   4.5348917925789E-08
(PID.TID 0000.0001) %MON exf_evap_min                 =  -4.2424751720986E-09
(PID.TID 0000.0001) %MON exf_evap_mean                =   1.0431139409019E-08
(PID.TID 0000.0001) %MON exf_evap_sd                  =   1.1081500682256E-08
(PID.TID 0000.0001) %MON exf_evap_del2                =   1.3323415456411E-09
(PID.TID 0000.0001) %MON exf_swdown_max               =   7.1186073073924E+01
(PID.TID 0000.0001) %MON exf_swdown_min               =   9.0230188734544E-02
(PID.TID 0000.0001) %MON exf_swdown_mean              =   2.9450982335914E+01
(PID.TID 0000.0001) %MON exf_swdown_sd                =   2.1827872315905E+01
(PID.TID 0000.0001) %MON exf_swdown_del2              =   5.3283015031405E-01
(PID.TID 0000.0001) %MON exf_lwdown_max               =   3.0563558759846E+02
(PID.TID 0000.0001) %MON exf_lwdown_min               =   1.1592215771493E+02
(PID.TID 0000.0001) %MON exf_lwdown_mean              =   2.2587078031381E+02
(PID.TID 0000.0001) %MON exf_lwdown_sd                =   4.6297287802066E+01
(PID.TID 0000.0001) %MON exf_lwdown_del2              =   3.2438794970556E+00
(PID.TID 0000.0001) %MON exf_apressure_max            =   0.0000000000000E+00
(PID.TID 0000.0001) %MON exf_apressure_min            =   0.0000000000000E+00
(PID.TID 0000.0001) %MON exf_apressure_mean           =   0.0000000000000E+00
(PID.TID 0000.0001) %MON exf_apressure_sd             =   0.0000000000000E+00
(PID.TID 0000.0001) %MON exf_apressure_del2           =   0.0000000000000E+00
(PID.TID 0000.0001) %MON exf_runoff_max               =   0.0000000000000E+00
(PID.TID 0000.0001) %MON exf_runoff_min               =   0.0000000000000E+00
(PID.TID 0000.0001) %MON exf_runoff_mean              =   0.0000000000000E+00
(PID.TID 0000.0001) %MON exf_runoff_sd                =   0.0000000000000E+00
(PID.TID 0000.0001) %MON exf_runoff_del2              =   0.0000000000000E+00
(PID.TID 0000.0001) %MON exf_climsst_max              =   0.0000000000000E+00
(PID.TID 0000.0001) %MON exf_climsst_min              =   0.0000000000000E+00
(PID.TID 0000.0001) %MON exf_climsst_mean             =   0.0000000000000E+00
(PID.TID 0000.0001) %MON exf_climsst_sd               =   0.0000000000000E+00
(PID.TID 0000.0001) %MON exf_climsst_del2             =   0.0000000000000E+00
(PID.TID 0000.0001) %MON exf_climsss_max              =   3.5041254622037E+01
(PID.TID 0000.0001) %MON exf_climsss_min              =   3.0670109811376E+01
(PID.TID 0000.0001) %MON exf_climsss_mean             =   3.3461926268386E+01
(PID.TID 0000.0001) %MON exf_climsss_sd               =   1.0315988331065E+00
(PID.TID 0000.0001) %MON exf_climsss_del2             =   1.0010781500943E-01
(PID.TID 0000.0001) // =======================================================
(PID.TID 0000.0001) // End MONITOR EXF statistics
(PID.TID 0000.0001) // =======================================================
 ph-ice B  5  0.  0.  0.
 ph-ice C  5  3.06281655E+11
 cg2d: Sum(rhs),rhsMax =   3.20073224452377E-08  1.19996672319595E+00
(PID.TID 0000.0001) // =======================================================
(PID.TID 0000.0001) // Begin MONITOR SEAICE statistics
(PID.TID 0000.0001) // =======================================================
(PID.TID 0000.0001) %MON seaice_tsnumber              =                     6
(PID.TID 0000.0001) %MON seaice_time_sec              =   2.1600000000000E+04
(PID.TID 0000.0001) %MON seaice_uice_max              =   2.3992767921925E-01
(PID.TID 0000.0001) %MON seaice_uice_min              =  -1.0534849502405E-01
(PID.TID 0000.0001) %MON seaice_uice_mean             =   8.0980865471008E-02
(PID.TID 0000.0001) %MON seaice_uice_sd               =   8.5694060468735E-02
(PID.TID 0000.0001) %MON seaice_uice_del2             =   1.0079227027757E-02
(PID.TID 0000.0001) %MON seaice_vice_max              =   9.8351447679333E-02
(PID.TID 0000.0001) %MON seaice_vice_min              =  -2.1228924531455E-01
(PID.TID 0000.0001) %MON seaice_vice_mean             =  -5.4937548090699E-02
(PID.TID 0000.0001) %MON seaice_vice_sd               =   7.2061958216801E-02
(PID.TID 0000.0001) %MON seaice_vice_del2             =   8.0226597273880E-03
(PID.TID 0000.0001) %MON seaice_area_max              =   1.0000000000000E+00
(PID.TID 0000.0001) %MON seaice_area_min              =   0.0000000000000E+00
(PID.TID 0000.0001) %MON seaice_area_mean             =   6.2417683917654E-01
(PID.TID 0000.0001) %MON seaice_area_sd               =   4.5808411377503E-01
(PID.TID 0000.0001) %MON seaice_area_del2             =   5.3631191678433E-02
(PID.TID 0000.0001) %MON seaice_heff_max              =   5.4790358803121E-01
(PID.TID 0000.0001) %MON seaice_heff_min              =   0.0000000000000E+00
(PID.TID 0000.0001) %MON seaice_heff_mean             =   1.4225480074738E-01
(PID.TID 0000.0001) %MON seaice_heff_sd               =   1.7422528252295E-01
(PID.TID 0000.0001) %MON seaice_heff_del2             =   1.3241137153046E-02
(PID.TID 0000.0001) %MON seaice_hsnow_max             =   2.0470995401277E-01
(PID.TID 0000.0001) %MON seaice_hsnow_min             =   0.0000000000000E+00
(PID.TID 0000.0001) %MON seaice_hsnow_mean            =   1.1841143347488E-01
(PID.TID 0000.0001) %MON seaice_hsnow_sd              =   9.7165681938947E-02
(PID.TID 0000.0001) %MON seaice_hsnow_del2            =   6.5148328830923E-03
(PID.TID 0000.0001) // =======================================================
(PID.TID 0000.0001) // End MONITOR SEAICE statistics
(PID.TID 0000.0001) // =======================================================
(PID.TID 0000.0001) // =======================================================
(PID.TID 0000.0001) // Begin MONITOR EXF statistics
(PID.TID 0000.0001) // =======================================================
(PID.TID 0000.0001) %MON exf_tsnumber                 =                     6
(PID.TID 0000.0001) %MON exf_time_sec                 =   2.1600000000000E+04
(PID.TID 0000.0001) %MON exf_ustress_max              =   5.2237984457704E-02
(PID.TID 0000.0001) %MON exf_ustress_min              =  -9.3794680426842E-02
(PID.TID 0000.0001) %MON exf_ustress_mean             =   1.7953011486595E-02
(PID.TID 0000.0001) %MON exf_ustress_sd               =   2.3720087071552E-02
(PID.TID 0000.0001) %MON exf_ustress_del2             =   2.8182311459232E-03
(PID.TID 0000.0001) %MON exf_vstress_max              =   5.3832418070363E-02
(PID.TID 0000.0001) %MON exf_vstress_min              =  -5.8451170700692E-02
(PID.TID 0000.0001) %MON exf_vstress_mean             =  -5.4433704185216E-03
(PID.TID 0000.0001) %MON exf_vstress_sd               =   1.4447187519711E-02
(PID.TID 0000.0001) %MON exf_vstress_del2             =   1.6932775734004E-03
(PID.TID 0000.0001) %MON exf_hflux_max                =   6.2507220073316E+02
(PID.TID 0000.0001) %MON exf_hflux_min                =  -5.1351197176272E+01
(PID.TID 0000.0001) %MON exf_hflux_mean               =   1.4630891769917E+02
(PID.TID 0000.0001) %MON exf_hflux_sd                 =   1.8003247602669E+02
(PID.TID 0000.0001) %MON exf_hflux_del2               =   1.6303846198602E+01
(PID.TID 0000.0001) %MON exf_sflux_max                =   3.9026275524024E-08
(PID.TID 0000.0001) %MON exf_sflux_min                =  -8.8868954898381E-08
(PID.TID 0000.0001) %MON exf_sflux_mean               =  -2.5950944531660E-08
(PID.TID 0000.0001) %MON exf_sflux_sd                 =   3.0354685722847E-08
(PID.TID 0000.0001) %MON exf_sflux_del2               =   3.1631148973242E-09
(PID.TID 0000.0001) %MON exf_uwind_max                =   6.4674192569295E+00
(PID.TID 0000.0001) %MON exf_uwind_min                =  -6.8373987635628E+00
(PID.TID 0000.0001) %MON exf_uwind_mean               =   2.7704180476696E+00
(PID.TID 0000.0001) %MON exf_uwind_sd                 =   2.9916966488382E+00
(PID.TID 0000.0001) %MON exf_uwind_del2               =   3.1575737272796E-01
(PID.TID 0000.0001) %MON exf_vwind_max                =   3.9242492972827E+00
(PID.TID 0000.0001) %MON exf_vwind_min                =  -6.0142679292648E+00
(PID.TID 0000.0001) %MON exf_vwind_mean               =  -7.5719204270894E-01
(PID.TID 0000.0001) %MON exf_vwind_sd                 =   1.7299937065642E+00
(PID.TID 0000.0001) %MON exf_vwind_del2               =   1.9329141077275E-01
(PID.TID 0000.0001) %MON exf_wspeed_max               =   7.8835115525503E+00
(PID.TID 0000.0001) %MON exf_wspeed_min               =   4.5889518386928E-01
(PID.TID 0000.0001) %MON exf_wspeed_mean              =   4.1987383082859E+00
(PID.TID 0000.0001) %MON exf_wspeed_sd                =   1.6007122259633E+00
(PID.TID 0000.0001) %MON exf_wspeed_del2              =   3.7725655435875E-01
(PID.TID 0000.0001) %MON exf_atemp_max                =   2.8187253958280E+02
(PID.TID 0000.0001) %MON exf_atemp_min                =   2.3643497929808E+02
(PID.TID 0000.0001) %MON exf_atemp_mean               =   2.6391819425235E+02
(PID.TID 0000.0001) %MON exf_atemp_sd                 =   1.1992188792640E+01
(PID.TID 0000.0001) %MON exf_atemp_del2               =   6.4953843265774E-01
(PID.TID 0000.0001) %MON exf_aqh_max                  =   6.3189936985002E-03
(PID.TID 0000.0001) %MON exf_aqh_min                  =   1.6312812718364E-04
(PID.TID 0000.0001) %MON exf_aqh_mean                 =   2.4770007717611E-03
(PID.TID 0000.0001) %MON exf_aqh_sd                   =   1.4258893952382E-03
(PID.TID 0000.0001) %MON exf_aqh_del2                 =   6.8059775232760E-05
(PID.TID 0000.0001) %MON exf_lwflux_max               =   1.8157457967830E+02
(PID.TID 0000.0001) %MON exf_lwflux_min               =   2.7062314430238E+01
(PID.TID 0000.0001) %MON exf_lwflux_mean              =   7.5238117864751E+01
(PID.TID 0000.0001) %MON exf_lwflux_sd                =   4.2774671705246E+01
(PID.TID 0000.0001) %MON exf_lwflux_del2              =   3.2322287731089E+00
(PID.TID 0000.0001) %MON exf_precip_max               =   1.0499595166344E-07
(PID.TID 0000.0001) %MON exf_precip_min               =   2.7279142810763E-10
(PID.TID 0000.0001) %MON exf_precip_mean              =   3.6390015478879E-08
(PID.TID 0000.0001) %MON exf_precip_sd                =   2.0580860600171E-08
(PID.TID 0000.0001) %MON exf_precip_del2              =   2.5583211448813E-09
(PID.TID 0000.0001) %MON exf_snowprecip_max           =   0.0000000000000E+00
(PID.TID 0000.0001) %MON exf_snowprecip_min           =   0.0000000000000E+00
(PID.TID 0000.0001) %MON exf_snowprecip_mean          =   0.0000000000000E+00
(PID.TID 0000.0001) %MON exf_snowprecip_sd            =   0.0000000000000E+00
(PID.TID 0000.0001) %MON exf_snowprecip_del2          =   0.0000000000000E+00
(PID.TID 0000.0001) %MON exf_swflux_max               =  -8.1207452738871E-02
(PID.TID 0000.0001) %MON exf_swflux_min               =  -6.4086336117103E+01
(PID.TID 0000.0001) %MON exf_swflux_mean              =  -2.6516416318198E+01
(PID.TID 0000.0001) %MON exf_swflux_sd                =   1.9648923659484E+01
(PID.TID 0000.0001) %MON exf_swflux_del2              =   4.7965400922860E-01
(PID.TID 0000.0001) %MON exf_evap_max                 =   4.5346507082535E-08
(PID.TID 0000.0001) %MON exf_evap_min                 =  -4.2210682147144E-09
(PID.TID 0000.0001) %MON exf_evap_mean                =   1.0439070947219E-08
(PID.TID 0000.0001) %MON exf_evap_sd                  =   1.1078855248892E-08
(PID.TID 0000.0001) %MON exf_evap_del2                =   1.3326434699326E-09
(PID.TID 0000.0001) %MON exf_swdown_max               =   7.1207040130115E+01
(PID.TID 0000.0001) %MON exf_swdown_min               =   9.0230503043190E-02
(PID.TID 0000.0001) %MON exf_swdown_mean              =   2.9462684797997E+01
(PID.TID 0000.0001) %MON exf_swdown_sd                =   2.1832137399427E+01
(PID.TID 0000.0001) %MON exf_swdown_del2              =   5.3294889914289E-01
(PID.TID 0000.0001) %MON exf_lwdown_max               =   3.0562676151463E+02
(PID.TID 0000.0001) %MON exf_lwdown_min               =   1.1590705083628E+02
(PID.TID 0000.0001) %MON exf_lwdown_mean              =   2.2585507298474E+02
(PID.TID 0000.0001) %MON exf_lwdown_sd                =   4.6301263017486E+01
(PID.TID 0000.0001) %MON exf_lwdown_del2              =   3.2438911371283E+00
(PID.TID 0000.0001) %MON exf_apressure_max            =   0.0000000000000E+00
(PID.TID 0000.0001) %MON exf_apressure_min            =   0.0000000000000E+00
(PID.TID 0000.0001) %MON exf_apressure_mean           =   0.0000000000000E+00
(PID.TID 0000.0001) %MON exf_apressure_sd             =   0.0000000000000E+00
(PID.TID 0000.0001) %MON exf_apressure_del2           =   0.0000000000000E+00
(PID.TID 0000.0001) %MON exf_runoff_max               =   0.0000000000000E+00
(PID.TID 0000.0001) %MON exf_runoff_min               =   0.0000000000000E+00
(PID.TID 0000.0001) %MON exf_runoff_mean              =   0.0000000000000E+00
(PID.TID 0000.0001) %MON exf_runoff_sd                =   0.0000000000000E+00
(PID.TID 0000.0001) %MON exf_runoff_del2              =   0.0000000000000E+00
(PID.TID 0000.0001) %MON exf_climsst_max              =   0.0000000000000E+00
(PID.TID 0000.0001) %MON exf_climsst_min              =   0.0000000000000E+00
(PID.TID 0000.0001) %MON exf_climsst_mean             =   0.0000000000000E+00
(PID.TID 0000.0001) %MON exf_climsst_sd               =   0.0000000000000E+00
(PID.TID 0000.0001) %MON exf_climsst_del2             =   0.0000000000000E+00
(PID.TID 0000.0001) %MON exf_climsss_max              =   3.5041439369077E+01
(PID.TID 0000.0001) %MON exf_climsss_min              =   3.0670869139374E+01
(PID.TID 0000.0001) %MON exf_climsss_mean             =   3.3462447601866E+01
(PID.TID 0000.0001) %MON exf_climsss_sd               =   1.0315283113566E+00
(PID.TID 0000.0001) %MON exf_climsss_del2             =   1.0009058571904E-01
(PID.TID 0000.0001) // =======================================================
(PID.TID 0000.0001) // End MONITOR EXF statistics
(PID.TID 0000.0001) // =======================================================
 ph-ice B  6  0.  0.  0.
 ph-ice C  6  3.56943187E+11
 cg2d: Sum(rhs),rhsMax =   3.26975317897771E-08  1.19247381665437E+00
(PID.TID 0000.0001) // =======================================================
(PID.TID 0000.0001) // Begin MONITOR SEAICE statistics
(PID.TID 0000.0001) // =======================================================
(PID.TID 0000.0001) %MON seaice_tsnumber              =                     7
(PID.TID 0000.0001) %MON seaice_time_sec              =   2.5200000000000E+04
(PID.TID 0000.0001) %MON seaice_uice_max              =   2.5685577279950E-01
(PID.TID 0000.0001) %MON seaice_uice_min              =  -9.7750591653162E-02
(PID.TID 0000.0001) %MON seaice_uice_mean             =   7.6055135826490E-02
(PID.TID 0000.0001) %MON seaice_uice_sd               =   8.5421365996214E-02
(PID.TID 0000.0001) %MON seaice_uice_del2             =   9.6583800986394E-03
(PID.TID 0000.0001) %MON seaice_vice_max              =   9.3826162069003E-02
(PID.TID 0000.0001) %MON seaice_vice_min              =  -2.2536421277427E-01
(PID.TID 0000.0001) %MON seaice_vice_mean             =  -6.0012401257275E-02
(PID.TID 0000.0001) %MON seaice_vice_sd               =   7.2852906874881E-02
(PID.TID 0000.0001) %MON seaice_vice_del2             =   8.1656074762131E-03
(PID.TID 0000.0001) %MON seaice_area_max              =   1.0000000000000E+00
(PID.TID 0000.0001) %MON seaice_area_min              =   0.0000000000000E+00
(PID.TID 0000.0001) %MON seaice_area_mean             =   6.2408684054347E-01
(PID.TID 0000.0001) %MON seaice_area_sd               =   4.5772403798833E-01
(PID.TID 0000.0001) %MON seaice_area_del2             =   5.3629414072045E-02
(PID.TID 0000.0001) %MON seaice_heff_max              =   5.4815057630961E-01
(PID.TID 0000.0001) %MON seaice_heff_min              =   0.0000000000000E+00
(PID.TID 0000.0001) %MON seaice_heff_mean             =   1.4221063790837E-01
(PID.TID 0000.0001) %MON seaice_heff_sd               =   1.7437182044214E-01
(PID.TID 0000.0001) %MON seaice_heff_del2             =   1.3220515055142E-02
(PID.TID 0000.0001) %MON seaice_hsnow_max             =   2.0549515084231E-01
(PID.TID 0000.0001) %MON seaice_hsnow_min             =   0.0000000000000E+00
(PID.TID 0000.0001) %MON seaice_hsnow_mean            =   1.1857184786481E-01
(PID.TID 0000.0001) %MON seaice_hsnow_sd              =   9.7287286136260E-02
(PID.TID 0000.0001) %MON seaice_hsnow_del2            =   6.5537586321646E-03
(PID.TID 0000.0001) // =======================================================
(PID.TID 0000.0001) // End MONITOR SEAICE statistics
(PID.TID 0000.0001) // =======================================================
(PID.TID 0000.0001) // =======================================================
(PID.TID 0000.0001) // Begin MONITOR EXF statistics
(PID.TID 0000.0001) // =======================================================
(PID.TID 0000.0001) %MON exf_tsnumber                 =                     7
(PID.TID 0000.0001) %MON exf_time_sec                 =   2.5200000000000E+04
(PID.TID 0000.0001) %MON exf_ustress_max              =   5.2243932821499E-02
(PID.TID 0000.0001) %MON exf_ustress_min              =  -9.3796695311270E-02
(PID.TID 0000.0001) %MON exf_ustress_mean             =   1.7960115955392E-02
(PID.TID 0000.0001) %MON exf_ustress_sd               =   2.3726167590762E-02
(PID.TID 0000.0001) %MON exf_ustress_del2             =   2.8191137734492E-03
(PID.TID 0000.0001) %MON exf_vstress_max              =   5.3833777652830E-02
(PID.TID 0000.0001) %MON exf_vstress_min              =  -5.8440994811674E-02
(PID.TID 0000.0001) %MON exf_vstress_mean             =  -5.4400595470133E-03
(PID.TID 0000.0001) %MON exf_vstress_sd               =   1.4449140465896E-02
(PID.TID 0000.0001) %MON exf_vstress_del2             =   1.6932574785058E-03
(PID.TID 0000.0001) %MON exf_hflux_max                =   6.2511249114519E+02
(PID.TID 0000.0001) %MON exf_hflux_min                =  -5.1292187889821E+01
(PID.TID 0000.0001) %MON exf_hflux_mean               =   1.4638053110848E+02
(PID.TID 0000.0001) %MON exf_hflux_sd                 =   1.8004883560294E+02
(PID.TID 0000.0001) %MON exf_hflux_del2               =   1.6307633870857E+01
(PID.TID 0000.0001) %MON exf_sflux_max                =   3.9024744508739E-08
(PID.TID 0000.0001) %MON exf_sflux_min                =  -8.8844029805653E-08
(PID.TID 0000.0001) %MON exf_sflux_mean               =  -2.5943667481894E-08
(PID.TID 0000.0001) %MON exf_sflux_sd                 =   3.0352933644671E-08
(PID.TID 0000.0001) %MON exf_sflux_del2               =   3.1638703823866E-09
(PID.TID 0000.0001) %MON exf_uwind_max                =   6.4679267093784E+00
(PID.TID 0000.0001) %MON exf_uwind_min                =  -6.8374255452651E+00
(PID.TID 0000.0001) %MON exf_uwind_mean               =   2.7705256000140E+00
(PID.TID 0000.0001) %MON exf_uwind_sd                 =   2.9919728561678E+00
(PID.TID 0000.0001) %MON exf_uwind_del2               =   3.1576527695052E-01
(PID.TID 0000.0001) %MON exf_vwind_max                =   3.9242794780783E+00
(PID.TID 0000.0001) %MON exf_vwind_min                =  -6.0133620194399E+00
(PID.TID 0000.0001) %MON exf_vwind_mean               =  -7.5657426961883E-01
(PID.TID 0000.0001) %MON exf_vwind_sd                 =   1.7301024272674E+00
(PID.TID 0000.0001) %MON exf_vwind_del2               =   1.9328456693798E-01
(PID.TID 0000.0001) %MON exf_wspeed_max               =   7.8835498038073E+00
(PID.TID 0000.0001) %MON exf_wspeed_min               =   4.5865235699732E-01
(PID.TID 0000.0001) %MON exf_wspeed_mean              =   4.1988415259832E+00
(PID.TID 0000.0001) %MON exf_wspeed_sd                =   1.6009692521540E+00
(PID.TID 0000.0001) %MON exf_wspeed_del2              =   3.7730984410389E-01
(PID.TID 0000.0001) %MON exf_atemp_max                =   2.8187082742993E+02
(PID.TID 0000.0001) %MON exf_atemp_min                =   2.3643051433042E+02
(PID.TID 0000.0001) %MON exf_atemp_mean               =   2.6391355016305E+02
(PID.TID 0000.0001) %MON exf_atemp_sd                 =   1.1993652246312E+01
(PID.TID 0000.0001) %MON exf_atemp_del2               =   6.4955776698796E-01
(PID.TID 0000.0001) %MON exf_aqh_max                  =   6.3182971576392E-03
(PID.TID 0000.0001) %MON exf_aqh_min                  =   1.6303402368524E-04
(PID.TID 0000.0001) %MON exf_aqh_mean                 =   2.4764404153565E-03
(PID.TID 0000.0001) %MON exf_aqh_sd                   =   1.4257865072101E-03
(PID.TID 0000.0001) %MON exf_aqh_del2                 =   6.8046107671613E-05
(PID.TID 0000.0001) %MON exf_lwflux_max               =   1.8159055041552E+02
(PID.TID 0000.0001) %MON exf_lwflux_min               =   2.7054912714871E+01
(PID.TID 0000.0001) %MON exf_lwflux_mean              =   7.5259467164313E+01
(PID.TID 0000.0001) %MON exf_lwflux_sd                =   4.2774126421624E+01
(PID.TID 0000.0001) %MON exf_lwflux_del2              =   3.2322818918848E+00
(PID.TID 0000.0001) %MON exf_precip_max               =   1.0499733310606E-07
(PID.TID 0000.0001) %MON exf_precip_min               =   2.7265750163496E-10
(PID.TID 0000.0001) %MON exf_precip_mean              =   3.6390004634845E-08
(PID.TID 0000.0001) %MON exf_precip_sd                =   2.0581314966068E-08
(PID.TID 0000.0001) %MON exf_precip_del2              =   2.5588488380710E-09
(PID.TID 0000.0001) %MON exf_snowprecip_max           =   0.0000000000000E+00
(PID.TID 0000.0001) %MON exf_snowprecip_min           =   0.0000000000000E+00
(PID.TID 0000.0001) %MON exf_snowprecip_mean          =   0.0000000000000E+00
(PID.TID 0000.0001) %MON exf_snowprecip_sd            =   0.0000000000000E+00
(PID.TID 0000.0001) %MON exf_snowprecip_del2          =   0.0000000000000E+00
(PID.TID 0000.0001) %MON exf_swflux_max               =  -8.1207735616653E-02
(PID.TID 0000.0001) %MON exf_swflux_min               =  -6.4105206467675E+01
(PID.TID 0000.0001) %MON exf_swflux_mean              =  -2.6526948534072E+01
(PID.TID 0000.0001) %MON exf_swflux_sd                =   1.9652762825246E+01
(PID.TID 0000.0001) %MON exf_swflux_del2              =   4.7976088317456E-01
(PID.TID 0000.0001) %MON exf_evap_max                 =   4.5344313356319E-08
(PID.TID 0000.0001) %MON exf_evap_min                 =  -4.2074596008212E-09
(PID.TID 0000.0001) %MON exf_evap_mean                =   1.0446337152951E-08
(PID.TID 0000.0001) %MON exf_evap_sd                  =   1.1077266575986E-08
(PID.TID 0000.0001) %MON exf_evap_del2                =   1.3331698227457E-09
(PID.TID 0000.0001) %MON exf_swdown_max               =   7.1228007186306E+01
(PID.TID 0000.0001) %MON exf_swdown_min               =   9.0230817351836E-02
(PID.TID 0000.0001) %MON exf_swdown_mean              =   2.9474387260081E+01
(PID.TID 0000.0001) %MON exf_swdown_sd                =   2.1836403139162E+01
(PID.TID 0000.0001) %MON exf_swdown_del2              =   5.3306764797174E-01
(PID.TID 0000.0001) %MON exf_lwdown_max               =   3.0561793543081E+02
(PID.TID 0000.0001) %MON exf_lwdown_min               =   1.1589194395764E+02
(PID.TID 0000.0001) %MON exf_lwdown_mean              =   2.2583936565568E+02
(PID.TID 0000.0001) %MON exf_lwdown_sd                =   4.6305239399294E+01
(PID.TID 0000.0001) %MON exf_lwdown_del2              =   3.2439027772011E+00
(PID.TID 0000.0001) %MON exf_apressure_max            =   0.0000000000000E+00
(PID.TID 0000.0001) %MON exf_apressure_min            =   0.0000000000000E+00
(PID.TID 0000.0001) %MON exf_apressure_mean           =   0.0000000000000E+00
(PID.TID 0000.0001) %MON exf_apressure_sd             =   0.0000000000000E+00
(PID.TID 0000.0001) %MON exf_apressure_del2           =   0.0000000000000E+00
(PID.TID 0000.0001) %MON exf_runoff_max               =   0.0000000000000E+00
(PID.TID 0000.0001) %MON exf_runoff_min               =   0.0000000000000E+00
(PID.TID 0000.0001) %MON exf_runoff_mean              =   0.0000000000000E+00
(PID.TID 0000.0001) %MON exf_runoff_sd                =   0.0000000000000E+00
(PID.TID 0000.0001) %MON exf_runoff_del2              =   0.0000000000000E+00
(PID.TID 0000.0001) %MON exf_climsst_max              =   0.0000000000000E+00
(PID.TID 0000.0001) %MON exf_climsst_min              =   0.0000000000000E+00
(PID.TID 0000.0001) %MON exf_climsst_mean             =   0.0000000000000E+00
(PID.TID 0000.0001) %MON exf_climsst_sd               =   0.0000000000000E+00
(PID.TID 0000.0001) %MON exf_climsst_del2             =   0.0000000000000E+00
(PID.TID 0000.0001) %MON exf_climsss_max              =   3.5041624116116E+01
(PID.TID 0000.0001) %MON exf_climsss_min              =   3.0671628467372E+01
(PID.TID 0000.0001) %MON exf_climsss_mean             =   3.3462968935345E+01
(PID.TID 0000.0001) %MON exf_climsss_sd               =   1.0314580197633E+00
(PID.TID 0000.0001) %MON exf_climsss_del2             =   1.0007335642865E-01
(PID.TID 0000.0001) // =======================================================
(PID.TID 0000.0001) // End MONITOR EXF statistics
(PID.TID 0000.0001) // =======================================================
 ph-ice B  7  0.  0.  0.
 ph-ice C  7  4.07568694E+11
 cg2d: Sum(rhs),rhsMax =   3.08544384243492E-08  1.18167591136035E+00
(PID.TID 0000.0001) // =======================================================
(PID.TID 0000.0001) // Begin MONITOR SEAICE statistics
(PID.TID 0000.0001) // =======================================================
(PID.TID 0000.0001) %MON seaice_tsnumber              =                     8
(PID.TID 0000.0001) %MON seaice_time_sec              =   2.8800000000000E+04
(PID.TID 0000.0001) %MON seaice_uice_max              =   2.6753656066033E-01
(PID.TID 0000.0001) %MON seaice_uice_min              =  -8.8502450662228E-02
(PID.TID 0000.0001) %MON seaice_uice_mean             =   6.9615383385774E-02
(PID.TID 0000.0001) %MON seaice_uice_sd               =   8.3093140046638E-02
(PID.TID 0000.0001) %MON seaice_uice_del2             =   8.8606618808774E-03
(PID.TID 0000.0001) %MON seaice_vice_max              =   8.6568020771092E-02
(PID.TID 0000.0001) %MON seaice_vice_min              =  -2.2434575856123E-01
(PID.TID 0000.0001) %MON seaice_vice_mean             =  -6.1223636141591E-02
(PID.TID 0000.0001) %MON seaice_vice_sd               =   7.0132418876683E-02
(PID.TID 0000.0001) %MON seaice_vice_del2             =   8.0006102856532E-03
(PID.TID 0000.0001) %MON seaice_area_max              =   1.0000000000000E+00
(PID.TID 0000.0001) %MON seaice_area_min              =   0.0000000000000E+00
(PID.TID 0000.0001) %MON seaice_area_mean             =   6.2402836117447E-01
(PID.TID 0000.0001) %MON seaice_area_sd               =   4.5740426112475E-01
(PID.TID 0000.0001) %MON seaice_area_del2             =   5.3616887706754E-02
(PID.TID 0000.0001) %MON seaice_heff_max              =   5.4845941034779E-01
(PID.TID 0000.0001) %MON seaice_heff_min              =   0.0000000000000E+00
(PID.TID 0000.0001) %MON seaice_heff_mean             =   1.4210951318297E-01
(PID.TID 0000.0001) %MON seaice_heff_sd               =   1.7454206523805E-01
(PID.TID 0000.0001) %MON seaice_heff_del2             =   1.3200217238261E-02
(PID.TID 0000.0001) %MON seaice_hsnow_max             =   2.0628031960974E-01
(PID.TID 0000.0001) %MON seaice_hsnow_min             =   0.0000000000000E+00
(PID.TID 0000.0001) %MON seaice_hsnow_mean            =   1.1873224112912E-01
(PID.TID 0000.0001) %MON seaice_hsnow_sd              =   9.7409172567809E-02
(PID.TID 0000.0001) %MON seaice_hsnow_del2            =   6.5932180710022E-03
(PID.TID 0000.0001) // =======================================================
(PID.TID 0000.0001) // End MONITOR SEAICE statistics
(PID.TID 0000.0001) // =======================================================
(PID.TID 0000.0001) // =======================================================
(PID.TID 0000.0001) // Begin MONITOR EXF statistics
(PID.TID 0000.0001) // =======================================================
(PID.TID 0000.0001) %MON exf_tsnumber                 =                     8
(PID.TID 0000.0001) %MON exf_time_sec                 =   2.8800000000000E+04
(PID.TID 0000.0001) %MON exf_ustress_max              =   5.2249214879342E-02
(PID.TID 0000.0001) %MON exf_ustress_min              =  -9.3798929022904E-02
(PID.TID 0000.0001) %MON exf_ustress_mean             =   1.7966526082920E-02
(PID.TID 0000.0001) %MON exf_ustress_sd               =   2.3731957656635E-02
(PID.TID 0000.0001) %MON exf_ustress_del2             =   2.8199345357728E-03
(PID.TID 0000.0001) %MON exf_vstress_max              =   5.3835262836834E-02
(PID.TID 0000.0001) %MON exf_vstress_min              =  -5.8423863252507E-02
(PID.TID 0000.0001) %MON exf_vstress_mean             =  -5.4366064635827E-03
(PID.TID 0000.0001) %MON exf_vstress_sd               =   1.4450709808324E-02
(PID.TID 0000.0001) %MON exf_vstress_del2             =   1.6932439986836E-03
(PID.TID 0000.0001) %MON exf_hflux_max                =   6.2516667571609E+02
(PID.TID 0000.0001) %MON exf_hflux_min                =  -5.1290005261374E+01
(PID.TID 0000.0001) %MON exf_hflux_mean               =   1.4644479920848E+02
(PID.TID 0000.0001) %MON exf_hflux_sd                 =   1.8007071892343E+02
(PID.TID 0000.0001) %MON exf_hflux_del2               =   1.6310867111118E+01
(PID.TID 0000.0001) %MON exf_sflux_max                =   3.9024984842046E-08
(PID.TID 0000.0001) %MON exf_sflux_min                =  -8.8852274157765E-08
(PID.TID 0000.0001) %MON exf_sflux_mean               =  -2.5937388936254E-08
(PID.TID 0000.0001) %MON exf_sflux_sd                 =   3.0352647318028E-08
(PID.TID 0000.0001) %MON exf_sflux_del2               =   3.1646001959817E-09
(PID.TID 0000.0001) %MON exf_uwind_max                =   6.4684341618272E+00
(PID.TID 0000.0001) %MON exf_uwind_min                =  -6.8374523269674E+00
(PID.TID 0000.0001) %MON exf_uwind_mean               =   2.7706331523584E+00
(PID.TID 0000.0001) %MON exf_uwind_sd                 =   2.9922491036980E+00
(PID.TID 0000.0001) %MON exf_uwind_del2               =   3.1577589455021E-01
(PID.TID 0000.0001) %MON exf_vwind_max                =   3.9243096588739E+00
(PID.TID 0000.0001) %MON exf_vwind_min                =  -6.0124561096150E+00
(PID.TID 0000.0001) %MON exf_vwind_mean               =  -7.5595649652871E-01
(PID.TID 0000.0001) %MON exf_vwind_sd                 =   1.7302112611019E+00
(PID.TID 0000.0001) %MON exf_vwind_del2               =   1.9327792057372E-01
(PID.TID 0000.0001) %MON exf_wspeed_max               =   7.8835880550853E+00
(PID.TID 0000.0001) %MON exf_wspeed_min               =   4.5840953253040E-01
(PID.TID 0000.0001) %MON exf_wspeed_mean              =   4.1989448725728E+00
(PID.TID 0000.0001) %MON exf_wspeed_sd                =   1.6012263903992E+00
(PID.TID 0000.0001) %MON exf_wspeed_del2              =   3.7736312737620E-01
(PID.TID 0000.0001) %MON exf_atemp_max                =   2.8186911527707E+02
(PID.TID 0000.0001) %MON exf_atemp_min                =   2.3642604936277E+02
(PID.TID 0000.0001) %MON exf_atemp_mean               =   2.6390890607375E+02
(PID.TID 0000.0001) %MON exf_atemp_sd                 =   1.1995116186725E+01
(PID.TID 0000.0001) %MON exf_atemp_del2               =   6.4957710131818E-01
(PID.TID 0000.0001) %MON exf_aqh_max                  =   6.3176006167781E-03
(PID.TID 0000.0001) %MON exf_aqh_min                  =   1.6293992018683E-04
(PID.TID 0000.0001) %MON exf_aqh_mean                 =   2.4758800589519E-03
(PID.TID 0000.0001) %MON exf_aqh_sd                   =   1.4256836550895E-03
(PID.TID 0000.0001) %MON exf_aqh_del2                 =   6.8032440110466E-05
(PID.TID 0000.0001) %MON exf_lwflux_max               =   1.8160657786432E+02
(PID.TID 0000.0001) %MON exf_lwflux_min               =   2.7042773775401E+01
(PID.TID 0000.0001) %MON exf_lwflux_mean              =   7.5278560559239E+01
(PID.TID 0000.0001) %MON exf_lwflux_sd                =   4.2775415845504E+01
(PID.TID 0000.0001) %MON exf_lwflux_del2              =   3.2322370212360E+00
(PID.TID 0000.0001) %MON exf_precip_max               =   1.0499871454869E-07
(PID.TID 0000.0001) %MON exf_precip_min               =   2.7252357516229E-10
(PID.TID 0000.0001) %MON exf_precip_mean              =   3.6389993790810E-08
(PID.TID 0000.0001) %MON exf_precip_sd                =   2.0581769987393E-08
(PID.TID 0000.0001) %MON exf_precip_del2              =   2.5593765312607E-09
(PID.TID 0000.0001) %MON exf_snowprecip_max           =   0.0000000000000E+00
(PID.TID 0000.0001) %MON exf_snowprecip_min           =   0.0000000000000E+00
(PID.TID 0000.0001) %MON exf_snowprecip_mean          =   0.0000000000000E+00
(PID.TID 0000.0001) %MON exf_snowprecip_sd            =   0.0000000000000E+00
(PID.TID 0000.0001) %MON exf_snowprecip_del2          =   0.0000000000000E+00
(PID.TID 0000.0001) %MON exf_swflux_max               =  -8.1208018494434E-02
(PID.TID 0000.0001) %MON exf_swflux_min               =  -6.4124076818247E+01
(PID.TID 0000.0001) %MON exf_swflux_mean              =  -2.6537480749947E+01
(PID.TID 0000.0001) %MON exf_swflux_sd                =   1.9656602581253E+01
(PID.TID 0000.0001) %MON exf_swflux_del2              =   4.7986775712052E-01
(PID.TID 0000.0001) %MON exf_evap_max                 =   4.5343890978695E-08
(PID.TID 0000.0001) %MON exf_evap_min                 =  -4.2045649093462E-09
(PID.TID 0000.0001) %MON exf_evap_mean                =   1.0452604854556E-08
(PID.TID 0000.0001) %MON exf_evap_sd                  =   1.1076424256756E-08
(PID.TID 0000.0001) %MON exf_evap_del2                =   1.3335908863822E-09
(PID.TID 0000.0001) %MON exf_swdown_max               =   7.1248974242497E+01
(PID.TID 0000.0001) %MON exf_swdown_min               =   9.0231131660482E-02
(PID.TID 0000.0001) %MON exf_swdown_mean              =   2.9486089722164E+01
(PID.TID 0000.0001) %MON exf_swdown_sd                =   2.1840669534725E+01
(PID.TID 0000.0001) %MON exf_swdown_del2              =   5.3318639680058E-01
(PID.TID 0000.0001) %MON exf_lwdown_max               =   3.0560910934698E+02
(PID.TID 0000.0001) %MON exf_lwdown_min               =   1.1587683707899E+02
(PID.TID 0000.0001) %MON exf_lwdown_mean              =   2.2582365832661E+02
(PID.TID 0000.0001) %MON exf_lwdown_sd                =   4.6309216947189E+01
(PID.TID 0000.0001) %MON exf_lwdown_del2              =   3.2439144172738E+00
(PID.TID 0000.0001) %MON exf_apressure_max            =   0.0000000000000E+00
(PID.TID 0000.0001) %MON exf_apressure_min            =   0.0000000000000E+00
(PID.TID 0000.0001) %MON exf_apressure_mean           =   0.0000000000000E+00
(PID.TID 0000.0001) %MON exf_apressure_sd             =   0.0000000000000E+00
(PID.TID 0000.0001) %MON exf_apressure_del2           =   0.0000000000000E+00
(PID.TID 0000.0001) %MON exf_runoff_max               =   0.0000000000000E+00
(PID.TID 0000.0001) %MON exf_runoff_min               =   0.0000000000000E+00
(PID.TID 0000.0001) %MON exf_runoff_mean              =   0.0000000000000E+00
(PID.TID 0000.0001) %MON exf_runoff_sd                =   0.0000000000000E+00
(PID.TID 0000.0001) %MON exf_runoff_del2              =   0.0000000000000E+00
(PID.TID 0000.0001) %MON exf_climsst_max              =   0.0000000000000E+00
(PID.TID 0000.0001) %MON exf_climsst_min              =   0.0000000000000E+00
(PID.TID 0000.0001) %MON exf_climsst_mean             =   0.0000000000000E+00
(PID.TID 0000.0001) %MON exf_climsst_sd               =   0.0000000000000E+00
(PID.TID 0000.0001) %MON exf_climsst_del2             =   0.0000000000000E+00
(PID.TID 0000.0001) %MON exf_climsss_max              =   3.5041808863155E+01
(PID.TID 0000.0001) %MON exf_climsss_min              =   3.0672387795370E+01
(PID.TID 0000.0001) %MON exf_climsss_mean             =   3.3463490268825E+01
(PID.TID 0000.0001) %MON exf_climsss_sd               =   1.0313879583737E+00
(PID.TID 0000.0001) %MON exf_climsss_del2             =   1.0005612713826E-01
(PID.TID 0000.0001) // =======================================================
(PID.TID 0000.0001) // End MONITOR EXF statistics
(PID.TID 0000.0001) // =======================================================
 ph-ice B  8  0.  0.  0.
 ph-ice C  8  4.58145246E+11
 cg2d: Sum(rhs),rhsMax =   2.95456641825897E-08  1.16732732355714E+00
(PID.TID 0000.0001) // =======================================================
(PID.TID 0000.0001) // Begin MONITOR SEAICE statistics
(PID.TID 0000.0001) // =======================================================
(PID.TID 0000.0001) %MON seaice_tsnumber              =                     9
(PID.TID 0000.0001) %MON seaice_time_sec              =   3.2400000000000E+04
(PID.TID 0000.0001) %MON seaice_uice_max              =   2.6897463588595E-01
(PID.TID 0000.0001) %MON seaice_uice_min              =  -8.0042763881371E-02
(PID.TID 0000.0001) %MON seaice_uice_mean             =   6.2854887508376E-02
(PID.TID 0000.0001) %MON seaice_uice_sd               =   7.9024879642183E-02
(PID.TID 0000.0001) %MON seaice_uice_del2             =   7.8428425483092E-03
(PID.TID 0000.0001) %MON seaice_vice_max              =   7.8808436816164E-02
(PID.TID 0000.0001) %MON seaice_vice_min              =  -2.0876036223801E-01
(PID.TID 0000.0001) %MON seaice_vice_mean             =  -5.8595805562784E-02
(PID.TID 0000.0001) %MON seaice_vice_sd               =   6.4348949770195E-02
(PID.TID 0000.0001) %MON seaice_vice_del2             =   7.5771991545225E-03
(PID.TID 0000.0001) %MON seaice_area_max              =   1.0000000000000E+00
(PID.TID 0000.0001) %MON seaice_area_min              =   0.0000000000000E+00
(PID.TID 0000.0001) %MON seaice_area_mean             =   6.2385265195573E-01
(PID.TID 0000.0001) %MON seaice_area_sd               =   4.5701606953863E-01
(PID.TID 0000.0001) %MON seaice_area_del2             =   5.3473191284906E-02
(PID.TID 0000.0001) %MON seaice_heff_max              =   5.4880172478675E-01
(PID.TID 0000.0001) %MON seaice_heff_min              =   0.0000000000000E+00
(PID.TID 0000.0001) %MON seaice_heff_mean             =   1.4197209225632E-01
(PID.TID 0000.0001) %MON seaice_heff_sd               =   1.7470077589907E-01
(PID.TID 0000.0001) %MON seaice_heff_del2             =   1.3179370868865E-02
(PID.TID 0000.0001) %MON seaice_hsnow_max             =   2.0706544703537E-01
(PID.TID 0000.0001) %MON seaice_hsnow_min             =   0.0000000000000E+00
(PID.TID 0000.0001) %MON seaice_hsnow_mean            =   1.1888097080217E-01
(PID.TID 0000.0001) %MON seaice_hsnow_sd              =   9.7521343282576E-02
(PID.TID 0000.0001) %MON seaice_hsnow_del2            =   6.6252286451063E-03
(PID.TID 0000.0001) // =======================================================
(PID.TID 0000.0001) // End MONITOR SEAICE statistics
(PID.TID 0000.0001) // =======================================================
(PID.TID 0000.0001) // =======================================================
(PID.TID 0000.0001) // Begin MONITOR EXF statistics
(PID.TID 0000.0001) // =======================================================
(PID.TID 0000.0001) %MON exf_tsnumber                 =                     9
(PID.TID 0000.0001) %MON exf_time_sec                 =   3.2400000000000E+04
(PID.TID 0000.0001) %MON exf_ustress_max              =   5.2253931426731E-02
(PID.TID 0000.0001) %MON exf_ustress_min              =  -9.3801402378652E-02
(PID.TID 0000.0001) %MON exf_ustress_mean             =   1.7972506689762E-02
(PID.TID 0000.0001) %MON exf_ustress_sd               =   2.3737461045170E-02
(PID.TID 0000.0001) %MON exf_ustress_del2             =   2.8207107748647E-03
(PID.TID 0000.0001) %MON exf_vstress_max              =   5.3836885571565E-02
(PID.TID 0000.0001) %MON exf_vstress_min              =  -5.8402245582296E-02
(PID.TID 0000.0001) %MON exf_vstress_mean             =  -5.4330602008804E-03
(PID.TID 0000.0001) %MON exf_vstress_sd               =   1.4451995837705E-02
(PID.TID 0000.0001) %MON exf_vstress_del2             =   1.6932498060727E-03
(PID.TID 0000.0001) %MON exf_hflux_max                =   6.2523607820810E+02
(PID.TID 0000.0001) %MON exf_hflux_min                =  -5.1341825205504E+01
(PID.TID 0000.0001) %MON exf_hflux_mean               =   1.4650252706716E+02
(PID.TID 0000.0001) %MON exf_hflux_sd                 =   1.8009645751203E+02
(PID.TID 0000.0001) %MON exf_hflux_del2               =   1.6313417499537E+01
(PID.TID 0000.0001) %MON exf_sflux_max                =   3.9027165063410E-08
(PID.TID 0000.0001) %MON exf_sflux_min                =  -8.8881915941001E-08
(PID.TID 0000.0001) %MON exf_sflux_mean               =  -2.5931986114949E-08
(PID.TID 0000.0001) %MON exf_sflux_sd                 =   3.0353382851152E-08
(PID.TID 0000.0001) %MON exf_sflux_del2               =   3.1652662034778E-09
(PID.TID 0000.0001) %MON exf_uwind_max                =   6.4689416142761E+00
(PID.TID 0000.0001) %MON exf_uwind_min                =  -6.8374791086697E+00
(PID.TID 0000.0001) %MON exf_uwind_mean               =   2.7707407047028E+00
(PID.TID 0000.0001) %MON exf_uwind_sd                 =   2.9925253914175E+00
(PID.TID 0000.0001) %MON exf_uwind_del2               =   3.1578823099586E-01
(PID.TID 0000.0001) %MON exf_vwind_max                =   3.9243398396695E+00
(PID.TID 0000.0001) %MON exf_vwind_min                =  -6.0115501997901E+00
(PID.TID 0000.0001) %MON exf_vwind_mean               =  -7.5533872343860E-01
(PID.TID 0000.0001) %MON exf_vwind_sd                 =   1.7303202080462E+00
(PID.TID 0000.0001) %MON exf_vwind_del2               =   1.9327127420947E-01
(PID.TID 0000.0001) %MON exf_wspeed_max               =   7.8836263063842E+00
(PID.TID 0000.0001) %MON exf_wspeed_min               =   4.5816671047235E-01
(PID.TID 0000.0001) %MON exf_wspeed_mean              =   4.1990483480424E+00
(PID.TID 0000.0001) %MON exf_wspeed_sd                =   1.6014836406520E+00
(PID.TID 0000.0001) %MON exf_wspeed_del2              =   3.7741640417905E-01
(PID.TID 0000.0001) %MON exf_atemp_max                =   2.8186740312420E+02
(PID.TID 0000.0001) %MON exf_atemp_min                =   2.3642158439511E+02
(PID.TID 0000.0001) %MON exf_atemp_mean               =   2.6390426198445E+02
(PID.TID 0000.0001) %MON exf_atemp_sd                 =   1.1996580613702E+01
(PID.TID 0000.0001) %MON exf_atemp_del2               =   6.4959643564840E-01
(PID.TID 0000.0001) %MON exf_aqh_max                  =   6.3169040759170E-03
(PID.TID 0000.0001) %MON exf_aqh_min                  =   1.6284581668843E-04
(PID.TID 0000.0001) %MON exf_aqh_mean                 =   2.4753197025473E-03
(PID.TID 0000.0001) %MON exf_aqh_sd                   =   1.4255808388841E-03
(PID.TID 0000.0001) %MON exf_aqh_del2                 =   6.8018772549319E-05
(PID.TID 0000.0001) %MON exf_lwflux_max               =   1.8162256096874E+02
(PID.TID 0000.0001) %MON exf_lwflux_min               =   2.7024547892602E+01
(PID.TID 0000.0001) %MON exf_lwflux_mean              =   7.5295891395123E+01
(PID.TID 0000.0001) %MON exf_lwflux_sd                =   4.2777922238967E+01
(PID.TID 0000.0001) %MON exf_lwflux_del2              =   3.2320650520500E+00
(PID.TID 0000.0001) %MON exf_precip_max               =   1.0500009599131E-07
(PID.TID 0000.0001) %MON exf_precip_min               =   2.7238964868961E-10
(PID.TID 0000.0001) %MON exf_precip_mean              =   3.6389982946776E-08
(PID.TID 0000.0001) %MON exf_precip_sd                =   2.0582225664103E-08
(PID.TID 0000.0001) %MON exf_precip_del2              =   2.5599042244504E-09
(PID.TID 0000.0001) %MON exf_snowprecip_max           =   0.0000000000000E+00
(PID.TID 0000.0001) %MON exf_snowprecip_min           =   0.0000000000000E+00
(PID.TID 0000.0001) %MON exf_snowprecip_mean          =   0.0000000000000E+00
(PID.TID 0000.0001) %MON exf_snowprecip_sd            =   0.0000000000000E+00
(PID.TID 0000.0001) %MON exf_snowprecip_del2          =   0.0000000000000E+00
(PID.TID 0000.0001) %MON exf_swflux_max               =  -8.1208301372215E-02
(PID.TID 0000.0001) %MON exf_swflux_min               =  -6.4142947168819E+01
(PID.TID 0000.0001) %MON exf_swflux_mean              =  -2.6548012965822E+01
(PID.TID 0000.0001) %MON exf_swflux_sd                =   1.9660442927159E+01
(PID.TID 0000.0001) %MON exf_swflux_del2              =   4.7997463106648E-01
(PID.TID 0000.0001) %MON exf_evap_max                 =   4.5345408489129E-08
(PID.TID 0000.0001) %MON exf_evap_min                 =  -4.2118523676332E-09
(PID.TID 0000.0001) %MON exf_evap_mean                =   1.0457996831827E-08
(PID.TID 0000.0001) %MON exf_evap_sd                  =   1.1076056612716E-08
(PID.TID 0000.0001) %MON exf_evap_del2                =   1.3338730585348E-09
(PID.TID 0000.0001) %MON exf_swdown_max               =   7.1269941298688E+01
(PID.TID 0000.0001) %MON exf_swdown_min               =   9.0231445969128E-02
(PID.TID 0000.0001) %MON exf_swdown_mean              =   2.9497792184247E+01
(PID.TID 0000.0001) %MON exf_swdown_sd                =   2.1844936585733E+01
(PID.TID 0000.0001) %MON exf_swdown_del2              =   5.3330514562942E-01
(PID.TID 0000.0001) %MON exf_lwdown_max               =   3.0560028326316E+02
(PID.TID 0000.0001) %MON exf_lwdown_min               =   1.1586173020035E+02
(PID.TID 0000.0001) %MON exf_lwdown_mean              =   2.2580795099755E+02
(PID.TID 0000.0001) %MON exf_lwdown_sd                =   4.6313195660870E+01
(PID.TID 0000.0001) %MON exf_lwdown_del2              =   3.2439260573465E+00
(PID.TID 0000.0001) %MON exf_apressure_max            =   0.0000000000000E+00
(PID.TID 0000.0001) %MON exf_apressure_min            =   0.0000000000000E+00
(PID.TID 0000.0001) %MON exf_apressure_mean           =   0.0000000000000E+00
(PID.TID 0000.0001) %MON exf_apressure_sd             =   0.0000000000000E+00
(PID.TID 0000.0001) %MON exf_apressure_del2           =   0.0000000000000E+00
(PID.TID 0000.0001) %MON exf_runoff_max               =   0.0000000000000E+00
(PID.TID 0000.0001) %MON exf_runoff_min               =   0.0000000000000E+00
(PID.TID 0000.0001) %MON exf_runoff_mean              =   0.0000000000000E+00
(PID.TID 0000.0001) %MON exf_runoff_sd                =   0.0000000000000E+00
(PID.TID 0000.0001) %MON exf_runoff_del2              =   0.0000000000000E+00
(PID.TID 0000.0001) %MON exf_climsst_max              =   0.0000000000000E+00
(PID.TID 0000.0001) %MON exf_climsst_min              =   0.0000000000000E+00
(PID.TID 0000.0001) %MON exf_climsst_mean             =   0.0000000000000E+00
(PID.TID 0000.0001) %MON exf_climsst_sd               =   0.0000000000000E+00
(PID.TID 0000.0001) %MON exf_climsst_del2             =   0.0000000000000E+00
(PID.TID 0000.0001) %MON exf_climsss_max              =   3.5041993610194E+01
(PID.TID 0000.0001) %MON exf_climsss_min              =   3.0673147123368E+01
(PID.TID 0000.0001) %MON exf_climsss_mean             =   3.3464011602304E+01
(PID.TID 0000.0001) %MON exf_climsss_sd               =   1.0313181272348E+00
(PID.TID 0000.0001) %MON exf_climsss_del2             =   1.0003889784787E-01
(PID.TID 0000.0001) // =======================================================
(PID.TID 0000.0001) // End MONITOR EXF statistics
(PID.TID 0000.0001) // =======================================================
 ph-ice B  9  0.  0.  0.
 ph-ice C  9  5.08667835E+11
 cg2d: Sum(rhs),rhsMax =   2.90786613746374E-08  1.15038865801654E+00
(PID.TID 0000.0001) // =======================================================
(PID.TID 0000.0001) // Begin MONITOR SEAICE statistics
(PID.TID 0000.0001) // =======================================================
(PID.TID 0000.0001) %MON seaice_tsnumber              =                    10
(PID.TID 0000.0001) %MON seaice_time_sec              =   3.6000000000000E+04
(PID.TID 0000.0001) %MON seaice_uice_max              =   2.6071316683890E-01
(PID.TID 0000.0001) %MON seaice_uice_min              =  -7.4569485542388E-02
(PID.TID 0000.0001) %MON seaice_uice_mean             =   5.6948465647696E-02
(PID.TID 0000.0001) %MON seaice_uice_sd               =   7.3695313173349E-02
(PID.TID 0000.0001) %MON seaice_uice_del2             =   6.9822411470878E-03
(PID.TID 0000.0001) %MON seaice_vice_max              =   7.2855153893079E-02
(PID.TID 0000.0001) %MON seaice_vice_min              =  -1.8167527172817E-01
(PID.TID 0000.0001) %MON seaice_vice_mean             =  -5.2953268574899E-02
(PID.TID 0000.0001) %MON seaice_vice_sd               =   5.6405761402405E-02
(PID.TID 0000.0001) %MON seaice_vice_del2             =   6.8591585578886E-03
(PID.TID 0000.0001) %MON seaice_area_max              =   1.0000000000000E+00
(PID.TID 0000.0001) %MON seaice_area_min              =   0.0000000000000E+00
(PID.TID 0000.0001) %MON seaice_area_mean             =   6.2310739065808E-01
(PID.TID 0000.0001) %MON seaice_area_sd               =   4.5675719670646E-01
(PID.TID 0000.0001) %MON seaice_area_del2             =   5.3102380743218E-02
(PID.TID 0000.0001) %MON seaice_heff_max              =   5.4914440244018E-01
(PID.TID 0000.0001) %MON seaice_heff_min              =   0.0000000000000E+00
(PID.TID 0000.0001) %MON seaice_heff_mean             =   1.4182061532320E-01
(PID.TID 0000.0001) %MON seaice_heff_sd               =   1.7482812789186E-01
(PID.TID 0000.0001) %MON seaice_heff_del2             =   1.3169802992106E-02
(PID.TID 0000.0001) %MON seaice_hsnow_max             =   2.0785054838239E-01
(PID.TID 0000.0001) %MON seaice_hsnow_min             =   0.0000000000000E+00
(PID.TID 0000.0001) %MON seaice_hsnow_mean            =   1.1901259284753E-01
(PID.TID 0000.0001) %MON seaice_hsnow_sd              =   9.7627028703879E-02
(PID.TID 0000.0001) %MON seaice_hsnow_del2            =   6.6467676843600E-03
(PID.TID 0000.0001) // =======================================================
(PID.TID 0000.0001) // End MONITOR SEAICE statistics
(PID.TID 0000.0001) // =======================================================
(PID.TID 0000.0001)  MDS_READ_FIELD: opening file: xx_atemp.0000000000.001.001.data
(PID.TID 0000.0001)  MDS_READ_FIELD: opening file: xx_atemp.0000000000.001.001.data
(PID.TID 0000.0001)  MDS_READ_FIELD: opening file: xx_atemp.0000000000.001.001.data
(PID.TID 0000.0001)  MDS_READ_FIELD: opening file: xx_atemp.0000000000.001.001.data
(PID.TID 0000.0001)  MDS_READ_FIELD: opening file: xx_aqh.0000000000.001.001.data
(PID.TID 0000.0001)  MDS_READ_FIELD: opening file: xx_aqh.0000000000.001.001.data
(PID.TID 0000.0001)  MDS_READ_FIELD: opening file: xx_aqh.0000000000.001.001.data
(PID.TID 0000.0001)  MDS_READ_FIELD: opening file: xx_aqh.0000000000.001.001.data
(PID.TID 0000.0001)  MDS_READ_FIELD: opening file: xx_uwind.0000000000.001.001.data
(PID.TID 0000.0001)  MDS_READ_FIELD: opening file: xx_uwind.0000000000.001.001.data
(PID.TID 0000.0001)  MDS_READ_FIELD: opening file: xx_uwind.0000000000.001.001.data
(PID.TID 0000.0001)  MDS_READ_FIELD: opening file: xx_uwind.0000000000.001.001.data
(PID.TID 0000.0001)  MDS_READ_FIELD: opening file: xx_vwind.0000000000.001.001.data
(PID.TID 0000.0001)  MDS_READ_FIELD: opening file: xx_vwind.0000000000.001.001.data
(PID.TID 0000.0001)  MDS_READ_FIELD: opening file: xx_vwind.0000000000.001.001.data
(PID.TID 0000.0001)  MDS_READ_FIELD: opening file: xx_vwind.0000000000.001.001.data
(PID.TID 0000.0001)  MDS_READ_FIELD: opening file: xx_precip.0000000000.001.001.data
(PID.TID 0000.0001)  MDS_READ_FIELD: opening file: xx_precip.0000000000.001.001.data
(PID.TID 0000.0001)  MDS_READ_FIELD: opening file: xx_precip.0000000000.001.001.data
(PID.TID 0000.0001)  MDS_READ_FIELD: opening file: xx_precip.0000000000.001.001.data
(PID.TID 0000.0001)  MDS_READ_FIELD: opening file: xx_swdown.0000000000.001.001.data
(PID.TID 0000.0001)  MDS_READ_FIELD: opening file: xx_swdown.0000000000.001.001.data
(PID.TID 0000.0001)  MDS_READ_FIELD: opening file: xx_swdown.0000000000.001.001.data
(PID.TID 0000.0001)  MDS_READ_FIELD: opening file: xx_swdown.0000000000.001.001.data
(PID.TID 0000.0001)  MDS_READ_FIELD: opening file: xx_lwdown.0000000000.001.001.data
(PID.TID 0000.0001)  MDS_READ_FIELD: opening file: xx_lwdown.0000000000.001.001.data
(PID.TID 0000.0001)  MDS_READ_FIELD: opening file: xx_lwdown.0000000000.001.001.data
(PID.TID 0000.0001)  MDS_READ_FIELD: opening file: xx_lwdown.0000000000.001.001.data
(PID.TID 0000.0001)  MDS_READ_FIELD: opening file: xx_snowprecip.0000000000.001.001.data
(PID.TID 0000.0001)  MDS_READ_FIELD: opening file: xx_snowprecip.0000000000.001.001.data
(PID.TID 0000.0001)  MDS_READ_FIELD: opening file: xx_snowprecip.0000000000.001.001.data
(PID.TID 0000.0001)  MDS_READ_FIELD: opening file: xx_snowprecip.0000000000.001.001.data
(PID.TID 0000.0001)  MDS_READ_FIELD: opening file: xx_apressure.0000000000.001.001.data
(PID.TID 0000.0001)  MDS_READ_FIELD: opening file: xx_apressure.0000000000.001.001.data
(PID.TID 0000.0001)  MDS_READ_FIELD: opening file: xx_apressure.0000000000.001.001.data
(PID.TID 0000.0001)  MDS_READ_FIELD: opening file: xx_apressure.0000000000.001.001.data
(PID.TID 0000.0001)  MDS_READ_FIELD: opening file: psbar.0000000000.001.001.data
(PID.TID 0000.0001)  cost_ssh: offset_sum =  0.710000000000000E+02
(PID.TID 0000.0001)  MDS_READ_FIELD: opening file: psbar.0000000000.001.001.data
(PID.TID 0000.0001) ph-cost call cost_sst
(PID.TID 0000.0001)  MDS_READ_FIELD: opening file: tbar.0000000000.001.001.data
(PID.TID 0000.0001) ph-cost call cost_theta
(PID.TID 0000.0001)  MDS_READ_FIELD: opening file: tbar.0000000000.001.001.data
(PID.TID 0000.0001) ph-cost call cost_salt
(PID.TID 0000.0001)  MDS_READ_FIELD: opening file: sbar.0000000000.001.001.data
(PID.TID 0000.0001) ph-cost call cost_smrarea
(PID.TID 0000.0001) ph-cost smrarea   0.0000000000E+00  0.0000000000E+00
 --> f_ice     = 0.508667835426816E+12
 --> f_smrarea = 0.000000000000000E+00
 --> f_temp    = 0.000000000000000E+00
 --> f_salt    = 0.000000000000000E+00
 --> f_temp0   = 0.000000000000000E+00
 --> f_salt0   = 0.000000000000000E+00
 --> f_temp0smoo = 0.000000000000000E+00
 --> f_salt0smoo = 0.000000000000000E+00
 --> f_sst     = 0.423905506986353E+04
 --> f_tmi     = 0.000000000000000E+00
 --> f_sss     = 0.000000000000000E+00
 --> f_ssh       = 0.000000000000000E+00
 --> f_tp        = 0.000000000000000E+00
 --> f_ers       = 0.000000000000000E+00
 --> f_gfo       = 0.000000000000000E+00
 --> f_tauu    = 0.000000000000000E+00
 --> f_tauum   = 0.000000000000000E+00
 --> f_tauusmoo = 0.000000000000000E+00
 --> f_tauv    = 0.000000000000000E+00
 --> f_tauvm   = 0.000000000000000E+00
 --> f_tauvsmoo = 0.000000000000000E+00
 --> f_hflux   = 0.000000000000000E+00
 --> f_hfluxm  = 0.000000000000000E+00
 --> f_hfluxmm = 0.000000000000000E+00
 --> f_hfluxsmoo = 0.000000000000000E+00
 --> f_sflux   = 0.000000000000000E+00
 --> f_sfluxm  = 0.000000000000000E+00
 --> f_sfluxmm = 0.000000000000000E+00
 --> f_sfluxsmoo = 0.000000000000000E+00
 --> f_uwind     = 0.000000000000000E+00
 --> f_vwind     = 0.000000000000000E+00
 --> f_atemp     = 0.112500000000000E-07
 --> f_aqh     = 0.000000000000000E+00
 --> f_precip  = 0.000000000000000E+00
 --> f_swflux  = 0.000000000000000E+00
 --> f_swdown  = 0.000000000000000E+00
 --> f_uwindm     = 0.000000000000000E+00
 --> f_vwindm     = 0.000000000000000E+00
 --> f_atempm     = 0.140625000000000E-08
 --> f_aqhm     = 0.000000000000000E+00
 --> f_precipm  = 0.000000000000000E+00
 --> f_swfluxm  = 0.000000000000000E+00
 --> f_swdownm  = 0.000000000000000E+00
 --> f_uwindsmoo     = 0.000000000000000E+00
 --> f_vwindsmoo     = 0.000000000000000E+00
 --> f_atempsmoo     = 0.000000000000000E+00
 --> f_aqhsmoo     = 0.000000000000000E+00
 --> f_precipsmoo  = 0.000000000000000E+00
 --> f_swfluxsmoo  = 0.000000000000000E+00
 --> f_swdownsmoo  = 0.000000000000000E+00
 --> f_atl     = 0.000000000000000E+00
 --> f_ctdt    = 0.000000000000000E+00
 --> f_ctds    = 0.000000000000000E+00
 --> f_ctdtclim= 0.000000000000000E+00
 --> f_ctdsclim= 0.000000000000000E+00
 --> f_xbt     = 0.000000000000000E+00
 --> f_argot   = 0.000000000000000E+00
 --> f_argos   = 0.000000000000000E+00
 --> f_drifter   = 0.000000000000000E+00
 --> f_tdrift  = 0.000000000000000E+00
 --> f_sdrift  = 0.000000000000000E+00
 --> f_wdrift  = 0.000000000000000E+00
 --> f_scatx   = 0.000000000000000E+00
 --> f_scaty   = 0.000000000000000E+00
 --> f_scatxm  = 0.000000000000000E+00
 --> f_scatym  = 0.000000000000000E+00
 --> f_obcsn   = 0.000000000000000E+00
 --> f_obcss   = 0.000000000000000E+00
 --> f_obcsw   = 0.000000000000000E+00
 --> f_obcse   = 0.000000000000000E+00
 --> f_ageos   = 0.000000000000000E+00
 --> f_curmtr  = 0.000000000000000E+00
 --> f_kapgm   = 0.000000000000000E+00
 --> f_diffkr  = 0.000000000000000E+00
 --> f_eddytau = 0.000000000000000E+00
 --> f_hfluxmm2           = 0.000000000000000E+00
 --> f_sfluxmm2           = 0.000000000000000E+00
 --> objf_hmean           = 0.920256462071534E-02
 --> fc               = 0.508667839665871E+12
 ph-check fcpertplus =   5.0866784E+11
(PID.TID 0000.0001)  MDS_READ_FIELD: opening file: xx_atemp.0000000000.001.001.data
 ph-check fcpertminus =   5.08667309E+11
(PID.TID 0000.0001)  MDS_READ_FIELD: opening file: xx_atemp.0000000000.001.001.data
(PID.TID 0000.0001) 
(PID.TID 0000.0001)  cal_TimeStamp: iter =          0 time =  0.00000000E+00
(PID.TID 0000.0001)                 date =   19790101           0
(PID.TID 0000.0001) 
(PID.TID 0000.0001) // =======================================================
(PID.TID 0000.0001) // Field Model R_low (ini_masks_etc) at iteration          1
(PID.TID 0000.0001) // CMIN =         -4.200000000000000E+03
(PID.TID 0000.0001) // CMAX =         -5.500000000000000E+01
(PID.TID 0000.0001) // CINT =          1.535185185185185E+02
(PID.TID 0000.0001) // SYMBOLS (CMIN->CMAX): -abcdefghijklmnopqrstuvwxyz+
(PID.TID 0000.0001) //                  0.0: .
(PID.TID 0000.0001) // RANGE I (Lo:Hi:Step):(  -2:  23:   1)
(PID.TID 0000.0001) // RANGE J (Lo:Hi:Step):(  19:  -2:  -1)
(PID.TID 0000.0001) // RANGE K (Lo:Hi:Step):(   1:   1:   1)
(PID.TID 0000.0001) // =======================================================
(PID.TID 0000.0001) K =   1
(PID.TID 0000.0001) //                I=7       I=17
(PID.TID 0000.0001) // |--J--|210123456|890123456|890123
(PID.TID 0000.0001) //     19 cc-..........+.zzxmgcc-...
(PID.TID 0000.0001) //     18 jc-.......+zzz..zzsmjc-...
(PID.TID 0000.0001) //     17 wc-........++z+++z+wwc-...
(PID.TID 0000.0001) //     16 ....zyyz................zy
(PID.TID 0000.0001) //     15 ...yxwwuspxyxz.........yxw
(PID.TID 0000.0001) //     14 ....+wwspppsxzz.........+w
(PID.TID 0000.0001) //     13 .......zwsppsyz...........
(PID.TID 0000.0001) //     12 .........+ypswzz+.........
(PID.TID 0000.0001) //     11 ...........+wwy+..........
(PID.TID 0000.0001) //     10 ..........zzzywy+.........
(PID.TID 0000.0001) //      9 ..z.......+zxsmmm+....z...
(PID.TID 0000.0001) //      8 ..s.....zzzxumjjjjuz..s...
(PID.TID 0000.0001) //      7 pmj......z.+zmjggggjpmj...
(PID.TID 0000.0001) //      6 ggg.........zxmjggggggg...
(PID.TID 0000.0001) //      5 ggg..........zzsjgggggg...
(PID.TID 0000.0001) //      4 ccg............zzmgcccg...
(PID.TID 0000.0001) //      3 cc-..........+.zzxmgcc-...
(PID.TID 0000.0001) //      2 jc-.......+zzz..zzsmjc-...
(PID.TID 0000.0001) //      1 wc-........++z+++z+wwc-...
(PID.TID 0000.0001) //      0 ....zyyz................zy
(PID.TID 0000.0001) //     -1 ...yxwwuspxyxz.........yxw
(PID.TID 0000.0001) //     -2 ....+wwspppsxzz.........+w
(PID.TID 0000.0001) // =======================================================
(PID.TID 0000.0001) // END OF FIELD                                          =
(PID.TID 0000.0001) // =======================================================
(PID.TID 0000.0001) 
(PID.TID 0000.0001) // =======================================================
(PID.TID 0000.0001) // Field Model Ro_surf (ini_masks_etc) at iteration          1
(PID.TID 0000.0001) // CMIN =          1.000000000000000E+32
(PID.TID 0000.0001) // CMAX =         -1.000000000000000E+32
(PID.TID 0000.0001) // CINT =          0.000000000000000E+00
(PID.TID 0000.0001) // SYMBOLS (CMIN->CMAX): -abcdefghijklmnopqrstuvwxyz+
(PID.TID 0000.0001) //                  0.0: .
(PID.TID 0000.0001) // RANGE I (Lo:Hi:Step):(  -2:  23:   1)
(PID.TID 0000.0001) // RANGE J (Lo:Hi:Step):(  19:  -2:  -1)
(PID.TID 0000.0001) // RANGE K (Lo:Hi:Step):(   1:   1:   1)
(PID.TID 0000.0001) // =======================================================
(PID.TID 0000.0001) // =======================================================
(PID.TID 0000.0001) // END OF FIELD                                          =
(PID.TID 0000.0001) // =======================================================
(PID.TID 0000.0001) 
(PID.TID 0000.0001) // =======================================================
(PID.TID 0000.0001) // Field hFacC at iteration          1
(PID.TID 0000.0001) // CMIN =          1.000000000000000E+00
(PID.TID 0000.0001) // CMAX =          1.000000000000000E+00
(PID.TID 0000.0001) // CINT =          0.000000000000000E+00
(PID.TID 0000.0001) // SYMBOLS (CMIN->CMAX): -abcdefghijklmnopqrstuvwxyz+
(PID.TID 0000.0001) //                  0.0: .
(PID.TID 0000.0001) // RANGE I (Lo:Hi:Step):(  -2:  23:   1)
(PID.TID 0000.0001) // RANGE J (Lo:Hi:Step):(  19:  -2:  -1)
(PID.TID 0000.0001) // RANGE K (Lo:Hi:Step):(   1:   1:   1)
(PID.TID 0000.0001) // =======================================================
(PID.TID 0000.0001) // =======================================================
(PID.TID 0000.0001) // END OF FIELD                                          =
(PID.TID 0000.0001) // =======================================================
(PID.TID 0000.0001) 
(PID.TID 0000.0001) // =======================================================
(PID.TID 0000.0001) // Field hFacW at iteration          1
(PID.TID 0000.0001) // CMIN =          1.000000000000000E+00
(PID.TID 0000.0001) // CMAX =          1.000000000000000E+00
(PID.TID 0000.0001) // CINT =          0.000000000000000E+00
(PID.TID 0000.0001) // SYMBOLS (CMIN->CMAX): -abcdefghijklmnopqrstuvwxyz+
(PID.TID 0000.0001) //                  0.0: .
(PID.TID 0000.0001) // RANGE I (Lo:Hi:Step):(  -2:  23:   1)
(PID.TID 0000.0001) // RANGE J (Lo:Hi:Step):(  19:  -2:  -1)
(PID.TID 0000.0001) // RANGE K (Lo:Hi:Step):(   1:   1:   1)
(PID.TID 0000.0001) // =======================================================
(PID.TID 0000.0001) // =======================================================
(PID.TID 0000.0001) // END OF FIELD                                          =
(PID.TID 0000.0001) // =======================================================
(PID.TID 0000.0001) 
(PID.TID 0000.0001) // =======================================================
(PID.TID 0000.0001) // Field hFacS at iteration          1
(PID.TID 0000.0001) // CMIN =          1.000000000000000E+00
(PID.TID 0000.0001) // CMAX =          1.000000000000000E+00
(PID.TID 0000.0001) // CINT =          0.000000000000000E+00
(PID.TID 0000.0001) // SYMBOLS (CMIN->CMAX): -abcdefghijklmnopqrstuvwxyz+
(PID.TID 0000.0001) //                  0.0: .
(PID.TID 0000.0001) // RANGE I (Lo:Hi:Step):(  -2:  23:   1)
(PID.TID 0000.0001) // RANGE J (Lo:Hi:Step):(  19:  -2:  -1)
(PID.TID 0000.0001) // RANGE K (Lo:Hi:Step):(   1:   1:   1)
(PID.TID 0000.0001) // =======================================================
(PID.TID 0000.0001) // =======================================================
(PID.TID 0000.0001) // END OF FIELD                                          =
(PID.TID 0000.0001) // =======================================================
(PID.TID 0000.0001) 
(PID.TID 0000.0001) %MON seaicefCori_max              =   1.4210453727344E-04
(PID.TID 0000.0001) %MON seaicefCori_min              =   1.0666243053630E-04
(PID.TID 0000.0001) %MON seaicefCori_mean             =   1.2711058365303E-04
(PID.TID 0000.0001) %MON seaicefCori_sd               =   1.1031533875266E-05
(PID.TID 0000.0001) %MON seaicefCoriG_max             =   1.4151032568025E-04
(PID.TID 0000.0001) %MON seaicefCoriG_min             =   1.0491029349513E-04
(PID.TID 0000.0001) %MON seaicefCoriG_mean            =   1.2591168756569E-04
(PID.TID 0000.0001) %MON seaicefCoriG_sd              =   1.1383815633153E-05
(PID.TID 0000.0001) %MON seaicefCoriCos_max           =   9.9464325599212E-05
(PID.TID 0000.0001) %MON seaicefCoriCos_min           =   3.2807417471054E-05
(PID.TID 0000.0001) %MON seaicefCoriCos_mean          =   6.7585896192312E-05
(PID.TID 0000.0001) %MON seaicefCoriCos_sd            =   2.0576140902612E-05
(PID.TID 0000.0001) INI_CG2D: CG2D normalisation factor =  1.6094939840939192E-04
(PID.TID 0000.0001) 
(PID.TID 0000.0001) // =======================================================
(PID.TID 0000.0001) // Field Initial Temperature at iteration          1
(PID.TID 0000.0001) // CMIN =          9.205863475799561E-01
(PID.TID 0000.0001) // CMAX =          1.333307647705078E+01
(PID.TID 0000.0001) // CINT =          4.597218566470676E-01
(PID.TID 0000.0001) // SYMBOLS (CMIN->CMAX): -abcdefghijklmnopqrstuvwxyz+
(PID.TID 0000.0001) //                  0.0: .
(PID.TID 0000.0001) // RANGE I (Lo:Hi:Step):(   1:  20:   1)
(PID.TID 0000.0001) // RANGE J (Lo:Hi:Step):(  16:   1:  -1)
(PID.TID 0000.0001) // RANGE K (Lo:Hi:Step):(   1:   1:   1)
(PID.TID 0000.0001) // =======================================================
(PID.TID 0000.0001) K =   1
(PID.TID 0000.0001)                I=10      I=20
(PID.TID 0000.0001) |--J--|123456789|123456789|
(PID.TID 0000.0001)     16 .----...............
(PID.TID 0000.0001)     15 aabaaaaaaaa.........
(PID.TID 0000.0001)     14 .ccccccbbbbc........
(PID.TID 0000.0001)     13 ....dddddddd........
(PID.TID 0000.0001)     12 ......dcdddddd......
(PID.TID 0000.0001)     11 ........cccdd.......
(PID.TID 0000.0001)     10 .......bbcdddd......
(PID.TID 0000.0001)      9 .......cdeeffff....j
(PID.TID 0000.0001)      8 .....ccdefgghhggh..k
(PID.TID 0000.0001)      7 ......d.fghiiiiiijkl
(PID.TID 0000.0001)      6 .........ghhijjjkklm
(PID.TID 0000.0001)      5 ..........hhhijklmnn
(PID.TID 0000.0001)      4 ............ghikmopq
(PID.TID 0000.0001)      3 ..........k.hhiknqsu
(PID.TID 0000.0001)      2 .......oonm..ijknqux
(PID.TID 0000.0001)      1 ........qponlkklosw+
(PID.TID 0000.0001) // =======================================================
(PID.TID 0000.0001) // END OF FIELD                                          =
(PID.TID 0000.0001) // =======================================================
(PID.TID 0000.0001) 
(PID.TID 0000.0001) // =======================================================
(PID.TID 0000.0001) // Field Initial Salinity at iteration          1
(PID.TID 0000.0001) // CMIN =          3.012869834899902E+01
(PID.TID 0000.0001) // CMAX =          3.487366104125977E+01
(PID.TID 0000.0001) // CINT =          1.757393589726201E-01
(PID.TID 0000.0001) // SYMBOLS (CMIN->CMAX): -abcdefghijklmnopqrstuvwxyz+
(PID.TID 0000.0001) //                  0.0: .
(PID.TID 0000.0001) // RANGE I (Lo:Hi:Step):(   1:  20:   1)
(PID.TID 0000.0001) // RANGE J (Lo:Hi:Step):(  16:   1:  -1)
(PID.TID 0000.0001) // RANGE K (Lo:Hi:Step):(   1:   1:   1)
(PID.TID 0000.0001) // =======================================================
(PID.TID 0000.0001) K =   1
(PID.TID 0000.0001)                I=10      I=20
(PID.TID 0000.0001) |--J--|123456789|123456789|
(PID.TID 0000.0001)     16 .nnos...............
(PID.TID 0000.0001)     15 lnoppppppol.........
(PID.TID 0000.0001)     14 .nponmllllmn........
(PID.TID 0000.0001)     13 ....ljhijkmo........
(PID.TID 0000.0001)     12 ......ghjlmors......
(PID.TID 0000.0001)     11 ........jmnpr.......
(PID.TID 0000.0001)     10 .......jlnpqrq......
(PID.TID 0000.0001)      9 .......noqsttts....w
(PID.TID 0000.0001)      8 .....jlnpsuvwwutu..x
(PID.TID 0000.0001)      7 ......j.rruwxyxxwxxy
(PID.TID 0000.0001)      6 .........ppruxyyzzzz
(PID.TID 0000.0001)      5 ..........ijoswyzzzz
(PID.TID 0000.0001)      4 ............iotwyzzz
(PID.TID 0000.0001)      3 ..........g.imquwyzz
(PID.TID 0000.0001)      2 .......-bef..knqtvxz
(PID.TID 0000.0001)      1 ........-cegijlosvy+
(PID.TID 0000.0001) // =======================================================
(PID.TID 0000.0001) // END OF FIELD                                          =
(PID.TID 0000.0001) // =======================================================
(PID.TID 0000.0001) 
(PID.TID 0000.0001) Start initial hydrostatic pressure computation
(PID.TID 0000.0001) Pressure is predetermined for buoyancyRelation OCEANIC
(PID.TID 0000.0001) 
(PID.TID 0000.0001)  MDS_READ_FIELD: opening file: xx_theta.0000000000.001.001.data
 ph-ctrl theta0 a   0.
 ph-ctrl theta0 b   0.
(PID.TID 0000.0001)  MDS_READ_FIELD: opening file: xx_salt.0000000000.001.001.data
(PID.TID 0000.0001) // =======================================================
(PID.TID 0000.0001) // Model current state
(PID.TID 0000.0001) // =======================================================
(PID.TID 0000.0001) 
(PID.TID 0000.0001) // =======================================================
(PID.TID 0000.0001) // Begin MONITOR SEAICE statistics
(PID.TID 0000.0001) // =======================================================
(PID.TID 0000.0001) %MON seaice_tsnumber              =                     0
(PID.TID 0000.0001) %MON seaice_time_sec              =   0.0000000000000E+00
(PID.TID 0000.0001) %MON seaice_uice_max              =   0.0000000000000E+00
(PID.TID 0000.0001) %MON seaice_uice_min              =   0.0000000000000E+00
(PID.TID 0000.0001) %MON seaice_uice_mean             =   0.0000000000000E+00
(PID.TID 0000.0001) %MON seaice_uice_sd               =   0.0000000000000E+00
(PID.TID 0000.0001) %MON seaice_uice_del2             =   0.0000000000000E+00
(PID.TID 0000.0001) %MON seaice_vice_max              =   0.0000000000000E+00
(PID.TID 0000.0001) %MON seaice_vice_min              =   0.0000000000000E+00
(PID.TID 0000.0001) %MON seaice_vice_mean             =   0.0000000000000E+00
(PID.TID 0000.0001) %MON seaice_vice_sd               =   0.0000000000000E+00
(PID.TID 0000.0001) %MON seaice_vice_del2             =   0.0000000000000E+00
(PID.TID 0000.0001) %MON seaice_area_max              =   1.0000000000000E+00
(PID.TID 0000.0001) %MON seaice_area_min              =   1.0000000000000E+00
(PID.TID 0000.0001) %MON seaice_area_mean             =   1.0000000000000E+00
(PID.TID 0000.0001) %MON seaice_area_sd               =   0.0000000000000E+00
(PID.TID 0000.0001) %MON seaice_area_del2             =   0.0000000000000E+00
(PID.TID 0000.0001) %MON seaice_heff_max              =   1.0000000000000E+00
(PID.TID 0000.0001) %MON seaice_heff_min              =   1.0000000000000E+00
(PID.TID 0000.0001) %MON seaice_heff_mean             =   1.0000000000000E+00
(PID.TID 0000.0001) %MON seaice_heff_sd               =   0.0000000000000E+00
(PID.TID 0000.0001) %MON seaice_heff_del2             =   0.0000000000000E+00
(PID.TID 0000.0001) %MON seaice_hsnow_max             =   2.0000000298023E-01
(PID.TID 0000.0001) %MON seaice_hsnow_min             =   2.0000000298023E-01
(PID.TID 0000.0001) %MON seaice_hsnow_mean            =   2.0000000298023E-01
(PID.TID 0000.0001) %MON seaice_hsnow_sd              =   5.8286708792821E-16
(PID.TID 0000.0001) %MON seaice_hsnow_del2            =   0.0000000000000E+00
(PID.TID 0000.0001) // =======================================================
(PID.TID 0000.0001) // End MONITOR SEAICE statistics
(PID.TID 0000.0001) // =======================================================
(PID.TID 0000.0001)  MDS_READ_FIELD: opening file: xx_atemp.0000000000.001.001.data
(PID.TID 0000.0001)  MDS_READ_FIELD: opening file: xx_atemp.0000000000.001.001.data
(PID.TID 0000.0001)  MDS_READ_FIELD: opening file: xx_aqh.0000000000.001.001.data
(PID.TID 0000.0001)  MDS_READ_FIELD: opening file: xx_aqh.0000000000.001.001.data
(PID.TID 0000.0001)  MDS_READ_FIELD: opening file: xx_precip.0000000000.001.001.data
(PID.TID 0000.0001)  MDS_READ_FIELD: opening file: xx_precip.0000000000.001.001.data
(PID.TID 0000.0001)  MDS_READ_FIELD: opening file: xx_swdown.0000000000.001.001.data
(PID.TID 0000.0001)  MDS_READ_FIELD: opening file: xx_swdown.0000000000.001.001.data
(PID.TID 0000.0001)  MDS_READ_FIELD: opening file: xx_lwdown.0000000000.001.001.data
(PID.TID 0000.0001)  MDS_READ_FIELD: opening file: xx_lwdown.0000000000.001.001.data
(PID.TID 0000.0001)  MDS_READ_FIELD: opening file: xx_snowprecip.0000000000.001.001.data
(PID.TID 0000.0001)  MDS_READ_FIELD: opening file: xx_snowprecip.0000000000.001.001.data
(PID.TID 0000.0001)  MDS_READ_FIELD: opening file: xx_apressure.0000000000.001.001.data
(PID.TID 0000.0001)  MDS_READ_FIELD: opening file: xx_apressure.0000000000.001.001.data
(PID.TID 0000.0001)  MDS_READ_FIELD: opening file: xx_uwind.0000000000.001.001.data
(PID.TID 0000.0001)  MDS_READ_FIELD: opening file: xx_uwind.0000000000.001.001.data
(PID.TID 0000.0001)  MDS_READ_FIELD: opening file: xx_vwind.0000000000.001.001.data
(PID.TID 0000.0001)  MDS_READ_FIELD: opening file: xx_vwind.0000000000.001.001.data
(PID.TID 0000.0001) // =======================================================
(PID.TID 0000.0001) // Begin MONITOR EXF statistics
(PID.TID 0000.0001) // =======================================================
(PID.TID 0000.0001) %MON exf_tsnumber                 =                     0
(PID.TID 0000.0001) %MON exf_time_sec                 =   0.0000000000000E+00
(PID.TID 0000.0001) %MON exf_ustress_max              =   6.3903775845771E-02
(PID.TID 0000.0001) %MON exf_ustress_min              =  -9.5324050318348E-02
(PID.TID 0000.0001) %MON exf_ustress_mean             =   2.2585162236771E-02
(PID.TID 0000.0001) %MON exf_ustress_sd               =   2.7275779975693E-02
(PID.TID 0000.0001) %MON exf_ustress_del2             =   2.9464928316532E-03
(PID.TID 0000.0001) %MON exf_vstress_max              =   5.4708944127586E-02
(PID.TID 0000.0001) %MON exf_vstress_min              =  -6.2488440618747E-02
(PID.TID 0000.0001) %MON exf_vstress_mean             =  -5.6174742902945E-03
(PID.TID 0000.0001) %MON exf_vstress_sd               =   1.5596129767854E-02
(PID.TID 0000.0001) %MON exf_vstress_del2             =   1.7930354126347E-03
(PID.TID 0000.0001) %MON exf_hflux_max                =   7.3111020636161E+02
(PID.TID 0000.0001) %MON exf_hflux_min                =   1.0991726570245E+02
(PID.TID 0000.0001) %MON exf_hflux_mean               =   2.7655955896913E+02
(PID.TID 0000.0001) %MON exf_hflux_sd                 =   1.5872018647849E+02
(PID.TID 0000.0001) %MON exf_hflux_del2               =   1.9324680413847E+01
(PID.TID 0000.0001) %MON exf_sflux_max                =   5.3473262221640E-08
(PID.TID 0000.0001) %MON exf_sflux_min                =  -6.1385296755754E-08
(PID.TID 0000.0001) %MON exf_sflux_mean               =  -7.3062642924623E-09
(PID.TID 0000.0001) %MON exf_sflux_sd                 =   2.6562207464317E-08
(PID.TID 0000.0001) %MON exf_sflux_del2               =   3.6392857220037E-09
(PID.TID 0000.0001) %MON exf_uwind_max                =   6.4643745422363E+00
(PID.TID 0000.0001) %MON exf_uwind_min                =  -6.8372380733490E+00
(PID.TID 0000.0001) %MON exf_uwind_mean               =   2.7697727336031E+00
(PID.TID 0000.0001) %MON exf_uwind_sd                 =   2.9900402496951E+00
(PID.TID 0000.0001) %MON exf_uwind_del2               =   3.1570994739265E-01
(PID.TID 0000.0001) %MON exf_vwind_max                =   3.9240682125092E+00
(PID.TID 0000.0001) %MON exf_vwind_min                =  -6.0197033882141E+00
(PID.TID 0000.0001) %MON exf_vwind_mean               =  -7.6089868124963E-01
(PID.TID 0000.0001) %MON exf_vwind_sd                 =   1.7293437592941E+00
(PID.TID 0000.0001) %MON exf_vwind_del2               =   1.9333263882436E-01
(PID.TID 0000.0001) %MON exf_wspeed_max               =   7.8832820454477E+00
(PID.TID 0000.0001) %MON exf_wspeed_min               =   4.6035219539401E-01
(PID.TID 0000.0001) %MON exf_wspeed_mean              =   4.1981217095273E+00
(PID.TID 0000.0001) %MON exf_wspeed_sd                =   1.5991724245810E+00
(PID.TID 0000.0001) %MON exf_wspeed_del2              =   3.7693667977018E-01
(PID.TID 0000.0001) %MON exf_atemp_max                =   2.8188281250000E+02
(PID.TID 0000.0001) %MON exf_atemp_min                =   2.3646176910400E+02
(PID.TID 0000.0001) %MON exf_atemp_mean               =   2.6394605689467E+02
(PID.TID 0000.0001) %MON exf_atemp_sd                 =   1.1983417087069E+01
(PID.TID 0000.0001) %MON exf_atemp_del2               =   6.4942309334310E-01
(PID.TID 0000.0001) %MON exf_aqh_max                  =   6.3231729436666E-03
(PID.TID 0000.0001) %MON exf_aqh_min                  =   1.6369274817407E-04
(PID.TID 0000.0001) %MON exf_aqh_mean                 =   2.4803629101886E-03
(PID.TID 0000.0001) %MON exf_aqh_sd                   =   1.4265074770275E-03
(PID.TID 0000.0001) %MON exf_aqh_del2                 =   6.8141780599641E-05
(PID.TID 0000.0001) %MON exf_lwflux_max               =   1.9978966060501E+02
(PID.TID 0000.0001) %MON exf_lwflux_min               =   6.3304595803996E+01
(PID.TID 0000.0001) %MON exf_lwflux_mean              =   1.0410079899302E+02
(PID.TID 0000.0001) %MON exf_lwflux_sd                =   3.6519264181786E+01
(PID.TID 0000.0001) %MON exf_lwflux_del2              =   3.1286635970398E+00
(PID.TID 0000.0001) %MON exf_precip_max               =   1.0498766300771E-07
(PID.TID 0000.0001) %MON exf_precip_min               =   2.7359498694368E-10
(PID.TID 0000.0001) %MON exf_precip_mean              =   3.6390080543085E-08
(PID.TID 0000.0001) %MON exf_precip_sd                =   2.0578148171209E-08
(PID.TID 0000.0001) %MON exf_precip_del2              =   2.5551549857431E-09
(PID.TID 0000.0001) %MON exf_snowprecip_max           =   0.0000000000000E+00
(PID.TID 0000.0001) %MON exf_snowprecip_min           =   0.0000000000000E+00
(PID.TID 0000.0001) %MON exf_snowprecip_mean          =   0.0000000000000E+00
(PID.TID 0000.0001) %MON exf_snowprecip_sd            =   0.0000000000000E+00
(PID.TID 0000.0001) %MON exf_snowprecip_del2          =   0.0000000000000E+00
(PID.TID 0000.0001) %MON exf_swflux_max               =  -8.1205755472183E-02
(PID.TID 0000.0001) %MON exf_swflux_min               =  -6.3973114013672E+01
(PID.TID 0000.0001) %MON exf_swflux_mean              =  -2.6453223022948E+01
(PID.TID 0000.0001) %MON exf_swflux_sd                =   1.9625901079469E+01
(PID.TID 0000.0001) %MON exf_swflux_del2              =   4.7901276555285E-01
(PID.TID 0000.0001) %MON exf_evap_max                 =   5.9797470045733E-08
(PID.TID 0000.0001) %MON exf_evap_min                 =   1.0729148721654E-08
(PID.TID 0000.0001) %MON exf_evap_mean                =   2.9083816250622E-08
(PID.TID 0000.0001) %MON exf_evap_sd                  =   9.2938018617652E-09
(PID.TID 0000.0001) %MON exf_evap_del2                =   2.0154590676424E-09
(PID.TID 0000.0001) %MON exf_swdown_max               =   7.1081237792969E+01
(PID.TID 0000.0001) %MON exf_swdown_min               =   9.0228617191315E-02
(PID.TID 0000.0001) %MON exf_swdown_mean              =   2.9392470025498E+01
(PID.TID 0000.0001) %MON exf_swdown_sd                =   2.1806556754965E+01
(PID.TID 0000.0001) %MON exf_swdown_del2              =   5.3223640616983E-01
(PID.TID 0000.0001) %MON exf_lwdown_max               =   3.0567971801758E+02
(PID.TID 0000.0001) %MON exf_lwdown_min               =   1.1599769210815E+02
(PID.TID 0000.0001) %MON exf_lwdown_mean              =   2.2594931695913E+02
(PID.TID 0000.0001) %MON exf_lwdown_sd                =   4.6277429231296E+01
(PID.TID 0000.0001) %MON exf_lwdown_del2              =   3.2438212966919E+00
(PID.TID 0000.0001) %MON exf_apressure_max            =   0.0000000000000E+00
(PID.TID 0000.0001) %MON exf_apressure_min            =   0.0000000000000E+00
(PID.TID 0000.0001) %MON exf_apressure_mean           =   0.0000000000000E+00
(PID.TID 0000.0001) %MON exf_apressure_sd             =   0.0000000000000E+00
(PID.TID 0000.0001) %MON exf_apressure_del2           =   0.0000000000000E+00
(PID.TID 0000.0001) %MON exf_runoff_max               =   0.0000000000000E+00
(PID.TID 0000.0001) %MON exf_runoff_min               =   0.0000000000000E+00
(PID.TID 0000.0001) %MON exf_runoff_mean              =   0.0000000000000E+00
(PID.TID 0000.0001) %MON exf_runoff_sd                =   0.0000000000000E+00
(PID.TID 0000.0001) %MON exf_runoff_del2              =   0.0000000000000E+00
(PID.TID 0000.0001) %MON exf_climsst_max              =   0.0000000000000E+00
(PID.TID 0000.0001) %MON exf_climsst_min              =   0.0000000000000E+00
(PID.TID 0000.0001) %MON exf_climsst_mean             =   0.0000000000000E+00
(PID.TID 0000.0001) %MON exf_climsst_sd               =   0.0000000000000E+00
(PID.TID 0000.0001) %MON exf_climsst_del2             =   0.0000000000000E+00
(PID.TID 0000.0001) %MON exf_climsss_max              =   3.5040330886841E+01
(PID.TID 0000.0001) %MON exf_climsss_min              =   3.0666313171387E+01
(PID.TID 0000.0001) %MON exf_climsss_mean             =   3.3459319600989E+01
(PID.TID 0000.0001) %MON exf_climsss_sd               =   1.0319548925494E+00
(PID.TID 0000.0001) %MON exf_climsss_del2             =   1.0019396146139E-01
(PID.TID 0000.0001) // =======================================================
(PID.TID 0000.0001) // End MONITOR EXF statistics
(PID.TID 0000.0001) // =======================================================
 ph-ice B  0  0.  0.  0.
 ph-ice C  0  5.30354909E+10
 cg2d: Sum(rhs),rhsMax =   1.05818132034585E-15  9.93037467350620E-01
(PID.TID 0000.0001) // =======================================================
(PID.TID 0000.0001) // Begin MONITOR SEAICE statistics
(PID.TID 0000.0001) // =======================================================
(PID.TID 0000.0001) %MON seaice_tsnumber              =                     1
(PID.TID 0000.0001) %MON seaice_time_sec              =   3.6000000000000E+03
(PID.TID 0000.0001) %MON seaice_uice_max              =   1.1830188588838E-01
(PID.TID 0000.0001) %MON seaice_uice_min              =  -3.6947667601810E-02
(PID.TID 0000.0001) %MON seaice_uice_mean             =   4.6351011395841E-02
(PID.TID 0000.0001) %MON seaice_uice_sd               =   4.4551623876367E-02
(PID.TID 0000.0001) %MON seaice_uice_del2             =   2.6893939150909E-03
(PID.TID 0000.0001) %MON seaice_vice_max              =   3.8048078875392E-02
(PID.TID 0000.0001) %MON seaice_vice_min              =  -7.2208311040469E-02
(PID.TID 0000.0001) %MON seaice_vice_mean             =  -1.7212953413442E-02
(PID.TID 0000.0001) %MON seaice_vice_sd               =   2.7498420195410E-02
(PID.TID 0000.0001) %MON seaice_vice_del2             =   2.2712992187913E-03
(PID.TID 0000.0001) %MON seaice_area_max              =   1.0000000000000E+00
(PID.TID 0000.0001) %MON seaice_area_min              =   0.0000000000000E+00
(PID.TID 0000.0001) %MON seaice_area_mean             =   6.3240422333848E-01
(PID.TID 0000.0001) %MON seaice_area_sd               =   4.5166857898082E-01
(PID.TID 0000.0001) %MON seaice_area_del2             =   4.7454816652248E-02
(PID.TID 0000.0001) %MON seaice_heff_max              =   6.0076635272005E-01
(PID.TID 0000.0001) %MON seaice_heff_min              =   0.0000000000000E+00
(PID.TID 0000.0001) %MON seaice_heff_mean             =   1.4887451421607E-01
(PID.TID 0000.0001) %MON seaice_heff_sd               =   1.8287366826390E-01
(PID.TID 0000.0001) %MON seaice_heff_del2             =   1.0146605920130E-02
(PID.TID 0000.0001) %MON seaice_hsnow_max             =   2.0078474686707E-01
(PID.TID 0000.0001) %MON seaice_hsnow_min             =   0.0000000000000E+00
(PID.TID 0000.0001) %MON seaice_hsnow_mean            =   1.1848697056338E-01
(PID.TID 0000.0001) %MON seaice_hsnow_sd              =   9.6623972770983E-02
(PID.TID 0000.0001) %MON seaice_hsnow_del2            =   6.2688952170602E-03
(PID.TID 0000.0001) // =======================================================
(PID.TID 0000.0001) // End MONITOR SEAICE statistics
(PID.TID 0000.0001) // =======================================================
(PID.TID 0000.0001) // =======================================================
(PID.TID 0000.0001) // Begin MONITOR EXF statistics
(PID.TID 0000.0001) // =======================================================
(PID.TID 0000.0001) %MON exf_tsnumber                 =                     1
(PID.TID 0000.0001) %MON exf_time_sec                 =   3.6000000000000E+03
(PID.TID 0000.0001) %MON exf_ustress_max              =   5.2215336216899E-02
(PID.TID 0000.0001) %MON exf_ustress_min              =  -9.3781516255246E-02
(PID.TID 0000.0001) %MON exf_ustress_mean             =   1.7908665668069E-02
(PID.TID 0000.0001) %MON exf_ustress_sd               =   2.3677824475381E-02
(PID.TID 0000.0001) %MON exf_ustress_del2             =   2.8185945121624E-03
(PID.TID 0000.0001) %MON exf_vstress_max              =   5.3823846971061E-02
(PID.TID 0000.0001) %MON exf_vstress_min              =  -5.8521115502029E-02
(PID.TID 0000.0001) %MON exf_vstress_mean             =  -5.4709255987690E-03
(PID.TID 0000.0001) %MON exf_vstress_sd               =   1.4440702368506E-02
(PID.TID 0000.0001) %MON exf_vstress_del2             =   1.6942466375470E-03
(PID.TID 0000.0001) %MON exf_hflux_max                =   6.2467472133264E+02
(PID.TID 0000.0001) %MON exf_hflux_min                =  -5.4116825759641E+01
(PID.TID 0000.0001) %MON exf_hflux_mean               =   1.4693365455836E+02
(PID.TID 0000.0001) %MON exf_hflux_sd                 =   1.8156698366528E+02
(PID.TID 0000.0001) %MON exf_hflux_del2               =   1.6567549851701E+01
(PID.TID 0000.0001) %MON exf_sflux_max                =   3.9008935708334E-08
(PID.TID 0000.0001) %MON exf_sflux_min                =  -8.8902774357601E-08
(PID.TID 0000.0001) %MON exf_sflux_mean               =  -2.5876940494651E-08
(PID.TID 0000.0001) %MON exf_sflux_sd                 =   3.0537598349024E-08
(PID.TID 0000.0001) %MON exf_sflux_del2               =   3.1605977391043E-09
(PID.TID 0000.0001) %MON exf_uwind_max                =   6.4648819946852E+00
(PID.TID 0000.0001) %MON exf_uwind_min                =  -6.8372648550513E+00
(PID.TID 0000.0001) %MON exf_uwind_mean               =   2.7698802859476E+00
(PID.TID 0000.0001) %MON exf_uwind_sd                 =   2.9903162155877E+00
(PID.TID 0000.0001) %MON exf_uwind_del2               =   3.1571785161521E-01
(PID.TID 0000.0001) %MON exf_vwind_max                =   3.9240983933048E+00
(PID.TID 0000.0001) %MON exf_vwind_min                =  -6.0187974783892E+00
(PID.TID 0000.0001) %MON exf_vwind_mean               =  -7.6028090815952E-01
(PID.TID 0000.0001) %MON exf_vwind_sd                 =   1.7294518007626E+00
(PID.TID 0000.0001) %MON exf_vwind_del2               =   1.9332576748242E-01
(PID.TID 0000.0001) %MON exf_wspeed_max               =   7.8833202965791E+00
(PID.TID 0000.0001) %MON exf_wspeed_min               =   4.6010935417159E-01
(PID.TID 0000.0001) %MON exf_wspeed_mean              =   4.1982241536133E+00
(PID.TID 0000.0001) %MON exf_wspeed_sd                =   1.5994287774633E+00
(PID.TID 0000.0001) %MON exf_wspeed_del2              =   3.7699000842292E-01
(PID.TID 0000.0001) %MON exf_atemp_max                =   2.8188110034713E+02
(PID.TID 0000.0001) %MON exf_atemp_min                =   2.3645730413635E+02
(PID.TID 0000.0001) %MON exf_atemp_mean               =   2.6394141281326E+02
(PID.TID 0000.0001) %MON exf_atemp_sd                 =   1.1984877621629E+01
(PID.TID 0000.0001) %MON exf_atemp_del2               =   6.4944242489554E-01
(PID.TID 0000.0001) %MON exf_aqh_max                  =   6.3224764028055E-03
(PID.TID 0000.0001) %MON exf_aqh_min                  =   1.6359864467567E-04
(PID.TID 0000.0001) %MON exf_aqh_mean                 =   2.4798025537840E-03
(PID.TID 0000.0001) %MON exf_aqh_sd                   =   1.4264043737180E-03
(PID.TID 0000.0001) %MON exf_aqh_del2                 =   6.8128113038494E-05
(PID.TID 0000.0001) %MON exf_lwflux_max               =   1.8380784776361E+02
(PID.TID 0000.0001) %MON exf_lwflux_min               =   2.6472644798215E+01
(PID.TID 0000.0001) %MON exf_lwflux_mean              =   7.5350572632925E+01
(PID.TID 0000.0001) %MON exf_lwflux_sd                =   4.3134595524386E+01
(PID.TID 0000.0001) %MON exf_lwflux_del2              =   3.2390977067912E+00
(PID.TID 0000.0001) %MON exf_precip_max               =   1.0498904445033E-07
(PID.TID 0000.0001) %MON exf_precip_min               =   2.7346106047101E-10
(PID.TID 0000.0001) %MON exf_precip_mean              =   3.6390069699050E-08
(PID.TID 0000.0001) %MON exf_precip_sd                =   2.0578598603627E-08
(PID.TID 0000.0001) %MON exf_precip_del2              =   2.5556826789328E-09
(PID.TID 0000.0001) %MON exf_snowprecip_max           =   0.0000000000000E+00
(PID.TID 0000.0001) %MON exf_snowprecip_min           =   0.0000000000000E+00
(PID.TID 0000.0001) %MON exf_snowprecip_mean          =   0.0000000000000E+00
(PID.TID 0000.0001) %MON exf_snowprecip_sd            =   0.0000000000000E+00
(PID.TID 0000.0001) %MON exf_snowprecip_del2          =   0.0000000000000E+00
(PID.TID 0000.0001) %MON exf_swflux_max               =  -8.1206038349965E-02
(PID.TID 0000.0001) %MON exf_swflux_min               =  -6.3991984364244E+01
(PID.TID 0000.0001) %MON exf_swflux_mean              =  -2.6463755238823E+01
(PID.TID 0000.0001) %MON exf_swflux_sd                =   1.9629736696482E+01
(PID.TID 0000.0001) %MON exf_swflux_del2              =   4.7911963949881E-01
(PID.TID 0000.0001) %MON exf_evap_max                 =   4.5332480821497E-08
(PID.TID 0000.0001) %MON exf_evap_min                 =  -4.7524365011618E-09
(PID.TID 0000.0001) %MON exf_evap_mean                =   1.0513129204399E-08
(PID.TID 0000.0001) %MON exf_evap_sd                  =   1.1274582898985E-08
(PID.TID 0000.0001) %MON exf_evap_del2                =   1.3716110068495E-09
(PID.TID 0000.0001) %MON exf_swdown_max               =   7.1102204849160E+01
(PID.TID 0000.0001) %MON exf_swdown_min               =   9.0228931499961E-02
(PID.TID 0000.0001) %MON exf_swdown_mean              =   2.9404172487581E+01
(PID.TID 0000.0001) %MON exf_swdown_sd                =   2.1810818551646E+01
(PID.TID 0000.0001) %MON exf_swdown_del2              =   5.3235515499868E-01
(PID.TID 0000.0001) %MON exf_lwdown_max               =   3.0567089193375E+02
(PID.TID 0000.0001) %MON exf_lwdown_min               =   1.1598258522951E+02
(PID.TID 0000.0001) %MON exf_lwdown_mean              =   2.2593360963007E+02
(PID.TID 0000.0001) %MON exf_lwdown_sd                =   4.6281398610271E+01
(PID.TID 0000.0001) %MON exf_lwdown_del2              =   3.2438329367646E+00
(PID.TID 0000.0001) %MON exf_apressure_max            =   0.0000000000000E+00
(PID.TID 0000.0001) %MON exf_apressure_min            =   0.0000000000000E+00
(PID.TID 0000.0001) %MON exf_apressure_mean           =   0.0000000000000E+00
(PID.TID 0000.0001) %MON exf_apressure_sd             =   0.0000000000000E+00
(PID.TID 0000.0001) %MON exf_apressure_del2           =   0.0000000000000E+00
(PID.TID 0000.0001) %MON exf_runoff_max               =   0.0000000000000E+00
(PID.TID 0000.0001) %MON exf_runoff_min               =   0.0000000000000E+00
(PID.TID 0000.0001) %MON exf_runoff_mean              =   0.0000000000000E+00
(PID.TID 0000.0001) %MON exf_runoff_sd                =   0.0000000000000E+00
(PID.TID 0000.0001) %MON exf_runoff_del2              =   0.0000000000000E+00
(PID.TID 0000.0001) %MON exf_climsst_max              =   0.0000000000000E+00
(PID.TID 0000.0001) %MON exf_climsst_min              =   0.0000000000000E+00
(PID.TID 0000.0001) %MON exf_climsst_mean             =   0.0000000000000E+00
(PID.TID 0000.0001) %MON exf_climsst_sd               =   0.0000000000000E+00
(PID.TID 0000.0001) %MON exf_climsst_del2             =   0.0000000000000E+00
(PID.TID 0000.0001) %MON exf_climsss_max              =   3.5040515633880E+01
(PID.TID 0000.0001) %MON exf_climsss_min              =   3.0667072499385E+01
(PID.TID 0000.0001) %MON exf_climsss_mean             =   3.3459840934468E+01
(PID.TID 0000.0001) %MON exf_climsss_sd               =   1.0318832207269E+00
(PID.TID 0000.0001) %MON exf_climsss_del2             =   1.0017673217099E-01
(PID.TID 0000.0001) // =======================================================
(PID.TID 0000.0001) // End MONITOR EXF statistics
(PID.TID 0000.0001) // =======================================================
 ph-ice B  1  0.  0.  0.
 ph-ice C  1  1.03662085E+11
 cg2d: Sum(rhs),rhsMax =   9.71449143349901E-10  1.19254195625089E+00
(PID.TID 0000.0001) // =======================================================
(PID.TID 0000.0001) // Begin MONITOR SEAICE statistics
(PID.TID 0000.0001) // =======================================================
(PID.TID 0000.0001) %MON seaice_tsnumber              =                     2
(PID.TID 0000.0001) %MON seaice_time_sec              =   7.2000000000000E+03
(PID.TID 0000.0001) %MON seaice_uice_max              =   1.5575757124203E-01
(PID.TID 0000.0001) %MON seaice_uice_min              =  -8.0942741430966E-02
(PID.TID 0000.0001) %MON seaice_uice_mean             =   6.5168649927673E-02
(PID.TID 0000.0001) %MON seaice_uice_sd               =   6.1631643145890E-02
(PID.TID 0000.0001) %MON seaice_uice_del2             =   6.8706904577977E-03
(PID.TID 0000.0001) %MON seaice_vice_max              =   7.0616929469998E-02
(PID.TID 0000.0001) %MON seaice_vice_min              =  -1.3662299947234E-01
(PID.TID 0000.0001) %MON seaice_vice_mean             =  -2.1829812695758E-02
(PID.TID 0000.0001) %MON seaice_vice_sd               =   4.1312329533774E-02
(PID.TID 0000.0001) %MON seaice_vice_del2             =   5.3521934590226E-03
(PID.TID 0000.0001) %MON seaice_area_max              =   1.0000000000000E+00
(PID.TID 0000.0001) %MON seaice_area_min              =   0.0000000000000E+00
(PID.TID 0000.0001) %MON seaice_area_mean             =   6.2511459536259E-01
(PID.TID 0000.0001) %MON seaice_area_sd               =   4.5918069602726E-01
(PID.TID 0000.0001) %MON seaice_area_del2             =   5.3309165813683E-02
(PID.TID 0000.0001) %MON seaice_heff_max              =   5.5572638142240E-01
(PID.TID 0000.0001) %MON seaice_heff_min              =   0.0000000000000E+00
(PID.TID 0000.0001) %MON seaice_heff_mean             =   1.4211256280793E-01
(PID.TID 0000.0001) %MON seaice_heff_sd               =   1.7471336179966E-01
(PID.TID 0000.0001) %MON seaice_heff_del2             =   1.3300800087928E-02
(PID.TID 0000.0001) %MON seaice_hsnow_max             =   2.0156957952176E-01
(PID.TID 0000.0001) %MON seaice_hsnow_min             =   0.0000000000000E+00
(PID.TID 0000.0001) %MON seaice_hsnow_mean            =   1.1798259565184E-01
(PID.TID 0000.0001) %MON seaice_hsnow_sd              =   9.6675387962263E-02
(PID.TID 0000.0001) %MON seaice_hsnow_del2            =   6.3372971187471E-03
(PID.TID 0000.0001) // =======================================================
(PID.TID 0000.0001) // End MONITOR SEAICE statistics
(PID.TID 0000.0001) // =======================================================
(PID.TID 0000.0001) // =======================================================
(PID.TID 0000.0001) // Begin MONITOR EXF statistics
(PID.TID 0000.0001) // =======================================================
(PID.TID 0000.0001) %MON exf_tsnumber                 =                     2
(PID.TID 0000.0001) %MON exf_time_sec                 =   7.2000000000000E+03
(PID.TID 0000.0001) %MON exf_ustress_max              =   5.2234389551241E-02
(PID.TID 0000.0001) %MON exf_ustress_min              =  -9.3783873525021E-02
(PID.TID 0000.0001) %MON exf_ustress_mean             =   1.7912603680673E-02
(PID.TID 0000.0001) %MON exf_ustress_sd               =   2.3689566657623E-02
(PID.TID 0000.0001) %MON exf_ustress_del2             =   2.8175390184118E-03
(PID.TID 0000.0001) %MON exf_vstress_max              =   5.3825403016462E-02
(PID.TID 0000.0001) %MON exf_vstress_min              =  -5.8501907463670E-02
(PID.TID 0000.0001) %MON exf_vstress_mean             =  -5.4571893464155E-03
(PID.TID 0000.0001) %MON exf_vstress_sd               =   1.4439148856715E-02
(PID.TID 0000.0001) %MON exf_vstress_del2             =   1.6937326092935E-03
(PID.TID 0000.0001) %MON exf_hflux_max                =   6.2473671698450E+02
(PID.TID 0000.0001) %MON exf_hflux_min                =  -5.1856944043789E+01
(PID.TID 0000.0001) %MON exf_hflux_mean               =   1.4603892669441E+02
(PID.TID 0000.0001) %MON exf_hflux_sd                 =   1.8006277998602E+02
(PID.TID 0000.0001) %MON exf_hflux_del2               =   1.6304066735378E+01
(PID.TID 0000.0001) %MON exf_sflux_max                =   3.9010172880204E-08
(PID.TID 0000.0001) %MON exf_sflux_min                =  -8.8920778732677E-08
(PID.TID 0000.0001) %MON exf_sflux_mean               =  -2.5980919313130E-08
(PID.TID 0000.0001) %MON exf_sflux_sd                 =   3.0374070224393E-08
(PID.TID 0000.0001) %MON exf_sflux_del2               =   3.1602147569052E-09
(PID.TID 0000.0001) %MON exf_uwind_max                =   6.4653894471340E+00
(PID.TID 0000.0001) %MON exf_uwind_min                =  -6.8372916367536E+00
(PID.TID 0000.0001) %MON exf_uwind_mean               =   2.7699878382920E+00
(PID.TID 0000.0001) %MON exf_uwind_sd                 =   2.9905922217476E+00
(PID.TID 0000.0001) %MON exf_uwind_del2               =   3.1572575583776E-01
(PID.TID 0000.0001) %MON exf_vwind_max                =   3.9241285741003E+00
(PID.TID 0000.0001) %MON exf_vwind_min                =  -6.0178915685643E+00
(PID.TID 0000.0001) %MON exf_vwind_mean               =  -7.5966313506940E-01
(PID.TID 0000.0001) %MON exf_vwind_sd                 =   1.7295599554900E+00
(PID.TID 0000.0001) %MON exf_vwind_del2               =   1.9331889614049E-01
(PID.TID 0000.0001) %MON exf_wspeed_max               =   7.8833585477315E+00
(PID.TID 0000.0001) %MON exf_wspeed_min               =   4.5986651533145E-01
(PID.TID 0000.0001) %MON exf_wspeed_mean              =   4.1983267266652E+00
(PID.TID 0000.0001) %MON exf_wspeed_sd                =   1.5996852426804E+00
(PID.TID 0000.0001) %MON exf_wspeed_del2              =   3.7704333058266E-01
(PID.TID 0000.0001) %MON exf_atemp_max                =   2.8187938819427E+02
(PID.TID 0000.0001) %MON exf_atemp_min                =   2.3645283916869E+02
(PID.TID 0000.0001) %MON exf_atemp_mean               =   2.6393676873185E+02
(PID.TID 0000.0001) %MON exf_atemp_sd                 =   1.1986338644000E+01
(PID.TID 0000.0001) %MON exf_atemp_del2               =   6.4946175644798E-01
(PID.TID 0000.0001) %MON exf_aqh_max                  =   6.3217798619445E-03
(PID.TID 0000.0001) %MON exf_aqh_min                  =   1.6350454117726E-04
(PID.TID 0000.0001) %MON exf_aqh_mean                 =   2.4792421973794E-03
(PID.TID 0000.0001) %MON exf_aqh_sd                   =   1.4263013062694E-03
(PID.TID 0000.0001) %MON exf_aqh_del2                 =   6.8114445477348E-05
(PID.TID 0000.0001) %MON exf_lwflux_max               =   1.8153743597504E+02
(PID.TID 0000.0001) %MON exf_lwflux_min               =   2.6999313161451E+01
(PID.TID 0000.0001) %MON exf_lwflux_mean              =   7.5148003033366E+01
(PID.TID 0000.0001) %MON exf_lwflux_sd                =   4.2803183327709E+01
(PID.TID 0000.0001) %MON exf_lwflux_del2              =   3.2353096152369E+00
(PID.TID 0000.0001) %MON exf_precip_max               =   1.0499042589295E-07
(PID.TID 0000.0001) %MON exf_precip_min               =   2.7332713399833E-10
(PID.TID 0000.0001) %MON exf_precip_mean              =   3.6390058855016E-08
(PID.TID 0000.0001) %MON exf_precip_sd                =   2.0579049691733E-08
(PID.TID 0000.0001) %MON exf_precip_del2              =   2.5562103721225E-09
(PID.TID 0000.0001) %MON exf_snowprecip_max           =   0.0000000000000E+00
(PID.TID 0000.0001) %MON exf_snowprecip_min           =   0.0000000000000E+00
(PID.TID 0000.0001) %MON exf_snowprecip_mean          =   0.0000000000000E+00
(PID.TID 0000.0001) %MON exf_snowprecip_sd            =   0.0000000000000E+00
(PID.TID 0000.0001) %MON exf_snowprecip_del2          =   0.0000000000000E+00
(PID.TID 0000.0001) %MON exf_swflux_max               =  -8.1206321227746E-02
(PID.TID 0000.0001) %MON exf_swflux_min               =  -6.4010854714816E+01
(PID.TID 0000.0001) %MON exf_swflux_mean              =  -2.6474287454698E+01
(PID.TID 0000.0001) %MON exf_swflux_sd                =   1.9633572905820E+01
(PID.TID 0000.0001) %MON exf_swflux_del2              =   4.7922651344477E-01
(PID.TID 0000.0001) %MON exf_evap_max                 =   4.5333055282436E-08
(PID.TID 0000.0001) %MON exf_evap_min                 =  -4.3262573270113E-09
(PID.TID 0000.0001) %MON exf_evap_mean                =   1.0409139541886E-08
(PID.TID 0000.0001) %MON exf_evap_sd                  =   1.1101640136005E-08
(PID.TID 0000.0001) %MON exf_evap_del2                =   1.3339356630849E-09
(PID.TID 0000.0001) %MON exf_swdown_max               =   7.1123171905351E+01
(PID.TID 0000.0001) %MON exf_swdown_min               =   9.0229245808607E-02
(PID.TID 0000.0001) %MON exf_swdown_mean              =   2.9415874949665E+01
(PID.TID 0000.0001) %MON exf_swdown_sd                =   2.1815081006466E+01
(PID.TID 0000.0001) %MON exf_swdown_del2              =   5.3247390382752E-01
(PID.TID 0000.0001) %MON exf_lwdown_max               =   3.0566206584993E+02
(PID.TID 0000.0001) %MON exf_lwdown_min               =   1.1596747835086E+02
(PID.TID 0000.0001) %MON exf_lwdown_mean              =   2.2591790230100E+02
(PID.TID 0000.0001) %MON exf_lwdown_sd                =   4.6285369157136E+01
(PID.TID 0000.0001) %MON exf_lwdown_del2              =   3.2438445768374E+00
(PID.TID 0000.0001) %MON exf_apressure_max            =   0.0000000000000E+00
(PID.TID 0000.0001) %MON exf_apressure_min            =   0.0000000000000E+00
(PID.TID 0000.0001) %MON exf_apressure_mean           =   0.0000000000000E+00
(PID.TID 0000.0001) %MON exf_apressure_sd             =   0.0000000000000E+00
(PID.TID 0000.0001) %MON exf_apressure_del2           =   0.0000000000000E+00
(PID.TID 0000.0001) %MON exf_runoff_max               =   0.0000000000000E+00
(PID.TID 0000.0001) %MON exf_runoff_min               =   0.0000000000000E+00
(PID.TID 0000.0001) %MON exf_runoff_mean              =   0.0000000000000E+00
(PID.TID 0000.0001) %MON exf_runoff_sd                =   0.0000000000000E+00
(PID.TID 0000.0001) %MON exf_runoff_del2              =   0.0000000000000E+00
(PID.TID 0000.0001) %MON exf_climsst_max              =   0.0000000000000E+00
(PID.TID 0000.0001) %MON exf_climsst_min              =   0.0000000000000E+00
(PID.TID 0000.0001) %MON exf_climsst_mean             =   0.0000000000000E+00
(PID.TID 0000.0001) %MON exf_climsst_sd               =   0.0000000000000E+00
(PID.TID 0000.0001) %MON exf_climsst_del2             =   0.0000000000000E+00
(PID.TID 0000.0001) %MON exf_climsss_max              =   3.5040700380919E+01
(PID.TID 0000.0001) %MON exf_climsss_min              =   3.0667831827383E+01
(PID.TID 0000.0001) %MON exf_climsss_mean             =   3.3460362267948E+01
(PID.TID 0000.0001) %MON exf_climsss_sd               =   1.0318117788237E+00
(PID.TID 0000.0001) %MON exf_climsss_del2             =   1.0015950288060E-01
(PID.TID 0000.0001) // =======================================================
(PID.TID 0000.0001) // End MONITOR EXF statistics
(PID.TID 0000.0001) // =======================================================
 ph-ice B  2  0.  0.  0.
 ph-ice C  2  1.54286126E+11
 cg2d: Sum(rhs),rhsMax =  -4.69101996830590E-10  1.21345933320647E+00
(PID.TID 0000.0001) // =======================================================
(PID.TID 0000.0001) // Begin MONITOR SEAICE statistics
(PID.TID 0000.0001) // =======================================================
(PID.TID 0000.0001) %MON seaice_tsnumber              =                     3
(PID.TID 0000.0001) %MON seaice_time_sec              =   1.0800000000000E+04
(PID.TID 0000.0001) %MON seaice_uice_max              =   1.7677554873140E-01
(PID.TID 0000.0001) %MON seaice_uice_min              =  -9.9473388719801E-02
(PID.TID 0000.0001) %MON seaice_uice_mean             =   7.5385003114077E-02
(PID.TID 0000.0001) %MON seaice_uice_sd               =   7.1157132952367E-02
(PID.TID 0000.0001) %MON seaice_uice_del2             =   8.3170548828512E-03
(PID.TID 0000.0001) %MON seaice_vice_max              =   8.9019951561960E-02
(PID.TID 0000.0001) %MON seaice_vice_min              =  -1.7696029803913E-01
(PID.TID 0000.0001) %MON seaice_vice_mean             =  -2.9256776513555E-02
(PID.TID 0000.0001) %MON seaice_vice_sd               =   5.2264404122975E-02
(PID.TID 0000.0001) %MON seaice_vice_del2             =   6.1178195112553E-03
(PID.TID 0000.0001) %MON seaice_area_max              =   1.0000000000000E+00
(PID.TID 0000.0001) %MON seaice_area_min              =   0.0000000000000E+00
(PID.TID 0000.0001) %MON seaice_area_mean             =   6.2473169454875E-01
(PID.TID 0000.0001) %MON seaice_area_sd               =   4.5913414187028E-01
(PID.TID 0000.0001) %MON seaice_area_del2             =   5.3480677339556E-02
(PID.TID 0000.0001) %MON seaice_heff_max              =   5.5368221576291E-01
(PID.TID 0000.0001) %MON seaice_heff_min              =   0.0000000000000E+00
(PID.TID 0000.0001) %MON seaice_heff_mean             =   1.4210539865617E-01
(PID.TID 0000.0001) %MON seaice_heff_sd               =   1.7434508665414E-01
(PID.TID 0000.0001) %MON seaice_heff_del2             =   1.3231250059876E-02
(PID.TID 0000.0001) %MON seaice_hsnow_max             =   2.0235454638389E-01
(PID.TID 0000.0001) %MON seaice_hsnow_min             =   0.0000000000000E+00
(PID.TID 0000.0001) %MON seaice_hsnow_mean            =   1.1801725658723E-01
(PID.TID 0000.0001) %MON seaice_hsnow_sd              =   9.6786605530350E-02
(PID.TID 0000.0001) %MON seaice_hsnow_del2            =   6.3531464967010E-03
(PID.TID 0000.0001) // =======================================================
(PID.TID 0000.0001) // End MONITOR SEAICE statistics
(PID.TID 0000.0001) // =======================================================
(PID.TID 0000.0001) // =======================================================
(PID.TID 0000.0001) // Begin MONITOR EXF statistics
(PID.TID 0000.0001) // =======================================================
(PID.TID 0000.0001) %MON exf_tsnumber                 =                     3
(PID.TID 0000.0001) %MON exf_time_sec                 =   1.0800000000000E+04
(PID.TID 0000.0001) %MON exf_ustress_max              =   5.2220278364572E-02
(PID.TID 0000.0001) %MON exf_ustress_min              =  -9.3786644941843E-02
(PID.TID 0000.0001) %MON exf_ustress_mean             =   1.7925096545460E-02
(PID.TID 0000.0001) %MON exf_ustress_sd               =   2.3700143481792E-02
(PID.TID 0000.0001) %MON exf_ustress_del2             =   2.8158746957622E-03
(PID.TID 0000.0001) %MON exf_vstress_max              =   5.3827196762903E-02
(PID.TID 0000.0001) %MON exf_vstress_min              =  -5.8480358160305E-02
(PID.TID 0000.0001) %MON exf_vstress_mean             =  -5.4532180819514E-03
(PID.TID 0000.0001) %MON exf_vstress_sd               =   1.4440792602496E-02
(PID.TID 0000.0001) %MON exf_vstress_del2             =   1.6929393308121E-03
(PID.TID 0000.0001) %MON exf_hflux_max                =   6.2482499785037E+02
(PID.TID 0000.0001) %MON exf_hflux_min                =  -5.1652096229450E+01
(PID.TID 0000.0001) %MON exf_hflux_mean               =   1.4608871644671E+02
(PID.TID 0000.0001) %MON exf_hflux_sd                 =   1.8003233105815E+02
(PID.TID 0000.0001) %MON exf_hflux_del2               =   1.6307607583600E+01
(PID.TID 0000.0001) %MON exf_sflux_max                =   3.9014761130189E-08
(PID.TID 0000.0001) %MON exf_sflux_min                =  -8.8949891199064E-08
(PID.TID 0000.0001) %MON exf_sflux_mean               =  -2.5974536983712E-08
(PID.TID 0000.0001) %MON exf_sflux_sd                 =   3.0366720928320E-08
(PID.TID 0000.0001) %MON exf_sflux_del2               =   3.1622834863506E-09
(PID.TID 0000.0001) %MON exf_uwind_max                =   6.4658968995829E+00
(PID.TID 0000.0001) %MON exf_uwind_min                =  -6.8373184184559E+00
(PID.TID 0000.0001) %MON exf_uwind_mean               =   2.7700953906364E+00
(PID.TID 0000.0001) %MON exf_uwind_sd                 =   2.9908682681638E+00
(PID.TID 0000.0001) %MON exf_uwind_del2               =   3.1573366006031E-01
(PID.TID 0000.0001) %MON exf_vwind_max                =   3.9241587548959E+00
(PID.TID 0000.0001) %MON exf_vwind_min                =  -6.0169856587394E+00
(PID.TID 0000.0001) %MON exf_vwind_mean               =  -7.5904536197929E-01
(PID.TID 0000.0001) %MON exf_vwind_sd                 =   1.7296682234552E+00
(PID.TID 0000.0001) %MON exf_vwind_del2               =   1.9331202479855E-01
(PID.TID 0000.0001) %MON exf_wspeed_max               =   7.8833967989048E+00
(PID.TID 0000.0001) %MON exf_wspeed_min               =   4.5962367887737E-01
(PID.TID 0000.0001) %MON exf_wspeed_mean              =   4.1984294286706E+00
(PID.TID 0000.0001) %MON exf_wspeed_sd                =   1.5999418201857E+00
(PID.TID 0000.0001) %MON exf_wspeed_del2              =   3.7709664625274E-01
(PID.TID 0000.0001) %MON exf_atemp_max                =   2.8187767604140E+02
(PID.TID 0000.0001) %MON exf_atemp_min                =   2.3644837420104E+02
(PID.TID 0000.0001) %MON exf_atemp_mean               =   2.6393212465043E+02
(PID.TID 0000.0001) %MON exf_atemp_sd                 =   1.1987800154004E+01
(PID.TID 0000.0001) %MON exf_atemp_del2               =   6.4948108800042E-01
(PID.TID 0000.0001) %MON exf_aqh_max                  =   6.3210833210834E-03
(PID.TID 0000.0001) %MON exf_aqh_min                  =   1.6341043767886E-04
(PID.TID 0000.0001) %MON exf_aqh_mean                 =   2.4786818409748E-03
(PID.TID 0000.0001) %MON exf_aqh_sd                   =   1.4261982746893E-03
(PID.TID 0000.0001) %MON exf_aqh_del2                 =   6.8100777916201E-05
(PID.TID 0000.0001) %MON exf_lwflux_max               =   1.8153866759519E+02
(PID.TID 0000.0001) %MON exf_lwflux_min               =   2.7117659269167E+01
(PID.TID 0000.0001) %MON exf_lwflux_mean              =   7.5167336262302E+01
(PID.TID 0000.0001) %MON exf_lwflux_sd                =   4.2791334923119E+01
(PID.TID 0000.0001) %MON exf_lwflux_del2              =   3.2353470311880E+00
(PID.TID 0000.0001) %MON exf_precip_max               =   1.0499180733557E-07
(PID.TID 0000.0001) %MON exf_precip_min               =   2.7319320752566E-10
(PID.TID 0000.0001) %MON exf_precip_mean              =   3.6390048010982E-08
(PID.TID 0000.0001) %MON exf_precip_sd                =   2.0579501435483E-08
(PID.TID 0000.0001) %MON exf_precip_del2              =   2.5567380653122E-09
(PID.TID 0000.0001) %MON exf_snowprecip_max           =   0.0000000000000E+00
(PID.TID 0000.0001) %MON exf_snowprecip_min           =   0.0000000000000E+00
(PID.TID 0000.0001) %MON exf_snowprecip_mean          =   0.0000000000000E+00
(PID.TID 0000.0001) %MON exf_snowprecip_sd            =   0.0000000000000E+00
(PID.TID 0000.0001) %MON exf_snowprecip_del2          =   0.0000000000000E+00
(PID.TID 0000.0001) %MON exf_swflux_max               =  -8.1206604105527E-02
(PID.TID 0000.0001) %MON exf_swflux_min               =  -6.4029725065388E+01
(PID.TID 0000.0001) %MON exf_swflux_mean              =  -2.6484819670573E+01
(PID.TID 0000.0001) %MON exf_swflux_sd                =   1.9637409707136E+01
(PID.TID 0000.0001) %MON exf_swflux_del2              =   4.7933338739073E-01
(PID.TID 0000.0001) %MON exf_evap_max                 =   4.5336980821491E-08
(PID.TID 0000.0001) %MON exf_evap_min                 =  -4.2852111092889E-09
(PID.TID 0000.0001) %MON exf_evap_mean                =   1.0415511027269E-08
(PID.TID 0000.0001) %MON exf_evap_sd                  =   1.1091288770624E-08
(PID.TID 0000.0001) %MON exf_evap_del2                =   1.3330271329573E-09
(PID.TID 0000.0001) %MON exf_swdown_max               =   7.1144138961542E+01
(PID.TID 0000.0001) %MON exf_swdown_min               =   9.0229560117253E-02
(PID.TID 0000.0001) %MON exf_swdown_mean              =   2.9427577411748E+01
(PID.TID 0000.0001) %MON exf_swdown_sd                =   2.1819344119040E+01
(PID.TID 0000.0001) %MON exf_swdown_del2              =   5.3259265265636E-01
(PID.TID 0000.0001) %MON exf_lwdown_max               =   3.0565323976611E+02
(PID.TID 0000.0001) %MON exf_lwdown_min               =   1.1595237147222E+02
(PID.TID 0000.0001) %MON exf_lwdown_mean              =   2.2590219497194E+02
(PID.TID 0000.0001) %MON exf_lwdown_sd                =   4.6289340871590E+01
(PID.TID 0000.0001) %MON exf_lwdown_del2              =   3.2438562169101E+00
(PID.TID 0000.0001) %MON exf_apressure_max            =   0.0000000000000E+00
(PID.TID 0000.0001) %MON exf_apressure_min            =   0.0000000000000E+00
(PID.TID 0000.0001) %MON exf_apressure_mean           =   0.0000000000000E+00
(PID.TID 0000.0001) %MON exf_apressure_sd             =   0.0000000000000E+00
(PID.TID 0000.0001) %MON exf_apressure_del2           =   0.0000000000000E+00
(PID.TID 0000.0001) %MON exf_runoff_max               =   0.0000000000000E+00
(PID.TID 0000.0001) %MON exf_runoff_min               =   0.0000000000000E+00
(PID.TID 0000.0001) %MON exf_runoff_mean              =   0.0000000000000E+00
(PID.TID 0000.0001) %MON exf_runoff_sd                =   0.0000000000000E+00
(PID.TID 0000.0001) %MON exf_runoff_del2              =   0.0000000000000E+00
(PID.TID 0000.0001) %MON exf_climsst_max              =   0.0000000000000E+00
(PID.TID 0000.0001) %MON exf_climsst_min              =   0.0000000000000E+00
(PID.TID 0000.0001) %MON exf_climsst_mean             =   0.0000000000000E+00
(PID.TID 0000.0001) %MON exf_climsst_sd               =   0.0000000000000E+00
(PID.TID 0000.0001) %MON exf_climsst_del2             =   0.0000000000000E+00
(PID.TID 0000.0001) %MON exf_climsss_max              =   3.5040885127959E+01
(PID.TID 0000.0001) %MON exf_climsss_min              =   3.0668591155380E+01
(PID.TID 0000.0001) %MON exf_climsss_mean             =   3.3460883601427E+01
(PID.TID 0000.0001) %MON exf_climsss_sd               =   1.0317405668875E+00
(PID.TID 0000.0001) %MON exf_climsss_del2             =   1.0014227359021E-01
(PID.TID 0000.0001) // =======================================================
(PID.TID 0000.0001) // End MONITOR EXF statistics
(PID.TID 0000.0001) // =======================================================
 ph-ice B  3  0.  0.  0.
 ph-ice C  3  2.04933269E+11
 cg2d: Sum(rhs),rhsMax =   3.25075402013431E-08  1.21053584966123E+00
(PID.TID 0000.0001) // =======================================================
(PID.TID 0000.0001) // Begin MONITOR SEAICE statistics
(PID.TID 0000.0001) // =======================================================
(PID.TID 0000.0001) %MON seaice_tsnumber              =                     4
(PID.TID 0000.0001) %MON seaice_time_sec              =   1.4400000000000E+04
(PID.TID 0000.0001) %MON seaice_uice_max              =   2.0410589049306E-01
(PID.TID 0000.0001) %MON seaice_uice_min              =  -1.0820664027344E-01
(PID.TID 0000.0001) %MON seaice_uice_mean             =   8.1218835129926E-02
(PID.TID 0000.0001) %MON seaice_uice_sd               =   7.8521023677327E-02
(PID.TID 0000.0001) %MON seaice_uice_del2             =   9.4129545936363E-03
(PID.TID 0000.0001) %MON seaice_vice_max              =   9.9288343446527E-02
(PID.TID 0000.0001) %MON seaice_vice_min              =  -1.9612309364026E-01
(PID.TID 0000.0001) %MON seaice_vice_mean             =  -3.7794416227508E-02
(PID.TID 0000.0001) %MON seaice_vice_sd               =   6.1057438074000E-02
(PID.TID 0000.0001) %MON seaice_vice_del2             =   6.9481562481143E-03
(PID.TID 0000.0001) %MON seaice_area_max              =   1.0000000000000E+00
(PID.TID 0000.0001) %MON seaice_area_min              =   0.0000000000000E+00
(PID.TID 0000.0001) %MON seaice_area_mean             =   6.2448968460866E-01
(PID.TID 0000.0001) %MON seaice_area_sd               =   4.5884272057984E-01
(PID.TID 0000.0001) %MON seaice_area_del2             =   5.3567622602429E-02
(PID.TID 0000.0001) %MON seaice_heff_max              =   5.5146835059086E-01
(PID.TID 0000.0001) %MON seaice_heff_min              =   0.0000000000000E+00
(PID.TID 0000.0001) %MON seaice_heff_mean             =   1.4217024615349E-01
(PID.TID 0000.0001) %MON seaice_heff_sd               =   1.7418057992265E-01
(PID.TID 0000.0001) %MON seaice_heff_del2             =   1.3239972009232E-02
(PID.TID 0000.0001) %MON seaice_hsnow_max             =   2.0313961711978E-01
(PID.TID 0000.0001) %MON seaice_hsnow_min             =   0.0000000000000E+00
(PID.TID 0000.0001) %MON seaice_hsnow_mean            =   1.1810788894693E-01
(PID.TID 0000.0001) %MON seaice_hsnow_sd              =   9.6917239052187E-02
(PID.TID 0000.0001) %MON seaice_hsnow_del2            =   6.4249667981224E-03
(PID.TID 0000.0001) // =======================================================
(PID.TID 0000.0001) // End MONITOR SEAICE statistics
(PID.TID 0000.0001) // =======================================================
(PID.TID 0000.0001) // =======================================================
(PID.TID 0000.0001) // Begin MONITOR EXF statistics
(PID.TID 0000.0001) // =======================================================
(PID.TID 0000.0001) %MON exf_tsnumber                 =                     4
(PID.TID 0000.0001) %MON exf_time_sec                 =   1.4400000000000E+04
(PID.TID 0000.0001) %MON exf_ustress_max              =   5.2222749041048E-02
(PID.TID 0000.0001) %MON exf_ustress_min              =  -9.3790194486454E-02
(PID.TID 0000.0001) %MON exf_ustress_mean             =   1.7935664673995E-02
(PID.TID 0000.0001) %MON exf_ustress_sd               =   2.3707712188124E-02
(PID.TID 0000.0001) %MON exf_ustress_del2             =   2.8164275057587E-03
(PID.TID 0000.0001) %MON exf_vstress_max              =   5.3829437114216E-02
(PID.TID 0000.0001) %MON exf_vstress_min              =  -5.8464476572387E-02
(PID.TID 0000.0001) %MON exf_vstress_mean             =  -5.4495375081585E-03
(PID.TID 0000.0001) %MON exf_vstress_sd               =   1.4442680623897E-02
(PID.TID 0000.0001) %MON exf_vstress_del2             =   1.6931341848499E-03
(PID.TID 0000.0001) %MON exf_hflux_max                =   6.2496267398705E+02
(PID.TID 0000.0001) %MON exf_hflux_min                =  -5.1565362852154E+01
(PID.TID 0000.0001) %MON exf_hflux_mean               =   1.4615664212086E+02
(PID.TID 0000.0001) %MON exf_hflux_sd                 =   1.8002234485047E+02
(PID.TID 0000.0001) %MON exf_hflux_del2               =   1.6301999422296E+01
(PID.TID 0000.0001) %MON exf_sflux_max                =   3.9025647077273E-08
(PID.TID 0000.0001) %MON exf_sflux_min                =  -8.8952139751948E-08
(PID.TID 0000.0001) %MON exf_sflux_mean               =  -2.5966967998635E-08
(PID.TID 0000.0001) %MON exf_sflux_sd                 =   3.0361914915461E-08
(PID.TID 0000.0001) %MON exf_sflux_del2               =   3.1623399395644E-09
(PID.TID 0000.0001) %MON exf_uwind_max                =   6.4664043520318E+00
(PID.TID 0000.0001) %MON exf_uwind_min                =  -6.8373452001582E+00
(PID.TID 0000.0001) %MON exf_uwind_mean               =   2.7702029429808E+00
(PID.TID 0000.0001) %MON exf_uwind_sd                 =   2.9911443548250E+00
(PID.TID 0000.0001) %MON exf_uwind_del2               =   3.1574156428286E-01
(PID.TID 0000.0001) %MON exf_vwind_max                =   3.9241889356915E+00
(PID.TID 0000.0001) %MON exf_vwind_min                =  -6.0160797489145E+00
(PID.TID 0000.0001) %MON exf_vwind_mean               =  -7.5842758888917E-01
(PID.TID 0000.0001) %MON exf_vwind_sd                 =   1.7297766046368E+00
(PID.TID 0000.0001) %MON exf_vwind_del2               =   1.9330515345662E-01
(PID.TID 0000.0001) %MON exf_wspeed_max               =   7.8834350500991E+00
(PID.TID 0000.0001) %MON exf_wspeed_min               =   4.5938084481311E-01
(PID.TID 0000.0001) %MON exf_wspeed_mean              =   4.1985322596174E+00
(PID.TID 0000.0001) %MON exf_wspeed_sd                =   1.6001985099325E+00
(PID.TID 0000.0001) %MON exf_wspeed_del2              =   3.7714995543655E-01
(PID.TID 0000.0001) %MON exf_atemp_max                =   2.8187596388853E+02
(PID.TID 0000.0001) %MON exf_atemp_min                =   2.3644390923339E+02
(PID.TID 0000.0001) %MON exf_atemp_mean               =   2.6392748056902E+02
(PID.TID 0000.0001) %MON exf_atemp_sd                 =   1.1989262151462E+01
(PID.TID 0000.0001) %MON exf_atemp_del2               =   6.4950041955286E-01
(PID.TID 0000.0001) %MON exf_aqh_max                  =   6.3203867802223E-03
(PID.TID 0000.0001) %MON exf_aqh_min                  =   1.6331633418045E-04
(PID.TID 0000.0001) %MON exf_aqh_mean                 =   2.4781214845702E-03
(PID.TID 0000.0001) %MON exf_aqh_sd                   =   1.4260952789855E-03
(PID.TID 0000.0001) %MON exf_aqh_del2                 =   6.8087110355054E-05
(PID.TID 0000.0001) %MON exf_lwflux_max               =   1.8154800702574E+02
(PID.TID 0000.0001) %MON exf_lwflux_min               =   2.7104463755790E+01
(PID.TID 0000.0001) %MON exf_lwflux_mean              =   7.5190190762630E+01
(PID.TID 0000.0001) %MON exf_lwflux_sd                =   4.2783229025103E+01
(PID.TID 0000.0001) %MON exf_lwflux_del2              =   3.2333535120071E+00
(PID.TID 0000.0001) %MON exf_precip_max               =   1.0499318877820E-07
(PID.TID 0000.0001) %MON exf_precip_min               =   2.7305928105298E-10
(PID.TID 0000.0001) %MON exf_precip_mean              =   3.6390037166947E-08
(PID.TID 0000.0001) %MON exf_precip_sd                =   2.0579953834835E-08
(PID.TID 0000.0001) %MON exf_precip_del2              =   2.5572657585019E-09
(PID.TID 0000.0001) %MON exf_snowprecip_max           =   0.0000000000000E+00
(PID.TID 0000.0001) %MON exf_snowprecip_min           =   0.0000000000000E+00
(PID.TID 0000.0001) %MON exf_snowprecip_mean          =   0.0000000000000E+00
(PID.TID 0000.0001) %MON exf_snowprecip_sd            =   0.0000000000000E+00
(PID.TID 0000.0001) %MON exf_snowprecip_del2          =   0.0000000000000E+00
(PID.TID 0000.0001) %MON exf_swflux_max               =  -8.1206886983309E-02
(PID.TID 0000.0001) %MON exf_swflux_min               =  -6.4048595415960E+01
(PID.TID 0000.0001) %MON exf_swflux_mean              =  -2.6495351886448E+01
(PID.TID 0000.0001) %MON exf_swflux_sd                =   1.9641247100083E+01
(PID.TID 0000.0001) %MON exf_swflux_del2              =   4.7944026133668E-01
(PID.TID 0000.0001) %MON exf_evap_max                 =   4.5347204057645E-08
(PID.TID 0000.0001) %MON exf_evap_min                 =  -4.2663929305544E-09
(PID.TID 0000.0001) %MON exf_evap_mean                =   1.0423069168313E-08
(PID.TID 0000.0001) %MON exf_evap_sd                  =   1.1085438004977E-08
(PID.TID 0000.0001) %MON exf_evap_del2                =   1.3323746680393E-09
(PID.TID 0000.0001) %MON exf_swdown_max               =   7.1165106017733E+01
(PID.TID 0000.0001) %MON exf_swdown_min               =   9.0229874425898E-02
(PID.TID 0000.0001) %MON exf_swdown_mean              =   2.9439279873831E+01
(PID.TID 0000.0001) %MON exf_swdown_sd                =   2.1823607888981E+01
(PID.TID 0000.0001) %MON exf_swdown_del2              =   5.3271140148521E-01
(PID.TID 0000.0001) %MON exf_lwdown_max               =   3.0564441368228E+02
(PID.TID 0000.0001) %MON exf_lwdown_min               =   1.1593726459357E+02
(PID.TID 0000.0001) %MON exf_lwdown_mean              =   2.2588648764287E+02
(PID.TID 0000.0001) %MON exf_lwdown_sd                =   4.6293313753333E+01
(PID.TID 0000.0001) %MON exf_lwdown_del2              =   3.2438678569828E+00
(PID.TID 0000.0001) %MON exf_apressure_max            =   0.0000000000000E+00
(PID.TID 0000.0001) %MON exf_apressure_min            =   0.0000000000000E+00
(PID.TID 0000.0001) %MON exf_apressure_mean           =   0.0000000000000E+00
(PID.TID 0000.0001) %MON exf_apressure_sd             =   0.0000000000000E+00
(PID.TID 0000.0001) %MON exf_apressure_del2           =   0.0000000000000E+00
(PID.TID 0000.0001) %MON exf_runoff_max               =   0.0000000000000E+00
(PID.TID 0000.0001) %MON exf_runoff_min               =   0.0000000000000E+00
(PID.TID 0000.0001) %MON exf_runoff_mean              =   0.0000000000000E+00
(PID.TID 0000.0001) %MON exf_runoff_sd                =   0.0000000000000E+00
(PID.TID 0000.0001) %MON exf_runoff_del2              =   0.0000000000000E+00
(PID.TID 0000.0001) %MON exf_climsst_max              =   0.0000000000000E+00
(PID.TID 0000.0001) %MON exf_climsst_min              =   0.0000000000000E+00
(PID.TID 0000.0001) %MON exf_climsst_mean             =   0.0000000000000E+00
(PID.TID 0000.0001) %MON exf_climsst_sd               =   0.0000000000000E+00
(PID.TID 0000.0001) %MON exf_climsst_del2             =   0.0000000000000E+00
(PID.TID 0000.0001) %MON exf_climsss_max              =   3.5041069874998E+01
(PID.TID 0000.0001) %MON exf_climsss_min              =   3.0669350483378E+01
(PID.TID 0000.0001) %MON exf_climsss_mean             =   3.3461404934907E+01
(PID.TID 0000.0001) %MON exf_climsss_sd               =   1.0316695849659E+00
(PID.TID 0000.0001) %MON exf_climsss_del2             =   1.0012504429982E-01
(PID.TID 0000.0001) // =======================================================
(PID.TID 0000.0001) // End MONITOR EXF statistics
(PID.TID 0000.0001) // =======================================================
 ph-ice B  4  0.  0.  0.
 ph-ice C  4  2.5560412E+11
 cg2d: Sum(rhs),rhsMax =   3.22655523861404E-08  1.20538351334584E+00
(PID.TID 0000.0001) // =======================================================
(PID.TID 0000.0001) // Begin MONITOR SEAICE statistics
(PID.TID 0000.0001) // =======================================================
(PID.TID 0000.0001) %MON seaice_tsnumber              =                     5
(PID.TID 0000.0001) %MON seaice_time_sec              =   1.8000000000000E+04
(PID.TID 0000.0001) %MON seaice_uice_max              =   2.1945394107015E-01
(PID.TID 0000.0001) %MON seaice_uice_min              =  -1.0939009902186E-01
(PID.TID 0000.0001) %MON seaice_uice_mean             =   8.3080829541591E-02
(PID.TID 0000.0001) %MON seaice_uice_sd               =   8.3462737194914E-02
(PID.TID 0000.0001) %MON seaice_uice_del2             =   1.0024636369434E-02
(PID.TID 0000.0001) %MON seaice_vice_max              =   1.0086668927595E-01
(PID.TID 0000.0001) %MON seaice_vice_min              =  -1.9808188880579E-01
(PID.TID 0000.0001) %MON seaice_vice_mean             =  -4.6968558438038E-02
(PID.TID 0000.0001) %MON seaice_vice_sd               =   6.7920800183246E-02
(PID.TID 0000.0001) %MON seaice_vice_del2             =   7.5956995484709E-03
(PID.TID 0000.0001) %MON seaice_area_max              =   1.0000000000000E+00
(PID.TID 0000.0001) %MON seaice_area_min              =   0.0000000000000E+00
(PID.TID 0000.0001) %MON seaice_area_mean             =   6.2430154395711E-01
(PID.TID 0000.0001) %MON seaice_area_sd               =   4.5848053055019E-01
(PID.TID 0000.0001) %MON seaice_area_del2             =   5.3615026623512E-02
(PID.TID 0000.0001) %MON seaice_heff_max              =   5.4903937822394E-01
(PID.TID 0000.0001) %MON seaice_heff_min              =   0.0000000000000E+00
(PID.TID 0000.0001) %MON seaice_heff_mean             =   1.4223679760745E-01
(PID.TID 0000.0001) %MON seaice_heff_sd               =   1.7414937854690E-01
(PID.TID 0000.0001) %MON seaice_heff_del2             =   1.3251520268854E-02
(PID.TID 0000.0001) %MON seaice_hsnow_max             =   2.0392476353420E-01
(PID.TID 0000.0001) %MON seaice_hsnow_min             =   0.0000000000000E+00
(PID.TID 0000.0001) %MON seaice_hsnow_mean            =   1.1825099134551E-01
(PID.TID 0000.0001) %MON seaice_hsnow_sd              =   9.7044356048465E-02
(PID.TID 0000.0001) %MON seaice_hsnow_del2            =   6.4762509701134E-03
(PID.TID 0000.0001) // =======================================================
(PID.TID 0000.0001) // End MONITOR SEAICE statistics
(PID.TID 0000.0001) // =======================================================
(PID.TID 0000.0001) // =======================================================
(PID.TID 0000.0001) // Begin MONITOR EXF statistics
(PID.TID 0000.0001) // =======================================================
(PID.TID 0000.0001) %MON exf_tsnumber                 =                     5
(PID.TID 0000.0001) %MON exf_time_sec                 =   1.8000000000000E+04
(PID.TID 0000.0001) %MON exf_ustress_max              =   5.2230884117590E-02
(PID.TID 0000.0001) %MON exf_ustress_min              =  -9.3792692313509E-02
(PID.TID 0000.0001) %MON exf_ustress_mean             =   1.7944942259624E-02
(PID.TID 0000.0001) %MON exf_ustress_sd               =   2.3713963574823E-02
(PID.TID 0000.0001) %MON exf_ustress_del2             =   2.8173059618990E-03
(PID.TID 0000.0001) %MON exf_vstress_max              =   5.3831073859948E-02
(PID.TID 0000.0001) %MON exf_vstress_min              =  -5.8456785540539E-02
(PID.TID 0000.0001) %MON exf_vstress_mean             =  -5.4464517544255E-03
(PID.TID 0000.0001) %MON exf_vstress_sd               =   1.4444945067400E-02
(PID.TID 0000.0001) %MON exf_vstress_del2             =   1.6932729446749E-03
(PID.TID 0000.0001) %MON exf_hflux_max                =   6.2503361232607E+02
(PID.TID 0000.0001) %MON exf_hflux_min                =  -5.1451597526671E+01
(PID.TID 0000.0001) %MON exf_hflux_mean               =   1.4623274213168E+02
(PID.TID 0000.0001) %MON exf_hflux_sd                 =   1.8002325852435E+02
(PID.TID 0000.0001) %MON exf_hflux_del2               =   1.6300998743720E+01
(PID.TID 0000.0001) %MON exf_sflux_max                =   3.9028023656348E-08
(PID.TID 0000.0001) %MON exf_sflux_min                =  -8.8915527500566E-08
(PID.TID 0000.0001) %MON exf_sflux_mean               =  -2.5958877374458E-08
(PID.TID 0000.0001) %MON exf_sflux_sd                 =   3.0357857229145E-08
(PID.TID 0000.0001) %MON exf_sflux_del2               =   3.1625221670188E-09
(PID.TID 0000.0001) %MON exf_uwind_max                =   6.4669118044806E+00
(PID.TID 0000.0001) %MON exf_uwind_min                =  -6.8373719818605E+00
(PID.TID 0000.0001) %MON exf_uwind_mean               =   2.7703104953252E+00
(PID.TID 0000.0001) %MON exf_uwind_sd                 =   2.9914204817202E+00
(PID.TID 0000.0001) %MON exf_uwind_del2               =   3.1574946850541E-01
(PID.TID 0000.0001) %MON exf_vwind_max                =   3.9242191164871E+00
(PID.TID 0000.0001) %MON exf_vwind_min                =  -6.0151738390896E+00
(PID.TID 0000.0001) %MON exf_vwind_mean               =  -7.5780981579906E-01
(PID.TID 0000.0001) %MON exf_vwind_sd                 =   1.7298850990135E+00
(PID.TID 0000.0001) %MON exf_vwind_del2               =   1.9329828211469E-01
(PID.TID 0000.0001) %MON exf_wspeed_max               =   7.8834733013142E+00
(PID.TID 0000.0001) %MON exf_wspeed_min               =   4.5913801314248E-01
(PID.TID 0000.0001) %MON exf_wspeed_mean              =   4.1986352194932E+00
(PID.TID 0000.0001) %MON exf_wspeed_sd                =   1.6004553118739E+00
(PID.TID 0000.0001) %MON exf_wspeed_del2              =   3.7720325813743E-01
(PID.TID 0000.0001) %MON exf_atemp_max                =   2.8187425173567E+02
(PID.TID 0000.0001) %MON exf_atemp_min                =   2.3643944426573E+02
(PID.TID 0000.0001) %MON exf_atemp_mean               =   2.6392283648761E+02
(PID.TID 0000.0001) %MON exf_atemp_sd                 =   1.1990724636197E+01
(PID.TID 0000.0001) %MON exf_atemp_del2               =   6.4951975110530E-01
(PID.TID 0000.0001) %MON exf_aqh_max                  =   6.3196902393613E-03
(PID.TID 0000.0001) %MON exf_aqh_min                  =   1.6322223068205E-04
(PID.TID 0000.0001) %MON exf_aqh_mean                 =   2.4775611281656E-03
(PID.TID 0000.0001) %MON exf_aqh_sd                   =   1.4259923191659E-03
(PID.TID 0000.0001) %MON exf_aqh_del2                 =   6.8073442793907E-05
(PID.TID 0000.0001) %MON exf_lwflux_max               =   1.8156112611884E+02
(PID.TID 0000.0001) %MON exf_lwflux_min               =   2.7075633019586E+01
(PID.TID 0000.0001) %MON exf_lwflux_mean              =   7.5214667134128E+01
(PID.TID 0000.0001) %MON exf_lwflux_sd                =   4.2777649028442E+01
(PID.TID 0000.0001) %MON exf_lwflux_del2              =   3.2323840772223E+00
(PID.TID 0000.0001) %MON exf_precip_max               =   1.0499457022082E-07
(PID.TID 0000.0001) %MON exf_precip_min               =   2.7292535458031E-10
(PID.TID 0000.0001) %MON exf_precip_mean              =   3.6390026322913E-08
(PID.TID 0000.0001) %MON exf_precip_sd                =   2.0580406889746E-08
(PID.TID 0000.0001) %MON exf_precip_del2              =   2.5577934516916E-09
(PID.TID 0000.0001) %MON exf_snowprecip_max           =   0.0000000000000E+00
(PID.TID 0000.0001) %MON exf_snowprecip_min           =   0.0000000000000E+00
(PID.TID 0000.0001) %MON exf_snowprecip_mean          =   0.0000000000000E+00
(PID.TID 0000.0001) %MON exf_snowprecip_sd            =   0.0000000000000E+00
(PID.TID 0000.0001) %MON exf_snowprecip_del2          =   0.0000000000000E+00
(PID.TID 0000.0001) %MON exf_swflux_max               =  -8.1207169861090E-02
(PID.TID 0000.0001) %MON exf_swflux_min               =  -6.4067465766532E+01
(PID.TID 0000.0001) %MON exf_swflux_mean              =  -2.6505884102323E+01
(PID.TID 0000.0001) %MON exf_swflux_sd                =   1.9645085084315E+01
(PID.TID 0000.0001) %MON exf_swflux_del2              =   4.7954713528264E-01
(PID.TID 0000.0001) %MON exf_evap_max                 =   4.5348917925789E-08
(PID.TID 0000.0001) %MON exf_evap_min                 =  -4.2424751717771E-09
(PID.TID 0000.0001) %MON exf_evap_mean                =   1.0431148948455E-08
(PID.TID 0000.0001) %MON exf_evap_sd                  =   1.1081501686883E-08
(PID.TID 0000.0001) %MON exf_evap_del2                =   1.3323449709034E-09
(PID.TID 0000.0001) %MON exf_swdown_max               =   7.1186073073924E+01
(PID.TID 0000.0001) %MON exf_swdown_min               =   9.0230188734544E-02
(PID.TID 0000.0001) %MON exf_swdown_mean              =   2.9450982335914E+01
(PID.TID 0000.0001) %MON exf_swdown_sd                =   2.1827872315905E+01
(PID.TID 0000.0001) %MON exf_swdown_del2              =   5.3283015031405E-01
(PID.TID 0000.0001) %MON exf_lwdown_max               =   3.0563558759846E+02
(PID.TID 0000.0001) %MON exf_lwdown_min               =   1.1592215771493E+02
(PID.TID 0000.0001) %MON exf_lwdown_mean              =   2.2587078031381E+02
(PID.TID 0000.0001) %MON exf_lwdown_sd                =   4.6297287802066E+01
(PID.TID 0000.0001) %MON exf_lwdown_del2              =   3.2438794970556E+00
(PID.TID 0000.0001) %MON exf_apressure_max            =   0.0000000000000E+00
(PID.TID 0000.0001) %MON exf_apressure_min            =   0.0000000000000E+00
(PID.TID 0000.0001) %MON exf_apressure_mean           =   0.0000000000000E+00
(PID.TID 0000.0001) %MON exf_apressure_sd             =   0.0000000000000E+00
(PID.TID 0000.0001) %MON exf_apressure_del2           =   0.0000000000000E+00
(PID.TID 0000.0001) %MON exf_runoff_max               =   0.0000000000000E+00
(PID.TID 0000.0001) %MON exf_runoff_min               =   0.0000000000000E+00
(PID.TID 0000.0001) %MON exf_runoff_mean              =   0.0000000000000E+00
(PID.TID 0000.0001) %MON exf_runoff_sd                =   0.0000000000000E+00
(PID.TID 0000.0001) %MON exf_runoff_del2              =   0.0000000000000E+00
(PID.TID 0000.0001) %MON exf_climsst_max              =   0.0000000000000E+00
(PID.TID 0000.0001) %MON exf_climsst_min              =   0.0000000000000E+00
(PID.TID 0000.0001) %MON exf_climsst_mean             =   0.0000000000000E+00
(PID.TID 0000.0001) %MON exf_climsst_sd               =   0.0000000000000E+00
(PID.TID 0000.0001) %MON exf_climsst_del2             =   0.0000000000000E+00
(PID.TID 0000.0001) %MON exf_climsss_max              =   3.5041254622037E+01
(PID.TID 0000.0001) %MON exf_climsss_min              =   3.0670109811376E+01
(PID.TID 0000.0001) %MON exf_climsss_mean             =   3.3461926268386E+01
(PID.TID 0000.0001) %MON exf_climsss_sd               =   1.0315988331065E+00
(PID.TID 0000.0001) %MON exf_climsss_del2             =   1.0010781500943E-01
(PID.TID 0000.0001) // =======================================================
(PID.TID 0000.0001) // End MONITOR EXF statistics
(PID.TID 0000.0001) // =======================================================
 ph-ice B  5  0.  0.  0.
 ph-ice C  5  3.06281318E+11
 cg2d: Sum(rhs),rhsMax =   3.20073472517834E-08  1.19996672305151E+00
(PID.TID 0000.0001) // =======================================================
(PID.TID 0000.0001) // Begin MONITOR SEAICE statistics
(PID.TID 0000.0001) // =======================================================
(PID.TID 0000.0001) %MON seaice_tsnumber              =                     6
(PID.TID 0000.0001) %MON seaice_time_sec              =   2.1600000000000E+04
(PID.TID 0000.0001) %MON seaice_uice_max              =   2.3992723535023E-01
(PID.TID 0000.0001) %MON seaice_uice_min              =  -1.0534849502405E-01
(PID.TID 0000.0001) %MON seaice_uice_mean             =   8.0978950519413E-02
(PID.TID 0000.0001) %MON seaice_uice_sd               =   8.5693522138838E-02
(PID.TID 0000.0001) %MON seaice_uice_del2             =   1.0079078992698E-02
(PID.TID 0000.0001) %MON seaice_vice_max              =   9.8351447679036E-02
(PID.TID 0000.0001) %MON seaice_vice_min              =  -2.1228924533969E-01
(PID.TID 0000.0001) %MON seaice_vice_mean             =  -5.4937408853458E-02
(PID.TID 0000.0001) %MON seaice_vice_sd               =   7.2061955970866E-02
(PID.TID 0000.0001) %MON seaice_vice_del2             =   8.0226428356070E-03
(PID.TID 0000.0001) %MON seaice_area_max              =   1.0000000000000E+00
(PID.TID 0000.0001) %MON seaice_area_min              =   0.0000000000000E+00
(PID.TID 0000.0001) %MON seaice_area_mean             =   6.2417692651250E-01
(PID.TID 0000.0001) %MON seaice_area_sd               =   4.5808403480885E-01
(PID.TID 0000.0001) %MON seaice_area_del2             =   5.3631222921163E-02
(PID.TID 0000.0001) %MON seaice_heff_max              =   5.4790358803121E-01
(PID.TID 0000.0001) %MON seaice_heff_min              =   0.0000000000000E+00
(PID.TID 0000.0001) %MON seaice_heff_mean             =   1.4225461374486E-01
(PID.TID 0000.0001) %MON seaice_heff_sd               =   1.7422543496088E-01
(PID.TID 0000.0001) %MON seaice_heff_del2             =   1.3241128280203E-02
(PID.TID 0000.0001) %MON seaice_hsnow_max             =   2.0470995401277E-01
(PID.TID 0000.0001) %MON seaice_hsnow_min             =   0.0000000000000E+00
(PID.TID 0000.0001) %MON seaice_hsnow_mean            =   1.1841143347412E-01
(PID.TID 0000.0001) %MON seaice_hsnow_sd              =   9.7165681939174E-02
(PID.TID 0000.0001) %MON seaice_hsnow_del2            =   6.5148328835772E-03
(PID.TID 0000.0001) // =======================================================
(PID.TID 0000.0001) // End MONITOR SEAICE statistics
(PID.TID 0000.0001) // =======================================================
(PID.TID 0000.0001) // =======================================================
(PID.TID 0000.0001) // Begin MONITOR EXF statistics
(PID.TID 0000.0001) // =======================================================
(PID.TID 0000.0001) %MON exf_tsnumber                 =                     6
(PID.TID 0000.0001) %MON exf_time_sec                 =   2.1600000000000E+04
(PID.TID 0000.0001) %MON exf_ustress_max              =   5.2237984457402E-02
(PID.TID 0000.0001) %MON exf_ustress_min              =  -9.3794680426842E-02
(PID.TID 0000.0001) %MON exf_ustress_mean             =   1.7953015639434E-02
(PID.TID 0000.0001) %MON exf_ustress_sd               =   2.3720087226093E-02
(PID.TID 0000.0001) %MON exf_ustress_del2             =   2.8182317095119E-03
(PID.TID 0000.0001) %MON exf_vstress_max              =   5.3832418070363E-02
(PID.TID 0000.0001) %MON exf_vstress_min              =  -5.8451170700519E-02
(PID.TID 0000.0001) %MON exf_vstress_mean             =  -5.4433705291970E-03
(PID.TID 0000.0001) %MON exf_vstress_sd               =   1.4447187590917E-02
(PID.TID 0000.0001) %MON exf_vstress_del2             =   1.6932776904022E-03
(PID.TID 0000.0001) %MON exf_hflux_max                =   6.2507220073315E+02
(PID.TID 0000.0001) %MON exf_hflux_min                =  -5.1351197181864E+01
(PID.TID 0000.0001) %MON exf_hflux_mean               =   1.4630905719395E+02
(PID.TID 0000.0001) %MON exf_hflux_sd                 =   1.8003242960243E+02
(PID.TID 0000.0001) %MON exf_hflux_del2               =   1.6303852346095E+01
(PID.TID 0000.0001) %MON exf_sflux_max                =   3.9026275524023E-08
(PID.TID 0000.0001) %MON exf_sflux_min                =  -8.8868954899207E-08
(PID.TID 0000.0001) %MON exf_sflux_mean               =  -2.5950928800873E-08
(PID.TID 0000.0001) %MON exf_sflux_sd                 =   3.0354685765941E-08
(PID.TID 0000.0001) %MON exf_sflux_del2               =   3.1631175095992E-09
(PID.TID 0000.0001) %MON exf_uwind_max                =   6.4674192569295E+00
(PID.TID 0000.0001) %MON exf_uwind_min                =  -6.8373987635628E+00
(PID.TID 0000.0001) %MON exf_uwind_mean               =   2.7704180476696E+00
(PID.TID 0000.0001) %MON exf_uwind_sd                 =   2.9916966488382E+00
(PID.TID 0000.0001) %MON exf_uwind_del2               =   3.1575737272796E-01
(PID.TID 0000.0001) %MON exf_vwind_max                =   3.9242492972827E+00
(PID.TID 0000.0001) %MON exf_vwind_min                =  -6.0142679292648E+00
(PID.TID 0000.0001) %MON exf_vwind_mean               =  -7.5719204270894E-01
(PID.TID 0000.0001) %MON exf_vwind_sd                 =   1.7299937065642E+00
(PID.TID 0000.0001) %MON exf_vwind_del2               =   1.9329141077275E-01
(PID.TID 0000.0001) %MON exf_wspeed_max               =   7.8835115525503E+00
(PID.TID 0000.0001) %MON exf_wspeed_min               =   4.5889518386928E-01
(PID.TID 0000.0001) %MON exf_wspeed_mean              =   4.1987383082859E+00
(PID.TID 0000.0001) %MON exf_wspeed_sd                =   1.6007122259633E+00
(PID.TID 0000.0001) %MON exf_wspeed_del2              =   3.7725655435875E-01
(PID.TID 0000.0001) %MON exf_atemp_max                =   2.8187253958280E+02
(PID.TID 0000.0001) %MON exf_atemp_min                =   2.3643497929808E+02
(PID.TID 0000.0001) %MON exf_atemp_mean               =   2.6391819240620E+02
(PID.TID 0000.0001) %MON exf_atemp_sd                 =   1.1992187608029E+01
(PID.TID 0000.0001) %MON exf_atemp_del2               =   6.4953908265774E-01
(PID.TID 0000.0001) %MON exf_aqh_max                  =   6.3189936985002E-03
(PID.TID 0000.0001) %MON exf_aqh_min                  =   1.6312812718364E-04
(PID.TID 0000.0001) %MON exf_aqh_mean                 =   2.4770007717611E-03
(PID.TID 0000.0001) %MON exf_aqh_sd                   =   1.4258893952382E-03
(PID.TID 0000.0001) %MON exf_aqh_del2                 =   6.8059775232760E-05
(PID.TID 0000.0001) %MON exf_lwflux_max               =   1.8157457967829E+02
(PID.TID 0000.0001) %MON exf_lwflux_min               =   2.7062314429486E+01
(PID.TID 0000.0001) %MON exf_lwflux_mean              =   7.5238151968242E+01
(PID.TID 0000.0001) %MON exf_lwflux_sd                =   4.2774674665074E+01
(PID.TID 0000.0001) %MON exf_lwflux_del2              =   3.2322284113615E+00
(PID.TID 0000.0001) %MON exf_precip_max               =   1.0499595166344E-07
(PID.TID 0000.0001) %MON exf_precip_min               =   2.7279142810763E-10
(PID.TID 0000.0001) %MON exf_precip_mean              =   3.6390015478879E-08
(PID.TID 0000.0001) %MON exf_precip_sd                =   2.0580860600171E-08
(PID.TID 0000.0001) %MON exf_precip_del2              =   2.5583211448813E-09
(PID.TID 0000.0001) %MON exf_snowprecip_max           =   0.0000000000000E+00
(PID.TID 0000.0001) %MON exf_snowprecip_min           =   0.0000000000000E+00
(PID.TID 0000.0001) %MON exf_snowprecip_mean          =   0.0000000000000E+00
(PID.TID 0000.0001) %MON exf_snowprecip_sd            =   0.0000000000000E+00
(PID.TID 0000.0001) %MON exf_snowprecip_del2          =   0.0000000000000E+00
(PID.TID 0000.0001) %MON exf_swflux_max               =  -8.1207452738871E-02
(PID.TID 0000.0001) %MON exf_swflux_min               =  -6.4086336117103E+01
(PID.TID 0000.0001) %MON exf_swflux_mean              =  -2.6516416318198E+01
(PID.TID 0000.0001) %MON exf_swflux_sd                =   1.9648923659484E+01
(PID.TID 0000.0001) %MON exf_swflux_del2              =   4.7965400922860E-01
(PID.TID 0000.0001) %MON exf_evap_max                 =   4.5346507082533E-08
(PID.TID 0000.0001) %MON exf_evap_min                 =  -4.2210682157687E-09
(PID.TID 0000.0001) %MON exf_evap_mean                =   1.0439086678005E-08
(PID.TID 0000.0001) %MON exf_evap_sd                  =   1.1078855806272E-08
(PID.TID 0000.0001) %MON exf_evap_del2                =   1.3326492523577E-09
(PID.TID 0000.0001) %MON exf_swdown_max               =   7.1207040130115E+01
(PID.TID 0000.0001) %MON exf_swdown_min               =   9.0230503043190E-02
(PID.TID 0000.0001) %MON exf_swdown_mean              =   2.9462684797997E+01
(PID.TID 0000.0001) %MON exf_swdown_sd                =   2.1832137399427E+01
(PID.TID 0000.0001) %MON exf_swdown_del2              =   5.3294889914289E-01
(PID.TID 0000.0001) %MON exf_lwdown_max               =   3.0562676151463E+02
(PID.TID 0000.0001) %MON exf_lwdown_min               =   1.1590705083628E+02
(PID.TID 0000.0001) %MON exf_lwdown_mean              =   2.2585507298474E+02
(PID.TID 0000.0001) %MON exf_lwdown_sd                =   4.6301263017486E+01
(PID.TID 0000.0001) %MON exf_lwdown_del2              =   3.2438911371283E+00
(PID.TID 0000.0001) %MON exf_apressure_max            =   0.0000000000000E+00
(PID.TID 0000.0001) %MON exf_apressure_min            =   0.0000000000000E+00
(PID.TID 0000.0001) %MON exf_apressure_mean           =   0.0000000000000E+00
(PID.TID 0000.0001) %MON exf_apressure_sd             =   0.0000000000000E+00
(PID.TID 0000.0001) %MON exf_apressure_del2           =   0.0000000000000E+00
(PID.TID 0000.0001) %MON exf_runoff_max               =   0.0000000000000E+00
(PID.TID 0000.0001) %MON exf_runoff_min               =   0.0000000000000E+00
(PID.TID 0000.0001) %MON exf_runoff_mean              =   0.0000000000000E+00
(PID.TID 0000.0001) %MON exf_runoff_sd                =   0.0000000000000E+00
(PID.TID 0000.0001) %MON exf_runoff_del2              =   0.0000000000000E+00
(PID.TID 0000.0001) %MON exf_climsst_max              =   0.0000000000000E+00
(PID.TID 0000.0001) %MON exf_climsst_min              =   0.0000000000000E+00
(PID.TID 0000.0001) %MON exf_climsst_mean             =   0.0000000000000E+00
(PID.TID 0000.0001) %MON exf_climsst_sd               =   0.0000000000000E+00
(PID.TID 0000.0001) %MON exf_climsst_del2             =   0.0000000000000E+00
(PID.TID 0000.0001) %MON exf_climsss_max              =   3.5041439369077E+01
(PID.TID 0000.0001) %MON exf_climsss_min              =   3.0670869139374E+01
(PID.TID 0000.0001) %MON exf_climsss_mean             =   3.3462447601866E+01
(PID.TID 0000.0001) %MON exf_climsss_sd               =   1.0315283113566E+00
(PID.TID 0000.0001) %MON exf_climsss_del2             =   1.0009058571904E-01
(PID.TID 0000.0001) // =======================================================
(PID.TID 0000.0001) // End MONITOR EXF statistics
(PID.TID 0000.0001) // =======================================================
 ph-ice B  6  0.  0.  0.
 ph-ice C  6  3.5694284E+11
 cg2d: Sum(rhs),rhsMax =   3.26976171000082E-08  1.19247381743056E+00
(PID.TID 0000.0001) // =======================================================
(PID.TID 0000.0001) // Begin MONITOR SEAICE statistics
(PID.TID 0000.0001) // =======================================================
(PID.TID 0000.0001) %MON seaice_tsnumber              =                     7
(PID.TID 0000.0001) %MON seaice_time_sec              =   2.5200000000000E+04
(PID.TID 0000.0001) %MON seaice_uice_max              =   2.5685054829378E-01
(PID.TID 0000.0001) %MON seaice_uice_min              =  -9.7750591653211E-02
(PID.TID 0000.0001) %MON seaice_uice_mean             =   7.6051406817335E-02
(PID.TID 0000.0001) %MON seaice_uice_sd               =   8.5419615688352E-02
(PID.TID 0000.0001) %MON seaice_uice_del2             =   9.6584535842958E-03
(PID.TID 0000.0001) %MON seaice_vice_max              =   9.3826162067857E-02
(PID.TID 0000.0001) %MON seaice_vice_min              =  -2.2536421287861E-01
(PID.TID 0000.0001) %MON seaice_vice_mean             =  -6.0012498732864E-02
(PID.TID 0000.0001) %MON seaice_vice_sd               =   7.2852706202643E-02
(PID.TID 0000.0001) %MON seaice_vice_del2             =   8.1655640143257E-03
(PID.TID 0000.0001) %MON seaice_area_max              =   1.0000000000000E+00
(PID.TID 0000.0001) %MON seaice_area_min              =   0.0000000000000E+00
(PID.TID 0000.0001) %MON seaice_area_mean             =   6.2408692917822E-01
(PID.TID 0000.0001) %MON seaice_area_sd               =   4.5772396153624E-01
(PID.TID 0000.0001) %MON seaice_area_del2             =   5.3629445229427E-02
(PID.TID 0000.0001) %MON seaice_heff_max              =   5.4815057630965E-01
(PID.TID 0000.0001) %MON seaice_heff_min              =   0.0000000000000E+00
(PID.TID 0000.0001) %MON seaice_heff_mean             =   1.4221060662923E-01
(PID.TID 0000.0001) %MON seaice_heff_sd               =   1.7437184594846E-01
(PID.TID 0000.0001) %MON seaice_heff_del2             =   1.3220515083222E-02
(PID.TID 0000.0001) %MON seaice_hsnow_max             =   2.0549515084231E-01
(PID.TID 0000.0001) %MON seaice_hsnow_min             =   0.0000000000000E+00
(PID.TID 0000.0001) %MON seaice_hsnow_mean            =   1.1857184786403E-01
(PID.TID 0000.0001) %MON seaice_hsnow_sd              =   9.7287286136481E-02
(PID.TID 0000.0001) %MON seaice_hsnow_del2            =   6.5537586326499E-03
(PID.TID 0000.0001) // =======================================================
(PID.TID 0000.0001) // End MONITOR SEAICE statistics
(PID.TID 0000.0001) // =======================================================
(PID.TID 0000.0001) // =======================================================
(PID.TID 0000.0001) // Begin MONITOR EXF statistics
(PID.TID 0000.0001) // =======================================================
(PID.TID 0000.0001) %MON exf_tsnumber                 =                     7
(PID.TID 0000.0001) %MON exf_time_sec                 =   2.5200000000000E+04
(PID.TID 0000.0001) %MON exf_ustress_max              =   5.2243932822220E-02
(PID.TID 0000.0001) %MON exf_ustress_min              =  -9.3796695311270E-02
(PID.TID 0000.0001) %MON exf_ustress_mean             =   1.7960121763484E-02
(PID.TID 0000.0001) %MON exf_ustress_sd               =   2.3726167774218E-02
(PID.TID 0000.0001) %MON exf_ustress_del2             =   2.8191141986872E-03
(PID.TID 0000.0001) %MON exf_vstress_max              =   5.3833777652830E-02
(PID.TID 0000.0001) %MON exf_vstress_min              =  -5.8440994812832E-02
(PID.TID 0000.0001) %MON exf_vstress_mean             =  -5.4400592462442E-03
(PID.TID 0000.0001) %MON exf_vstress_sd               =   1.4449140344490E-02
(PID.TID 0000.0001) %MON exf_vstress_del2             =   1.6932578055230E-03
(PID.TID 0000.0001) %MON exf_hflux_max                =   6.2511249114516E+02
(PID.TID 0000.0001) %MON exf_hflux_min                =  -5.1292187877954E+01
(PID.TID 0000.0001) %MON exf_hflux_mean               =   1.4638069472812E+02
(PID.TID 0000.0001) %MON exf_hflux_sd                 =   1.8004877695000E+02
(PID.TID 0000.0001) %MON exf_hflux_del2               =   1.6307661621902E+01
(PID.TID 0000.0001) %MON exf_sflux_max                =   3.9024744508735E-08
(PID.TID 0000.0001) %MON exf_sflux_min                =  -8.8844029800132E-08
(PID.TID 0000.0001) %MON exf_sflux_mean               =  -2.5943648710501E-08
(PID.TID 0000.0001) %MON exf_sflux_sd                 =   3.0352934020467E-08
(PID.TID 0000.0001) %MON exf_sflux_del2               =   3.1638738385517E-09
(PID.TID 0000.0001) %MON exf_uwind_max                =   6.4679267093784E+00
(PID.TID 0000.0001) %MON exf_uwind_min                =  -6.8374255452651E+00
(PID.TID 0000.0001) %MON exf_uwind_mean               =   2.7705256000140E+00
(PID.TID 0000.0001) %MON exf_uwind_sd                 =   2.9919728561678E+00
(PID.TID 0000.0001) %MON exf_uwind_del2               =   3.1576527695052E-01
(PID.TID 0000.0001) %MON exf_vwind_max                =   3.9242794780783E+00
(PID.TID 0000.0001) %MON exf_vwind_min                =  -6.0133620194399E+00
(PID.TID 0000.0001) %MON exf_vwind_mean               =  -7.5657426961883E-01
(PID.TID 0000.0001) %MON exf_vwind_sd                 =   1.7301024272674E+00
(PID.TID 0000.0001) %MON exf_vwind_del2               =   1.9328456693798E-01
(PID.TID 0000.0001) %MON exf_wspeed_max               =   7.8835498038073E+00
(PID.TID 0000.0001) %MON exf_wspeed_min               =   4.5865235699732E-01
(PID.TID 0000.0001) %MON exf_wspeed_mean              =   4.1988415259832E+00
(PID.TID 0000.0001) %MON exf_wspeed_sd                =   1.6009692521540E+00
(PID.TID 0000.0001) %MON exf_wspeed_del2              =   3.7730984410389E-01
(PID.TID 0000.0001) %MON exf_atemp_max                =   2.8187082742993E+02
(PID.TID 0000.0001) %MON exf_atemp_min                =   2.3643051433042E+02
(PID.TID 0000.0001) %MON exf_atemp_mean               =   2.6391354832479E+02
(PID.TID 0000.0001) %MON exf_atemp_sd                 =   1.1993651066782E+01
(PID.TID 0000.0001) %MON exf_atemp_del2               =   6.4955841421018E-01
(PID.TID 0000.0001) %MON exf_aqh_max                  =   6.3182971576392E-03
(PID.TID 0000.0001) %MON exf_aqh_min                  =   1.6303402368524E-04
(PID.TID 0000.0001) %MON exf_aqh_mean                 =   2.4764404153565E-03
(PID.TID 0000.0001) %MON exf_aqh_sd                   =   1.4257865072101E-03
(PID.TID 0000.0001) %MON exf_aqh_del2                 =   6.8046107671613E-05
(PID.TID 0000.0001) %MON exf_lwflux_max               =   1.8159055041551E+02
(PID.TID 0000.0001) %MON exf_lwflux_min               =   2.7054912717553E+01
(PID.TID 0000.0001) %MON exf_lwflux_mean              =   7.5259507667560E+01
(PID.TID 0000.0001) %MON exf_lwflux_sd                =   4.2774126949825E+01
(PID.TID 0000.0001) %MON exf_lwflux_del2              =   3.2322869006214E+00
(PID.TID 0000.0001) %MON exf_precip_max               =   1.0499733310606E-07
(PID.TID 0000.0001) %MON exf_precip_min               =   2.7265750163496E-10
(PID.TID 0000.0001) %MON exf_precip_mean              =   3.6390004634845E-08
(PID.TID 0000.0001) %MON exf_precip_sd                =   2.0581314966068E-08
(PID.TID 0000.0001) %MON exf_precip_del2              =   2.5588488380710E-09
(PID.TID 0000.0001) %MON exf_snowprecip_max           =   0.0000000000000E+00
(PID.TID 0000.0001) %MON exf_snowprecip_min           =   0.0000000000000E+00
(PID.TID 0000.0001) %MON exf_snowprecip_mean          =   0.0000000000000E+00
(PID.TID 0000.0001) %MON exf_snowprecip_sd            =   0.0000000000000E+00
(PID.TID 0000.0001) %MON exf_snowprecip_del2          =   0.0000000000000E+00
(PID.TID 0000.0001) %MON exf_swflux_max               =  -8.1207735616653E-02
(PID.TID 0000.0001) %MON exf_swflux_min               =  -6.4105206467675E+01
(PID.TID 0000.0001) %MON exf_swflux_mean              =  -2.6526948534072E+01
(PID.TID 0000.0001) %MON exf_swflux_sd                =   1.9652762825246E+01
(PID.TID 0000.0001) %MON exf_swflux_del2              =   4.7976088317456E-01
(PID.TID 0000.0001) %MON exf_evap_max                 =   4.5344313356315E-08
(PID.TID 0000.0001) %MON exf_evap_min                 =  -4.2074595985835E-09
(PID.TID 0000.0001) %MON exf_evap_mean                =   1.0446355924343E-08
(PID.TID 0000.0001) %MON exf_evap_sd                  =   1.1077267003934E-08
(PID.TID 0000.0001) %MON exf_evap_del2                =   1.3331784536400E-09
(PID.TID 0000.0001) %MON exf_swdown_max               =   7.1228007186306E+01
(PID.TID 0000.0001) %MON exf_swdown_min               =   9.0230817351836E-02
(PID.TID 0000.0001) %MON exf_swdown_mean              =   2.9474387260081E+01
(PID.TID 0000.0001) %MON exf_swdown_sd                =   2.1836403139162E+01
(PID.TID 0000.0001) %MON exf_swdown_del2              =   5.3306764797174E-01
(PID.TID 0000.0001) %MON exf_lwdown_max               =   3.0561793543081E+02
(PID.TID 0000.0001) %MON exf_lwdown_min               =   1.1589194395764E+02
(PID.TID 0000.0001) %MON exf_lwdown_mean              =   2.2583936565568E+02
(PID.TID 0000.0001) %MON exf_lwdown_sd                =   4.6305239399294E+01
(PID.TID 0000.0001) %MON exf_lwdown_del2              =   3.2439027772011E+00
(PID.TID 0000.0001) %MON exf_apressure_max            =   0.0000000000000E+00
(PID.TID 0000.0001) %MON exf_apressure_min            =   0.0000000000000E+00
(PID.TID 0000.0001) %MON exf_apressure_mean           =   0.0000000000000E+00
(PID.TID 0000.0001) %MON exf_apressure_sd             =   0.0000000000000E+00
(PID.TID 0000.0001) %MON exf_apressure_del2           =   0.0000000000000E+00
(PID.TID 0000.0001) %MON exf_runoff_max               =   0.0000000000000E+00
(PID.TID 0000.0001) %MON exf_runoff_min               =   0.0000000000000E+00
(PID.TID 0000.0001) %MON exf_runoff_mean              =   0.0000000000000E+00
(PID.TID 0000.0001) %MON exf_runoff_sd                =   0.0000000000000E+00
(PID.TID 0000.0001) %MON exf_runoff_del2              =   0.0000000000000E+00
(PID.TID 0000.0001) %MON exf_climsst_max              =   0.0000000000000E+00
(PID.TID 0000.0001) %MON exf_climsst_min              =   0.0000000000000E+00
(PID.TID 0000.0001) %MON exf_climsst_mean             =   0.0000000000000E+00
(PID.TID 0000.0001) %MON exf_climsst_sd               =   0.0000000000000E+00
(PID.TID 0000.0001) %MON exf_climsst_del2             =   0.0000000000000E+00
(PID.TID 0000.0001) %MON exf_climsss_max              =   3.5041624116116E+01
(PID.TID 0000.0001) %MON exf_climsss_min              =   3.0671628467372E+01
(PID.TID 0000.0001) %MON exf_climsss_mean             =   3.3462968935345E+01
(PID.TID 0000.0001) %MON exf_climsss_sd               =   1.0314580197633E+00
(PID.TID 0000.0001) %MON exf_climsss_del2             =   1.0007335642865E-01
(PID.TID 0000.0001) // =======================================================
(PID.TID 0000.0001) // End MONITOR EXF statistics
(PID.TID 0000.0001) // =======================================================
 ph-ice B  7  0.  0.  0.
 ph-ice C  7  4.07568396E+11
 cg2d: Sum(rhs),rhsMax =   3.08545416126405E-08  1.18167591238142E+00
(PID.TID 0000.0001) // =======================================================
(PID.TID 0000.0001) // Begin MONITOR SEAICE statistics
(PID.TID 0000.0001) // =======================================================
(PID.TID 0000.0001) %MON seaice_tsnumber              =                     8
(PID.TID 0000.0001) %MON seaice_time_sec              =   2.8800000000000E+04
(PID.TID 0000.0001) %MON seaice_uice_max              =   2.6752547275969E-01
(PID.TID 0000.0001) %MON seaice_uice_min              =  -8.8502450662080E-02
(PID.TID 0000.0001) %MON seaice_uice_mean             =   6.9612570397842E-02
(PID.TID 0000.0001) %MON seaice_uice_sd               =   8.3090544776605E-02
(PID.TID 0000.0001) %MON seaice_uice_del2             =   8.8607388386876E-03
(PID.TID 0000.0001) %MON seaice_vice_max              =   8.6568020769556E-02
(PID.TID 0000.0001) %MON seaice_vice_min              =  -2.2434575857125E-01
(PID.TID 0000.0001) %MON seaice_vice_mean             =  -6.1223915610335E-02
(PID.TID 0000.0001) %MON seaice_vice_sd               =   7.0132099031304E-02
(PID.TID 0000.0001) %MON seaice_vice_del2             =   8.0005773978024E-03
(PID.TID 0000.0001) %MON seaice_area_max              =   1.0000000000000E+00
(PID.TID 0000.0001) %MON seaice_area_min              =   0.0000000000000E+00
(PID.TID 0000.0001) %MON seaice_area_mean             =   6.2402845119971E-01
(PID.TID 0000.0001) %MON seaice_area_sd               =   4.5740418603773E-01
(PID.TID 0000.0001) %MON seaice_area_del2             =   5.3616919294805E-02
(PID.TID 0000.0001) %MON seaice_heff_max              =   5.4845941034799E-01
(PID.TID 0000.0001) %MON seaice_heff_min              =   0.0000000000000E+00
(PID.TID 0000.0001) %MON seaice_heff_mean             =   1.4210965181873E-01
(PID.TID 0000.0001) %MON seaice_heff_sd               =   1.7454195239826E-01
(PID.TID 0000.0001) %MON seaice_heff_del2             =   1.3200167277284E-02
(PID.TID 0000.0001) %MON seaice_hsnow_max             =   2.0628031960974E-01
(PID.TID 0000.0001) %MON seaice_hsnow_min             =   0.0000000000000E+00
(PID.TID 0000.0001) %MON seaice_hsnow_mean            =   1.1873224112822E-01
(PID.TID 0000.0001) %MON seaice_hsnow_sd              =   9.7409172568095E-02
(PID.TID 0000.0001) %MON seaice_hsnow_del2            =   6.5932180716000E-03
(PID.TID 0000.0001) // =======================================================
(PID.TID 0000.0001) // End MONITOR SEAICE statistics
(PID.TID 0000.0001) // =======================================================
(PID.TID 0000.0001) // =======================================================
(PID.TID 0000.0001) // Begin MONITOR EXF statistics
(PID.TID 0000.0001) // =======================================================
(PID.TID 0000.0001) %MON exf_tsnumber                 =                     8
(PID.TID 0000.0001) %MON exf_time_sec                 =   2.8800000000000E+04
(PID.TID 0000.0001) %MON exf_ustress_max              =   5.2249214878930E-02
(PID.TID 0000.0001) %MON exf_ustress_min              =  -9.3798929022903E-02
(PID.TID 0000.0001) %MON exf_ustress_mean             =   1.7966531548307E-02
(PID.TID 0000.0001) %MON exf_ustress_sd               =   2.3731957707758E-02
(PID.TID 0000.0001) %MON exf_ustress_del2             =   2.8199347865451E-03
(PID.TID 0000.0001) %MON exf_vstress_max              =   5.3835262836833E-02
(PID.TID 0000.0001) %MON exf_vstress_min              =  -5.8423863255063E-02
(PID.TID 0000.0001) %MON exf_vstress_mean             =  -5.4366062453486E-03
(PID.TID 0000.0001) %MON exf_vstress_sd               =   1.4450709643018E-02
(PID.TID 0000.0001) %MON exf_vstress_del2             =   1.6932443127615E-03
(PID.TID 0000.0001) %MON exf_hflux_max                =   6.2516667571605E+02
(PID.TID 0000.0001) %MON exf_hflux_min                =  -5.1290005249348E+01
(PID.TID 0000.0001) %MON exf_hflux_mean               =   1.4644495826837E+02
(PID.TID 0000.0001) %MON exf_hflux_sd                 =   1.8007066339301E+02
(PID.TID 0000.0001) %MON exf_hflux_del2               =   1.6310896327005E+01
(PID.TID 0000.0001) %MON exf_sflux_max                =   3.9024984842041E-08
(PID.TID 0000.0001) %MON exf_sflux_min                =  -8.8852274145577E-08
(PID.TID 0000.0001) %MON exf_sflux_mean               =  -2.5937370834662E-08
(PID.TID 0000.0001) %MON exf_sflux_sd                 =   3.0352647836184E-08
(PID.TID 0000.0001) %MON exf_sflux_del2               =   3.1646035831479E-09
(PID.TID 0000.0001) %MON exf_uwind_max                =   6.4684341618272E+00
(PID.TID 0000.0001) %MON exf_uwind_min                =  -6.8374523269674E+00
(PID.TID 0000.0001) %MON exf_uwind_mean               =   2.7706331523584E+00
(PID.TID 0000.0001) %MON exf_uwind_sd                 =   2.9922491036980E+00
(PID.TID 0000.0001) %MON exf_uwind_del2               =   3.1577589455021E-01
(PID.TID 0000.0001) %MON exf_vwind_max                =   3.9243096588739E+00
(PID.TID 0000.0001) %MON exf_vwind_min                =  -6.0124561096150E+00
(PID.TID 0000.0001) %MON exf_vwind_mean               =  -7.5595649652871E-01
(PID.TID 0000.0001) %MON exf_vwind_sd                 =   1.7302112611019E+00
(PID.TID 0000.0001) %MON exf_vwind_del2               =   1.9327792057372E-01
(PID.TID 0000.0001) %MON exf_wspeed_max               =   7.8835880550853E+00
(PID.TID 0000.0001) %MON exf_wspeed_min               =   4.5840953253040E-01
(PID.TID 0000.0001) %MON exf_wspeed_mean              =   4.1989448725728E+00
(PID.TID 0000.0001) %MON exf_wspeed_sd                =   1.6012263903992E+00
(PID.TID 0000.0001) %MON exf_wspeed_del2              =   3.7736312737620E-01
(PID.TID 0000.0001) %MON exf_atemp_max                =   2.8186911527707E+02
(PID.TID 0000.0001) %MON exf_atemp_min                =   2.3642604936277E+02
(PID.TID 0000.0001) %MON exf_atemp_mean               =   2.6390890424337E+02
(PID.TID 0000.0001) %MON exf_atemp_sd                 =   1.1995115012275E+01
(PID.TID 0000.0001) %MON exf_atemp_del2               =   6.4957774576263E-01
(PID.TID 0000.0001) %MON exf_aqh_max                  =   6.3176006167781E-03
(PID.TID 0000.0001) %MON exf_aqh_min                  =   1.6293992018683E-04
(PID.TID 0000.0001) %MON exf_aqh_mean                 =   2.4758800589519E-03
(PID.TID 0000.0001) %MON exf_aqh_sd                   =   1.4256836550895E-03
(PID.TID 0000.0001) %MON exf_aqh_del2                 =   6.8032440110466E-05
(PID.TID 0000.0001) %MON exf_lwflux_max               =   1.8160657786431E+02
(PID.TID 0000.0001) %MON exf_lwflux_min               =   2.7042773779065E+01
(PID.TID 0000.0001) %MON exf_lwflux_mean              =   7.5278600594833E+01
(PID.TID 0000.0001) %MON exf_lwflux_sd                =   4.2775416568993E+01
(PID.TID 0000.0001) %MON exf_lwflux_del2              =   3.2322420106063E+00
(PID.TID 0000.0001) %MON exf_precip_max               =   1.0499871454869E-07
(PID.TID 0000.0001) %MON exf_precip_min               =   2.7252357516229E-10
(PID.TID 0000.0001) %MON exf_precip_mean              =   3.6389993790810E-08
(PID.TID 0000.0001) %MON exf_precip_sd                =   2.0581769987393E-08
(PID.TID 0000.0001) %MON exf_precip_del2              =   2.5593765312607E-09
(PID.TID 0000.0001) %MON exf_snowprecip_max           =   0.0000000000000E+00
(PID.TID 0000.0001) %MON exf_snowprecip_min           =   0.0000000000000E+00
(PID.TID 0000.0001) %MON exf_snowprecip_mean          =   0.0000000000000E+00
(PID.TID 0000.0001) %MON exf_snowprecip_sd            =   0.0000000000000E+00
(PID.TID 0000.0001) %MON exf_snowprecip_del2          =   0.0000000000000E+00
(PID.TID 0000.0001) %MON exf_swflux_max               =  -8.1208018494434E-02
(PID.TID 0000.0001) %MON exf_swflux_min               =  -6.4124076818247E+01
(PID.TID 0000.0001) %MON exf_swflux_mean              =  -2.6537480749947E+01
(PID.TID 0000.0001) %MON exf_swflux_sd                =   1.9656602581253E+01
(PID.TID 0000.0001) %MON exf_swflux_del2              =   4.7986775712052E-01
(PID.TID 0000.0001) %MON exf_evap_max                 =   4.5343890978690E-08
(PID.TID 0000.0001) %MON exf_evap_min                 =  -4.2045649070785E-09
(PID.TID 0000.0001) %MON exf_evap_mean                =   1.0452622956149E-08
(PID.TID 0000.0001) %MON exf_evap_sd                  =   1.1076424926619E-08
(PID.TID 0000.0001) %MON exf_evap_del2                =   1.3335996509978E-09
(PID.TID 0000.0001) %MON exf_swdown_max               =   7.1248974242497E+01
(PID.TID 0000.0001) %MON exf_swdown_min               =   9.0231131660482E-02
(PID.TID 0000.0001) %MON exf_swdown_mean              =   2.9486089722164E+01
(PID.TID 0000.0001) %MON exf_swdown_sd                =   2.1840669534725E+01
(PID.TID 0000.0001) %MON exf_swdown_del2              =   5.3318639680058E-01
(PID.TID 0000.0001) %MON exf_lwdown_max               =   3.0560910934698E+02
(PID.TID 0000.0001) %MON exf_lwdown_min               =   1.1587683707899E+02
(PID.TID 0000.0001) %MON exf_lwdown_mean              =   2.2582365832661E+02
(PID.TID 0000.0001) %MON exf_lwdown_sd                =   4.6309216947189E+01
(PID.TID 0000.0001) %MON exf_lwdown_del2              =   3.2439144172738E+00
(PID.TID 0000.0001) %MON exf_apressure_max            =   0.0000000000000E+00
(PID.TID 0000.0001) %MON exf_apressure_min            =   0.0000000000000E+00
(PID.TID 0000.0001) %MON exf_apressure_mean           =   0.0000000000000E+00
(PID.TID 0000.0001) %MON exf_apressure_sd             =   0.0000000000000E+00
(PID.TID 0000.0001) %MON exf_apressure_del2           =   0.0000000000000E+00
(PID.TID 0000.0001) %MON exf_runoff_max               =   0.0000000000000E+00
(PID.TID 0000.0001) %MON exf_runoff_min               =   0.0000000000000E+00
(PID.TID 0000.0001) %MON exf_runoff_mean              =   0.0000000000000E+00
(PID.TID 0000.0001) %MON exf_runoff_sd                =   0.0000000000000E+00
(PID.TID 0000.0001) %MON exf_runoff_del2              =   0.0000000000000E+00
(PID.TID 0000.0001) %MON exf_climsst_max              =   0.0000000000000E+00
(PID.TID 0000.0001) %MON exf_climsst_min              =   0.0000000000000E+00
(PID.TID 0000.0001) %MON exf_climsst_mean             =   0.0000000000000E+00
(PID.TID 0000.0001) %MON exf_climsst_sd               =   0.0000000000000E+00
(PID.TID 0000.0001) %MON exf_climsst_del2             =   0.0000000000000E+00
(PID.TID 0000.0001) %MON exf_climsss_max              =   3.5041808863155E+01
(PID.TID 0000.0001) %MON exf_climsss_min              =   3.0672387795370E+01
(PID.TID 0000.0001) %MON exf_climsss_mean             =   3.3463490268825E+01
(PID.TID 0000.0001) %MON exf_climsss_sd               =   1.0313879583737E+00
(PID.TID 0000.0001) %MON exf_climsss_del2             =   1.0005612713826E-01
(PID.TID 0000.0001) // =======================================================
(PID.TID 0000.0001) // End MONITOR EXF statistics
(PID.TID 0000.0001) // =======================================================
 ph-ice B  8  0.  0.  0.
 ph-ice C  8  4.58144942E+11
 cg2d: Sum(rhs),rhsMax =   2.95457483409645E-08  1.16732732391826E+00
(PID.TID 0000.0001) // =======================================================
(PID.TID 0000.0001) // Begin MONITOR SEAICE statistics
(PID.TID 0000.0001) // =======================================================
(PID.TID 0000.0001) %MON seaice_tsnumber              =                     9
(PID.TID 0000.0001) %MON seaice_time_sec              =   3.2400000000000E+04
(PID.TID 0000.0001) %MON seaice_uice_max              =   2.6896409395955E-01
(PID.TID 0000.0001) %MON seaice_uice_min              =  -8.0042763880683E-02
(PID.TID 0000.0001) %MON seaice_uice_mean             =   6.2852592717261E-02
(PID.TID 0000.0001) %MON seaice_uice_sd               =   7.9022304898106E-02
(PID.TID 0000.0001) %MON seaice_uice_del2             =   7.8428823075282E-03
(PID.TID 0000.0001) %MON seaice_vice_max              =   7.8808436815252E-02
(PID.TID 0000.0001) %MON seaice_vice_min              =  -2.0876036228423E-01
(PID.TID 0000.0001) %MON seaice_vice_mean             =  -5.8596069862683E-02
(PID.TID 0000.0001) %MON seaice_vice_sd               =   6.4348689912579E-02
(PID.TID 0000.0001) %MON seaice_vice_del2             =   7.5771797606978E-03
(PID.TID 0000.0001) %MON seaice_area_max              =   1.0000000000000E+00
(PID.TID 0000.0001) %MON seaice_area_min              =   0.0000000000000E+00
(PID.TID 0000.0001) %MON seaice_area_mean             =   6.2385274332450E-01
(PID.TID 0000.0001) %MON seaice_area_sd               =   4.5701599530273E-01
(PID.TID 0000.0001) %MON seaice_area_del2             =   5.3473223224944E-02
(PID.TID 0000.0001) %MON seaice_heff_max              =   5.4880172478712E-01
(PID.TID 0000.0001) %MON seaice_heff_min              =   0.0000000000000E+00
(PID.TID 0000.0001) %MON seaice_heff_mean             =   1.4197207536531E-01
(PID.TID 0000.0001) %MON seaice_heff_sd               =   1.7470079003844E-01
(PID.TID 0000.0001) %MON seaice_heff_del2             =   1.3179369336839E-02
(PID.TID 0000.0001) %MON seaice_hsnow_max             =   2.0706544703537E-01
(PID.TID 0000.0001) %MON seaice_hsnow_min             =   0.0000000000000E+00
(PID.TID 0000.0001) %MON seaice_hsnow_mean            =   1.1888097081541E-01
(PID.TID 0000.0001) %MON seaice_hsnow_sd              =   9.7521343295346E-02
(PID.TID 0000.0001) %MON seaice_hsnow_del2            =   6.6252286527932E-03
(PID.TID 0000.0001) // =======================================================
(PID.TID 0000.0001) // End MONITOR SEAICE statistics
(PID.TID 0000.0001) // =======================================================
(PID.TID 0000.0001) // =======================================================
(PID.TID 0000.0001) // Begin MONITOR EXF statistics
(PID.TID 0000.0001) // =======================================================
(PID.TID 0000.0001) %MON exf_tsnumber                 =                     9
(PID.TID 0000.0001) %MON exf_time_sec                 =   3.2400000000000E+04
(PID.TID 0000.0001) %MON exf_ustress_max              =   5.2253931426604E-02
(PID.TID 0000.0001) %MON exf_ustress_min              =  -9.3801402378652E-02
(PID.TID 0000.0001) %MON exf_ustress_mean             =   1.7972510772006E-02
(PID.TID 0000.0001) %MON exf_ustress_sd               =   2.3737460946191E-02
(PID.TID 0000.0001) %MON exf_ustress_del2             =   2.8207107817578E-03
(PID.TID 0000.0001) %MON exf_vstress_max              =   5.3836885571565E-02
(PID.TID 0000.0001) %MON exf_vstress_min              =  -5.8402245562653E-02
(PID.TID 0000.0001) %MON exf_vstress_mean             =  -5.4330600928294E-03
(PID.TID 0000.0001) %MON exf_vstress_sd               =   1.4451995600452E-02
(PID.TID 0000.0001) %MON exf_vstress_del2             =   1.6932501682955E-03
(PID.TID 0000.0001) %MON exf_hflux_max                =   6.2523607820809E+02
(PID.TID 0000.0001) %MON exf_hflux_min                =  -5.1341825204117E+01
(PID.TID 0000.0001) %MON exf_hflux_mean               =   1.4650267029895E+02
(PID.TID 0000.0001) %MON exf_hflux_sd                 =   1.8009641358477E+02
(PID.TID 0000.0001) %MON exf_hflux_del2               =   1.6313448852955E+01
(PID.TID 0000.0001) %MON exf_sflux_max                =   3.9027165063409E-08
(PID.TID 0000.0001) %MON exf_sflux_min                =  -8.8881916034582E-08
(PID.TID 0000.0001) %MON exf_sflux_mean               =  -2.5931969889509E-08
(PID.TID 0000.0001) %MON exf_sflux_sd                 =   3.0353383460555E-08
(PID.TID 0000.0001) %MON exf_sflux_del2               =   3.1652679697935E-09
(PID.TID 0000.0001) %MON exf_uwind_max                =   6.4689416142761E+00
(PID.TID 0000.0001) %MON exf_uwind_min                =  -6.8374791086697E+00
(PID.TID 0000.0001) %MON exf_uwind_mean               =   2.7707407047028E+00
(PID.TID 0000.0001) %MON exf_uwind_sd                 =   2.9925253914175E+00
(PID.TID 0000.0001) %MON exf_uwind_del2               =   3.1578823099586E-01
(PID.TID 0000.0001) %MON exf_vwind_max                =   3.9243398396695E+00
(PID.TID 0000.0001) %MON exf_vwind_min                =  -6.0115501997901E+00
(PID.TID 0000.0001) %MON exf_vwind_mean               =  -7.5533872343860E-01
(PID.TID 0000.0001) %MON exf_vwind_sd                 =   1.7303202080462E+00
(PID.TID 0000.0001) %MON exf_vwind_del2               =   1.9327127420947E-01
(PID.TID 0000.0001) %MON exf_wspeed_max               =   7.8836263063842E+00
(PID.TID 0000.0001) %MON exf_wspeed_min               =   4.5816671047235E-01
(PID.TID 0000.0001) %MON exf_wspeed_mean              =   4.1990483480424E+00
(PID.TID 0000.0001) %MON exf_wspeed_sd                =   1.6014836406520E+00
(PID.TID 0000.0001) %MON exf_wspeed_del2              =   3.7741640417905E-01
(PID.TID 0000.0001) %MON exf_atemp_max                =   2.8186740312420E+02
(PID.TID 0000.0001) %MON exf_atemp_min                =   2.3642158439511E+02
(PID.TID 0000.0001) %MON exf_atemp_mean               =   2.6390426016196E+02
(PID.TID 0000.0001) %MON exf_atemp_sd                 =   1.1996579444332E+01
(PID.TID 0000.0001) %MON exf_atemp_del2               =   6.4959707731507E-01
(PID.TID 0000.0001) %MON exf_aqh_max                  =   6.3169040759170E-03
(PID.TID 0000.0001) %MON exf_aqh_min                  =   1.6284581668843E-04
(PID.TID 0000.0001) %MON exf_aqh_mean                 =   2.4753197025473E-03
(PID.TID 0000.0001) %MON exf_aqh_sd                   =   1.4255808388841E-03
(PID.TID 0000.0001) %MON exf_aqh_del2                 =   6.8018772549319E-05
(PID.TID 0000.0001) %MON exf_lwflux_max               =   1.8162256096874E+02
(PID.TID 0000.0001) %MON exf_lwflux_min               =   2.7024547893209E+01
(PID.TID 0000.0001) %MON exf_lwflux_mean              =   7.5295927036031E+01
(PID.TID 0000.0001) %MON exf_lwflux_sd                =   4.2777926633759E+01
(PID.TID 0000.0001) %MON exf_lwflux_del2              =   3.2320703433553E+00
(PID.TID 0000.0001) %MON exf_precip_max               =   1.0500009599131E-07
(PID.TID 0000.0001) %MON exf_precip_min               =   2.7238964868961E-10
(PID.TID 0000.0001) %MON exf_precip_mean              =   3.6389982946776E-08
(PID.TID 0000.0001) %MON exf_precip_sd                =   2.0582225664103E-08
(PID.TID 0000.0001) %MON exf_precip_del2              =   2.5599042244504E-09
(PID.TID 0000.0001) %MON exf_snowprecip_max           =   0.0000000000000E+00
(PID.TID 0000.0001) %MON exf_snowprecip_min           =   0.0000000000000E+00
(PID.TID 0000.0001) %MON exf_snowprecip_mean          =   0.0000000000000E+00
(PID.TID 0000.0001) %MON exf_snowprecip_sd            =   0.0000000000000E+00
(PID.TID 0000.0001) %MON exf_snowprecip_del2          =   0.0000000000000E+00
(PID.TID 0000.0001) %MON exf_swflux_max               =  -8.1208301372215E-02
(PID.TID 0000.0001) %MON exf_swflux_min               =  -6.4142947168819E+01
(PID.TID 0000.0001) %MON exf_swflux_mean              =  -2.6548012965822E+01
(PID.TID 0000.0001) %MON exf_swflux_sd                =   1.9660442927159E+01
(PID.TID 0000.0001) %MON exf_swflux_del2              =   4.7997463106648E-01
(PID.TID 0000.0001) %MON exf_evap_max                 =   4.5345408489128E-08
(PID.TID 0000.0001) %MON exf_evap_min                 =  -4.2118523673716E-09
(PID.TID 0000.0001) %MON exf_evap_mean                =   1.0458013057267E-08
(PID.TID 0000.0001) %MON exf_evap_sd                  =   1.1076058250046E-08
(PID.TID 0000.0001) %MON exf_evap_del2                =   1.3338809270231E-09
(PID.TID 0000.0001) %MON exf_swdown_max               =   7.1269941298688E+01
(PID.TID 0000.0001) %MON exf_swdown_min               =   9.0231445969128E-02
(PID.TID 0000.0001) %MON exf_swdown_mean              =   2.9497792184247E+01
(PID.TID 0000.0001) %MON exf_swdown_sd                =   2.1844936585733E+01
(PID.TID 0000.0001) %MON exf_swdown_del2              =   5.3330514562942E-01
(PID.TID 0000.0001) %MON exf_lwdown_max               =   3.0560028326316E+02
(PID.TID 0000.0001) %MON exf_lwdown_min               =   1.1586173020035E+02
(PID.TID 0000.0001) %MON exf_lwdown_mean              =   2.2580795099755E+02
(PID.TID 0000.0001) %MON exf_lwdown_sd                =   4.6313195660870E+01
(PID.TID 0000.0001) %MON exf_lwdown_del2              =   3.2439260573465E+00
(PID.TID 0000.0001) %MON exf_apressure_max            =   0.0000000000000E+00
(PID.TID 0000.0001) %MON exf_apressure_min            =   0.0000000000000E+00
(PID.TID 0000.0001) %MON exf_apressure_mean           =   0.0000000000000E+00
(PID.TID 0000.0001) %MON exf_apressure_sd             =   0.0000000000000E+00
(PID.TID 0000.0001) %MON exf_apressure_del2           =   0.0000000000000E+00
(PID.TID 0000.0001) %MON exf_runoff_max               =   0.0000000000000E+00
(PID.TID 0000.0001) %MON exf_runoff_min               =   0.0000000000000E+00
(PID.TID 0000.0001) %MON exf_runoff_mean              =   0.0000000000000E+00
(PID.TID 0000.0001) %MON exf_runoff_sd                =   0.0000000000000E+00
(PID.TID 0000.0001) %MON exf_runoff_del2              =   0.0000000000000E+00
(PID.TID 0000.0001) %MON exf_climsst_max              =   0.0000000000000E+00
(PID.TID 0000.0001) %MON exf_climsst_min              =   0.0000000000000E+00
(PID.TID 0000.0001) %MON exf_climsst_mean             =   0.0000000000000E+00
(PID.TID 0000.0001) %MON exf_climsst_sd               =   0.0000000000000E+00
(PID.TID 0000.0001) %MON exf_climsst_del2             =   0.0000000000000E+00
(PID.TID 0000.0001) %MON exf_climsss_max              =   3.5041993610194E+01
(PID.TID 0000.0001) %MON exf_climsss_min              =   3.0673147123368E+01
(PID.TID 0000.0001) %MON exf_climsss_mean             =   3.3464011602304E+01
(PID.TID 0000.0001) %MON exf_climsss_sd               =   1.0313181272348E+00
(PID.TID 0000.0001) %MON exf_climsss_del2             =   1.0003889784787E-01
(PID.TID 0000.0001) // =======================================================
(PID.TID 0000.0001) // End MONITOR EXF statistics
(PID.TID 0000.0001) // =======================================================
 ph-ice B  9  0.  0.  0.
 ph-ice C  9  5.08667249E+11
 cg2d: Sum(rhs),rhsMax =   2.90788262774511E-08  1.15038865788725E+00
(PID.TID 0000.0001) // =======================================================
(PID.TID 0000.0001) // Begin MONITOR SEAICE statistics
(PID.TID 0000.0001) // =======================================================
(PID.TID 0000.0001) %MON seaice_tsnumber              =                    10
(PID.TID 0000.0001) %MON seaice_time_sec              =   3.6000000000000E+04
(PID.TID 0000.0001) %MON seaice_uice_max              =   2.6070483644785E-01
(PID.TID 0000.0001) %MON seaice_uice_min              =  -7.4569485541552E-02
(PID.TID 0000.0001) %MON seaice_uice_mean             =   5.6946816627649E-02
(PID.TID 0000.0001) %MON seaice_uice_sd               =   7.3693137310793E-02
(PID.TID 0000.0001) %MON seaice_uice_del2             =   6.9822398706556E-03
(PID.TID 0000.0001) %MON seaice_vice_max              =   7.2855153893707E-02
(PID.TID 0000.0001) %MON seaice_vice_min              =  -1.8167527197442E-01
(PID.TID 0000.0001) %MON seaice_vice_mean             =  -5.2953477739704E-02
(PID.TID 0000.0001) %MON seaice_vice_sd               =   5.6405595079509E-02
(PID.TID 0000.0001) %MON seaice_vice_del2             =   6.8591412652556E-03
(PID.TID 0000.0001) %MON seaice_area_max              =   1.0000000000000E+00
(PID.TID 0000.0001) %MON seaice_area_min              =   0.0000000000000E+00
(PID.TID 0000.0001) %MON seaice_area_mean             =   6.2310748312881E-01
(PID.TID 0000.0001) %MON seaice_area_sd               =   4.5675712294052E-01
(PID.TID 0000.0001) %MON seaice_area_del2             =   5.3102413042524E-02
(PID.TID 0000.0001) %MON seaice_heff_max              =   5.4914440244056E-01
(PID.TID 0000.0001) %MON seaice_heff_min              =   0.0000000000000E+00
(PID.TID 0000.0001) %MON seaice_heff_mean             =   1.4181982346737E-01
(PID.TID 0000.0001) %MON seaice_heff_sd               =   1.7482876686378E-01
(PID.TID 0000.0001) %MON seaice_heff_del2             =   1.3169803655812E-02
(PID.TID 0000.0001) %MON seaice_hsnow_max             =   2.0785054838239E-01
(PID.TID 0000.0001) %MON seaice_hsnow_min             =   0.0000000000000E+00
(PID.TID 0000.0001) %MON seaice_hsnow_mean            =   1.1901259287713E-01
(PID.TID 0000.0001) %MON seaice_hsnow_sd              =   9.7627028706083E-02
(PID.TID 0000.0001) %MON seaice_hsnow_del2            =   6.6467677127376E-03
(PID.TID 0000.0001) // =======================================================
(PID.TID 0000.0001) // End MONITOR SEAICE statistics
(PID.TID 0000.0001) // =======================================================
(PID.TID 0000.0001)  MDS_READ_FIELD: opening file: xx_atemp.0000000000.001.001.data
(PID.TID 0000.0001)  MDS_READ_FIELD: opening file: xx_atemp.0000000000.001.001.data
(PID.TID 0000.0001)  MDS_READ_FIELD: opening file: xx_atemp.0000000000.001.001.data
(PID.TID 0000.0001)  MDS_READ_FIELD: opening file: xx_atemp.0000000000.001.001.data
(PID.TID 0000.0001)  MDS_READ_FIELD: opening file: xx_aqh.0000000000.001.001.data
(PID.TID 0000.0001)  MDS_READ_FIELD: opening file: xx_aqh.0000000000.001.001.data
(PID.TID 0000.0001)  MDS_READ_FIELD: opening file: xx_aqh.0000000000.001.001.data
(PID.TID 0000.0001)  MDS_READ_FIELD: opening file: xx_aqh.0000000000.001.001.data
(PID.TID 0000.0001)  MDS_READ_FIELD: opening file: xx_uwind.0000000000.001.001.data
(PID.TID 0000.0001)  MDS_READ_FIELD: opening file: xx_uwind.0000000000.001.001.data
(PID.TID 0000.0001)  MDS_READ_FIELD: opening file: xx_uwind.0000000000.001.001.data
(PID.TID 0000.0001)  MDS_READ_FIELD: opening file: xx_uwind.0000000000.001.001.data
(PID.TID 0000.0001)  MDS_READ_FIELD: opening file: xx_vwind.0000000000.001.001.data
(PID.TID 0000.0001)  MDS_READ_FIELD: opening file: xx_vwind.0000000000.001.001.data
(PID.TID 0000.0001)  MDS_READ_FIELD: opening file: xx_vwind.0000000000.001.001.data
(PID.TID 0000.0001)  MDS_READ_FIELD: opening file: xx_vwind.0000000000.001.001.data
(PID.TID 0000.0001)  MDS_READ_FIELD: opening file: xx_precip.0000000000.001.001.data
(PID.TID 0000.0001)  MDS_READ_FIELD: opening file: xx_precip.0000000000.001.001.data
(PID.TID 0000.0001)  MDS_READ_FIELD: opening file: xx_precip.0000000000.001.001.data
(PID.TID 0000.0001)  MDS_READ_FIELD: opening file: xx_precip.0000000000.001.001.data
(PID.TID 0000.0001)  MDS_READ_FIELD: opening file: xx_swdown.0000000000.001.001.data
(PID.TID 0000.0001)  MDS_READ_FIELD: opening file: xx_swdown.0000000000.001.001.data
(PID.TID 0000.0001)  MDS_READ_FIELD: opening file: xx_swdown.0000000000.001.001.data
(PID.TID 0000.0001)  MDS_READ_FIELD: opening file: xx_swdown.0000000000.001.001.data
(PID.TID 0000.0001)  MDS_READ_FIELD: opening file: xx_lwdown.0000000000.001.001.data
(PID.TID 0000.0001)  MDS_READ_FIELD: opening file: xx_lwdown.0000000000.001.001.data
(PID.TID 0000.0001)  MDS_READ_FIELD: opening file: xx_lwdown.0000000000.001.001.data
(PID.TID 0000.0001)  MDS_READ_FIELD: opening file: xx_lwdown.0000000000.001.001.data
(PID.TID 0000.0001)  MDS_READ_FIELD: opening file: xx_snowprecip.0000000000.001.001.data
(PID.TID 0000.0001)  MDS_READ_FIELD: opening file: xx_snowprecip.0000000000.001.001.data
(PID.TID 0000.0001)  MDS_READ_FIELD: opening file: xx_snowprecip.0000000000.001.001.data
(PID.TID 0000.0001)  MDS_READ_FIELD: opening file: xx_snowprecip.0000000000.001.001.data
(PID.TID 0000.0001)  MDS_READ_FIELD: opening file: xx_apressure.0000000000.001.001.data
(PID.TID 0000.0001)  MDS_READ_FIELD: opening file: xx_apressure.0000000000.001.001.data
(PID.TID 0000.0001)  MDS_READ_FIELD: opening file: xx_apressure.0000000000.001.001.data
(PID.TID 0000.0001)  MDS_READ_FIELD: opening file: xx_apressure.0000000000.001.001.data
(PID.TID 0000.0001)  MDS_READ_FIELD: opening file: psbar.0000000000.001.001.data
(PID.TID 0000.0001)  cost_ssh: offset_sum =  0.710000000000000E+02
(PID.TID 0000.0001)  MDS_READ_FIELD: opening file: psbar.0000000000.001.001.data
(PID.TID 0000.0001) ph-cost call cost_sst
(PID.TID 0000.0001)  MDS_READ_FIELD: opening file: tbar.0000000000.001.001.data
(PID.TID 0000.0001) ph-cost call cost_theta
(PID.TID 0000.0001)  MDS_READ_FIELD: opening file: tbar.0000000000.001.001.data
(PID.TID 0000.0001) ph-cost call cost_salt
(PID.TID 0000.0001)  MDS_READ_FIELD: opening file: sbar.0000000000.001.001.data
(PID.TID 0000.0001) ph-cost call cost_smrarea
(PID.TID 0000.0001) ph-cost smrarea   0.0000000000E+00  0.0000000000E+00
 --> f_ice     = 0.508667249394659E+12
 --> f_smrarea = 0.000000000000000E+00
 --> f_temp    = 0.000000000000000E+00
 --> f_salt    = 0.000000000000000E+00
 --> f_temp0   = 0.000000000000000E+00
 --> f_salt0   = 0.000000000000000E+00
 --> f_temp0smoo = 0.000000000000000E+00
 --> f_salt0smoo = 0.000000000000000E+00
 --> f_sst     = 0.423904879857667E+04
 --> f_tmi     = 0.000000000000000E+00
 --> f_sss     = 0.000000000000000E+00
 --> f_ssh       = 0.000000000000000E+00
 --> f_tp        = 0.000000000000000E+00
 --> f_ers       = 0.000000000000000E+00
 --> f_gfo       = 0.000000000000000E+00
 --> f_tauu    = 0.000000000000000E+00
 --> f_tauum   = 0.000000000000000E+00
 --> f_tauusmoo = 0.000000000000000E+00
 --> f_tauv    = 0.000000000000000E+00
 --> f_tauvm   = 0.000000000000000E+00
 --> f_tauvsmoo = 0.000000000000000E+00
 --> f_hflux   = 0.000000000000000E+00
 --> f_hfluxm  = 0.000000000000000E+00
 --> f_hfluxmm = 0.000000000000000E+00
 --> f_hfluxsmoo = 0.000000000000000E+00
 --> f_sflux   = 0.000000000000000E+00
 --> f_sfluxm  = 0.000000000000000E+00
 --> f_sfluxmm = 0.000000000000000E+00
 --> f_sfluxsmoo = 0.000000000000000E+00
 --> f_uwind     = 0.000000000000000E+00
 --> f_vwind     = 0.000000000000000E+00
 --> f_atemp     = 0.112500000000000E-07
 --> f_aqh     = 0.000000000000000E+00
 --> f_precip  = 0.000000000000000E+00
 --> f_swflux  = 0.000000000000000E+00
 --> f_swdown  = 0.000000000000000E+00
 --> f_uwindm     = 0.000000000000000E+00
 --> f_vwindm     = 0.000000000000000E+00
 --> f_atempm     = 0.140625000000000E-08
 --> f_aqhm     = 0.000000000000000E+00
 --> f_precipm  = 0.000000000000000E+00
 --> f_swfluxm  = 0.000000000000000E+00
 --> f_swdownm  = 0.000000000000000E+00
 --> f_uwindsmoo     = 0.000000000000000E+00
 --> f_vwindsmoo     = 0.000000000000000E+00
 --> f_atempsmoo     = 0.000000000000000E+00
 --> f_aqhsmoo     = 0.000000000000000E+00
 --> f_precipsmoo  = 0.000000000000000E+00
 --> f_swfluxsmoo  = 0.000000000000000E+00
 --> f_swdownsmoo  = 0.000000000000000E+00
 --> f_atl     = 0.000000000000000E+00
 --> f_ctdt    = 0.000000000000000E+00
 --> f_ctds    = 0.000000000000000E+00
 --> f_ctdtclim= 0.000000000000000E+00
 --> f_ctdsclim= 0.000000000000000E+00
 --> f_xbt     = 0.000000000000000E+00
 --> f_argot   = 0.000000000000000E+00
 --> f_argos   = 0.000000000000000E+00
 --> f_drifter   = 0.000000000000000E+00
 --> f_tdrift  = 0.000000000000000E+00
 --> f_sdrift  = 0.000000000000000E+00
 --> f_wdrift  = 0.000000000000000E+00
 --> f_scatx   = 0.000000000000000E+00
 --> f_scaty   = 0.000000000000000E+00
 --> f_scatxm  = 0.000000000000000E+00
 --> f_scatym  = 0.000000000000000E+00
 --> f_obcsn   = 0.000000000000000E+00
 --> f_obcss   = 0.000000000000000E+00
 --> f_obcsw   = 0.000000000000000E+00
 --> f_obcse   = 0.000000000000000E+00
 --> f_ageos   = 0.000000000000000E+00
 --> f_curmtr  = 0.000000000000000E+00
 --> f_kapgm   = 0.000000000000000E+00
 --> f_diffkr  = 0.000000000000000E+00
 --> f_eddytau = 0.000000000000000E+00
 --> f_hfluxmm2           = 0.000000000000000E+00
 --> f_sfluxmm2           = 0.000000000000000E+00
 --> objf_hmean           = 0.920256461021648E-02
 --> fc               = 0.508667253633708E+12
(PID.TID 0000.0001)  MDS_READ_FIELD: opening file: xx_atemp.0000000000.001.001.data
 grad-res -------------------------------
 grad-res     0    1   12    1    1    1    1    1   0.508667309413E+12 0.508667839666E+12 0.508667253634E+12
 grad-res     0    1    1    4  150    1    1    1   -.689896279861E+06 0.293016081390E+10 0.424824831752E+04
(PID.TID 0000.0001)       precision_grdchk_result ADM     5.08667309412764E+11    -6.89896279860948E+05
 ph-grd  ierr ---------------------------
 ph-grd  ierr =  0, icomp =  4, ichknum =  1
 ph-grd -->hit<--  13 1 1 1
(PID.TID 0000.0001)  MDS_READ_FIELD: opening file: adxx_atemp.0000000000.001.001.data
(PID.TID 0000.0001)  MDS_READ_FIELD: opening file: xx_atemp.0000000000.001.001.data
(PID.TID 0000.0001) 
(PID.TID 0000.0001)  cal_TimeStamp: iter =          0 time =  0.00000000E+00
(PID.TID 0000.0001)                 date =   19790101           0
(PID.TID 0000.0001) 
(PID.TID 0000.0001) // =======================================================
(PID.TID 0000.0001) // Field Model R_low (ini_masks_etc) at iteration          1
(PID.TID 0000.0001) // CMIN =         -4.200000000000000E+03
(PID.TID 0000.0001) // CMAX =         -5.500000000000000E+01
(PID.TID 0000.0001) // CINT =          1.535185185185185E+02
(PID.TID 0000.0001) // SYMBOLS (CMIN->CMAX): -abcdefghijklmnopqrstuvwxyz+
(PID.TID 0000.0001) //                  0.0: .
(PID.TID 0000.0001) // RANGE I (Lo:Hi:Step):(  -2:  23:   1)
(PID.TID 0000.0001) // RANGE J (Lo:Hi:Step):(  19:  -2:  -1)
(PID.TID 0000.0001) // RANGE K (Lo:Hi:Step):(   1:   1:   1)
(PID.TID 0000.0001) // =======================================================
(PID.TID 0000.0001) K =   1
(PID.TID 0000.0001) //                I=7       I=17
(PID.TID 0000.0001) // |--J--|210123456|890123456|890123
(PID.TID 0000.0001) //     19 cc-..........+.zzxmgcc-...
(PID.TID 0000.0001) //     18 jc-.......+zzz..zzsmjc-...
(PID.TID 0000.0001) //     17 wc-........++z+++z+wwc-...
(PID.TID 0000.0001) //     16 ....zyyz................zy
(PID.TID 0000.0001) //     15 ...yxwwuspxyxz.........yxw
(PID.TID 0000.0001) //     14 ....+wwspppsxzz.........+w
(PID.TID 0000.0001) //     13 .......zwsppsyz...........
(PID.TID 0000.0001) //     12 .........+ypswzz+.........
(PID.TID 0000.0001) //     11 ...........+wwy+..........
(PID.TID 0000.0001) //     10 ..........zzzywy+.........
(PID.TID 0000.0001) //      9 ..z.......+zxsmmm+....z...
(PID.TID 0000.0001) //      8 ..s.....zzzxumjjjjuz..s...
(PID.TID 0000.0001) //      7 pmj......z.+zmjggggjpmj...
(PID.TID 0000.0001) //      6 ggg.........zxmjggggggg...
(PID.TID 0000.0001) //      5 ggg..........zzsjgggggg...
(PID.TID 0000.0001) //      4 ccg............zzmgcccg...
(PID.TID 0000.0001) //      3 cc-..........+.zzxmgcc-...
(PID.TID 0000.0001) //      2 jc-.......+zzz..zzsmjc-...
(PID.TID 0000.0001) //      1 wc-........++z+++z+wwc-...
(PID.TID 0000.0001) //      0 ....zyyz................zy
(PID.TID 0000.0001) //     -1 ...yxwwuspxyxz.........yxw
(PID.TID 0000.0001) //     -2 ....+wwspppsxzz.........+w
(PID.TID 0000.0001) // =======================================================
(PID.TID 0000.0001) // END OF FIELD                                          =
(PID.TID 0000.0001) // =======================================================
(PID.TID 0000.0001) 
(PID.TID 0000.0001) // =======================================================
(PID.TID 0000.0001) // Field Model Ro_surf (ini_masks_etc) at iteration          1
(PID.TID 0000.0001) // CMIN =          1.000000000000000E+32
(PID.TID 0000.0001) // CMAX =         -1.000000000000000E+32
(PID.TID 0000.0001) // CINT =          0.000000000000000E+00
(PID.TID 0000.0001) // SYMBOLS (CMIN->CMAX): -abcdefghijklmnopqrstuvwxyz+
(PID.TID 0000.0001) //                  0.0: .
(PID.TID 0000.0001) // RANGE I (Lo:Hi:Step):(  -2:  23:   1)
(PID.TID 0000.0001) // RANGE J (Lo:Hi:Step):(  19:  -2:  -1)
(PID.TID 0000.0001) // RANGE K (Lo:Hi:Step):(   1:   1:   1)
(PID.TID 0000.0001) // =======================================================
(PID.TID 0000.0001) // =======================================================
(PID.TID 0000.0001) // END OF FIELD                                          =
(PID.TID 0000.0001) // =======================================================
(PID.TID 0000.0001) 
(PID.TID 0000.0001) // =======================================================
(PID.TID 0000.0001) // Field hFacC at iteration          1
(PID.TID 0000.0001) // CMIN =          1.000000000000000E+00
(PID.TID 0000.0001) // CMAX =          1.000000000000000E+00
(PID.TID 0000.0001) // CINT =          0.000000000000000E+00
(PID.TID 0000.0001) // SYMBOLS (CMIN->CMAX): -abcdefghijklmnopqrstuvwxyz+
(PID.TID 0000.0001) //                  0.0: .
(PID.TID 0000.0001) // RANGE I (Lo:Hi:Step):(  -2:  23:   1)
(PID.TID 0000.0001) // RANGE J (Lo:Hi:Step):(  19:  -2:  -1)
(PID.TID 0000.0001) // RANGE K (Lo:Hi:Step):(   1:   1:   1)
(PID.TID 0000.0001) // =======================================================
(PID.TID 0000.0001) // =======================================================
(PID.TID 0000.0001) // END OF FIELD                                          =
(PID.TID 0000.0001) // =======================================================
(PID.TID 0000.0001) 
(PID.TID 0000.0001) // =======================================================
(PID.TID 0000.0001) // Field hFacW at iteration          1
(PID.TID 0000.0001) // CMIN =          1.000000000000000E+00
(PID.TID 0000.0001) // CMAX =          1.000000000000000E+00
(PID.TID 0000.0001) // CINT =          0.000000000000000E+00
(PID.TID 0000.0001) // SYMBOLS (CMIN->CMAX): -abcdefghijklmnopqrstuvwxyz+
(PID.TID 0000.0001) //                  0.0: .
(PID.TID 0000.0001) // RANGE I (Lo:Hi:Step):(  -2:  23:   1)
(PID.TID 0000.0001) // RANGE J (Lo:Hi:Step):(  19:  -2:  -1)
(PID.TID 0000.0001) // RANGE K (Lo:Hi:Step):(   1:   1:   1)
(PID.TID 0000.0001) // =======================================================
(PID.TID 0000.0001) // =======================================================
(PID.TID 0000.0001) // END OF FIELD                                          =
(PID.TID 0000.0001) // =======================================================
(PID.TID 0000.0001) 
(PID.TID 0000.0001) // =======================================================
(PID.TID 0000.0001) // Field hFacS at iteration          1
(PID.TID 0000.0001) // CMIN =          1.000000000000000E+00
(PID.TID 0000.0001) // CMAX =          1.000000000000000E+00
(PID.TID 0000.0001) // CINT =          0.000000000000000E+00
(PID.TID 0000.0001) // SYMBOLS (CMIN->CMAX): -abcdefghijklmnopqrstuvwxyz+
(PID.TID 0000.0001) //                  0.0: .
(PID.TID 0000.0001) // RANGE I (Lo:Hi:Step):(  -2:  23:   1)
(PID.TID 0000.0001) // RANGE J (Lo:Hi:Step):(  19:  -2:  -1)
(PID.TID 0000.0001) // RANGE K (Lo:Hi:Step):(   1:   1:   1)
(PID.TID 0000.0001) // =======================================================
(PID.TID 0000.0001) // =======================================================
(PID.TID 0000.0001) // END OF FIELD                                          =
(PID.TID 0000.0001) // =======================================================
(PID.TID 0000.0001) 
(PID.TID 0000.0001) %MON seaicefCori_max              =   1.4210453727344E-04
(PID.TID 0000.0001) %MON seaicefCori_min              =   1.0666243053630E-04
(PID.TID 0000.0001) %MON seaicefCori_mean             =   1.2711058365303E-04
(PID.TID 0000.0001) %MON seaicefCori_sd               =   1.1031533875266E-05
(PID.TID 0000.0001) %MON seaicefCoriG_max             =   1.4151032568025E-04
(PID.TID 0000.0001) %MON seaicefCoriG_min             =   1.0491029349513E-04
(PID.TID 0000.0001) %MON seaicefCoriG_mean            =   1.2591168756569E-04
(PID.TID 0000.0001) %MON seaicefCoriG_sd              =   1.1383815633153E-05
(PID.TID 0000.0001) %MON seaicefCoriCos_max           =   9.9464325599212E-05
(PID.TID 0000.0001) %MON seaicefCoriCos_min           =   3.2807417471054E-05
(PID.TID 0000.0001) %MON seaicefCoriCos_mean          =   6.7585896192312E-05
(PID.TID 0000.0001) %MON seaicefCoriCos_sd            =   2.0576140902612E-05
(PID.TID 0000.0001) INI_CG2D: CG2D normalisation factor =  1.6094939840939192E-04
(PID.TID 0000.0001) 
(PID.TID 0000.0001) // =======================================================
(PID.TID 0000.0001) // Field Initial Temperature at iteration          1
(PID.TID 0000.0001) // CMIN =          9.205863475799561E-01
(PID.TID 0000.0001) // CMAX =          1.333307647705078E+01
(PID.TID 0000.0001) // CINT =          4.597218566470676E-01
(PID.TID 0000.0001) // SYMBOLS (CMIN->CMAX): -abcdefghijklmnopqrstuvwxyz+
(PID.TID 0000.0001) //                  0.0: .
(PID.TID 0000.0001) // RANGE I (Lo:Hi:Step):(   1:  20:   1)
(PID.TID 0000.0001) // RANGE J (Lo:Hi:Step):(  16:   1:  -1)
(PID.TID 0000.0001) // RANGE K (Lo:Hi:Step):(   1:   1:   1)
(PID.TID 0000.0001) // =======================================================
(PID.TID 0000.0001) K =   1
(PID.TID 0000.0001)                I=10      I=20
(PID.TID 0000.0001) |--J--|123456789|123456789|
(PID.TID 0000.0001)     16 .----...............
(PID.TID 0000.0001)     15 aabaaaaaaaa.........
(PID.TID 0000.0001)     14 .ccccccbbbbc........
(PID.TID 0000.0001)     13 ....dddddddd........
(PID.TID 0000.0001)     12 ......dcdddddd......
(PID.TID 0000.0001)     11 ........cccdd.......
(PID.TID 0000.0001)     10 .......bbcdddd......
(PID.TID 0000.0001)      9 .......cdeeffff....j
(PID.TID 0000.0001)      8 .....ccdefgghhggh..k
(PID.TID 0000.0001)      7 ......d.fghiiiiiijkl
(PID.TID 0000.0001)      6 .........ghhijjjkklm
(PID.TID 0000.0001)      5 ..........hhhijklmnn
(PID.TID 0000.0001)      4 ............ghikmopq
(PID.TID 0000.0001)      3 ..........k.hhiknqsu
(PID.TID 0000.0001)      2 .......oonm..ijknqux
(PID.TID 0000.0001)      1 ........qponlkklosw+
(PID.TID 0000.0001) // =======================================================
(PID.TID 0000.0001) // END OF FIELD                                          =
(PID.TID 0000.0001) // =======================================================
(PID.TID 0000.0001) 
(PID.TID 0000.0001) // =======================================================
(PID.TID 0000.0001) // Field Initial Salinity at iteration          1
(PID.TID 0000.0001) // CMIN =          3.012869834899902E+01
(PID.TID 0000.0001) // CMAX =          3.487366104125977E+01
(PID.TID 0000.0001) // CINT =          1.757393589726201E-01
(PID.TID 0000.0001) // SYMBOLS (CMIN->CMAX): -abcdefghijklmnopqrstuvwxyz+
(PID.TID 0000.0001) //                  0.0: .
(PID.TID 0000.0001) // RANGE I (Lo:Hi:Step):(   1:  20:   1)
(PID.TID 0000.0001) // RANGE J (Lo:Hi:Step):(  16:   1:  -1)
(PID.TID 0000.0001) // RANGE K (Lo:Hi:Step):(   1:   1:   1)
(PID.TID 0000.0001) // =======================================================
(PID.TID 0000.0001) K =   1
(PID.TID 0000.0001)                I=10      I=20
(PID.TID 0000.0001) |--J--|123456789|123456789|
(PID.TID 0000.0001)     16 .nnos...............
(PID.TID 0000.0001)     15 lnoppppppol.........
(PID.TID 0000.0001)     14 .nponmllllmn........
(PID.TID 0000.0001)     13 ....ljhijkmo........
(PID.TID 0000.0001)     12 ......ghjlmors......
(PID.TID 0000.0001)     11 ........jmnpr.......
(PID.TID 0000.0001)     10 .......jlnpqrq......
(PID.TID 0000.0001)      9 .......noqsttts....w
(PID.TID 0000.0001)      8 .....jlnpsuvwwutu..x
(PID.TID 0000.0001)      7 ......j.rruwxyxxwxxy
(PID.TID 0000.0001)      6 .........ppruxyyzzzz
(PID.TID 0000.0001)      5 ..........ijoswyzzzz
(PID.TID 0000.0001)      4 ............iotwyzzz
(PID.TID 0000.0001)      3 ..........g.imquwyzz
(PID.TID 0000.0001)      2 .......-bef..knqtvxz
(PID.TID 0000.0001)      1 ........-cegijlosvy+
(PID.TID 0000.0001) // =======================================================
(PID.TID 0000.0001) // END OF FIELD                                          =
(PID.TID 0000.0001) // =======================================================
(PID.TID 0000.0001) 
(PID.TID 0000.0001) Start initial hydrostatic pressure computation
(PID.TID 0000.0001) Pressure is predetermined for buoyancyRelation OCEANIC
(PID.TID 0000.0001) 
(PID.TID 0000.0001)  MDS_READ_FIELD: opening file: xx_theta.0000000000.001.001.data
 ph-ctrl theta0 a   0.
 ph-ctrl theta0 b   0.
(PID.TID 0000.0001)  MDS_READ_FIELD: opening file: xx_salt.0000000000.001.001.data
(PID.TID 0000.0001) // =======================================================
(PID.TID 0000.0001) // Model current state
(PID.TID 0000.0001) // =======================================================
(PID.TID 0000.0001) 
(PID.TID 0000.0001) // =======================================================
(PID.TID 0000.0001) // Begin MONITOR SEAICE statistics
(PID.TID 0000.0001) // =======================================================
(PID.TID 0000.0001) %MON seaice_tsnumber              =                     0
(PID.TID 0000.0001) %MON seaice_time_sec              =   0.0000000000000E+00
(PID.TID 0000.0001) %MON seaice_uice_max              =   0.0000000000000E+00
(PID.TID 0000.0001) %MON seaice_uice_min              =   0.0000000000000E+00
(PID.TID 0000.0001) %MON seaice_uice_mean             =   0.0000000000000E+00
(PID.TID 0000.0001) %MON seaice_uice_sd               =   0.0000000000000E+00
(PID.TID 0000.0001) %MON seaice_uice_del2             =   0.0000000000000E+00
(PID.TID 0000.0001) %MON seaice_vice_max              =   0.0000000000000E+00
(PID.TID 0000.0001) %MON seaice_vice_min              =   0.0000000000000E+00
(PID.TID 0000.0001) %MON seaice_vice_mean             =   0.0000000000000E+00
(PID.TID 0000.0001) %MON seaice_vice_sd               =   0.0000000000000E+00
(PID.TID 0000.0001) %MON seaice_vice_del2             =   0.0000000000000E+00
(PID.TID 0000.0001) %MON seaice_area_max              =   1.0000000000000E+00
(PID.TID 0000.0001) %MON seaice_area_min              =   1.0000000000000E+00
(PID.TID 0000.0001) %MON seaice_area_mean             =   1.0000000000000E+00
(PID.TID 0000.0001) %MON seaice_area_sd               =   0.0000000000000E+00
(PID.TID 0000.0001) %MON seaice_area_del2             =   0.0000000000000E+00
(PID.TID 0000.0001) %MON seaice_heff_max              =   1.0000000000000E+00
(PID.TID 0000.0001) %MON seaice_heff_min              =   1.0000000000000E+00
(PID.TID 0000.0001) %MON seaice_heff_mean             =   1.0000000000000E+00
(PID.TID 0000.0001) %MON seaice_heff_sd               =   0.0000000000000E+00
(PID.TID 0000.0001) %MON seaice_heff_del2             =   0.0000000000000E+00
(PID.TID 0000.0001) %MON seaice_hsnow_max             =   2.0000000298023E-01
(PID.TID 0000.0001) %MON seaice_hsnow_min             =   2.0000000298023E-01
(PID.TID 0000.0001) %MON seaice_hsnow_mean            =   2.0000000298023E-01
(PID.TID 0000.0001) %MON seaice_hsnow_sd              =   5.8286708792821E-16
(PID.TID 0000.0001) %MON seaice_hsnow_del2            =   0.0000000000000E+00
(PID.TID 0000.0001) // =======================================================
(PID.TID 0000.0001) // End MONITOR SEAICE statistics
(PID.TID 0000.0001) // =======================================================
(PID.TID 0000.0001)  MDS_READ_FIELD: opening file: xx_atemp.0000000000.001.001.data
(PID.TID 0000.0001)  MDS_READ_FIELD: opening file: xx_atemp.0000000000.001.001.data
(PID.TID 0000.0001)  MDS_READ_FIELD: opening file: xx_aqh.0000000000.001.001.data
(PID.TID 0000.0001)  MDS_READ_FIELD: opening file: xx_aqh.0000000000.001.001.data
(PID.TID 0000.0001)  MDS_READ_FIELD: opening file: xx_precip.0000000000.001.001.data
(PID.TID 0000.0001)  MDS_READ_FIELD: opening file: xx_precip.0000000000.001.001.data
(PID.TID 0000.0001)  MDS_READ_FIELD: opening file: xx_swdown.0000000000.001.001.data
(PID.TID 0000.0001)  MDS_READ_FIELD: opening file: xx_swdown.0000000000.001.001.data
(PID.TID 0000.0001)  MDS_READ_FIELD: opening file: xx_lwdown.0000000000.001.001.data
(PID.TID 0000.0001)  MDS_READ_FIELD: opening file: xx_lwdown.0000000000.001.001.data
(PID.TID 0000.0001)  MDS_READ_FIELD: opening file: xx_snowprecip.0000000000.001.001.data
(PID.TID 0000.0001)  MDS_READ_FIELD: opening file: xx_snowprecip.0000000000.001.001.data
(PID.TID 0000.0001)  MDS_READ_FIELD: opening file: xx_apressure.0000000000.001.001.data
(PID.TID 0000.0001)  MDS_READ_FIELD: opening file: xx_apressure.0000000000.001.001.data
(PID.TID 0000.0001)  MDS_READ_FIELD: opening file: xx_uwind.0000000000.001.001.data
(PID.TID 0000.0001)  MDS_READ_FIELD: opening file: xx_uwind.0000000000.001.001.data
(PID.TID 0000.0001)  MDS_READ_FIELD: opening file: xx_vwind.0000000000.001.001.data
(PID.TID 0000.0001)  MDS_READ_FIELD: opening file: xx_vwind.0000000000.001.001.data
(PID.TID 0000.0001) // =======================================================
(PID.TID 0000.0001) // Begin MONITOR EXF statistics
(PID.TID 0000.0001) // =======================================================
(PID.TID 0000.0001) %MON exf_tsnumber                 =                     0
(PID.TID 0000.0001) %MON exf_time_sec                 =   0.0000000000000E+00
(PID.TID 0000.0001) %MON exf_ustress_max              =   6.3903775845771E-02
(PID.TID 0000.0001) %MON exf_ustress_min              =  -9.5324050318348E-02
(PID.TID 0000.0001) %MON exf_ustress_mean             =   2.2585161747437E-02
(PID.TID 0000.0001) %MON exf_ustress_sd               =   2.7275779972939E-02
(PID.TID 0000.0001) %MON exf_ustress_del2             =   2.9464928316532E-03
(PID.TID 0000.0001) %MON exf_vstress_max              =   5.4708944127586E-02
(PID.TID 0000.0001) %MON exf_vstress_min              =  -6.2488440618747E-02
(PID.TID 0000.0001) %MON exf_vstress_mean             =  -5.6174743782955E-03
(PID.TID 0000.0001) %MON exf_vstress_sd               =   1.5596129711801E-02
(PID.TID 0000.0001) %MON exf_vstress_del2             =   1.7930354411121E-03
(PID.TID 0000.0001) %MON exf_hflux_max                =   7.3111020636161E+02
(PID.TID 0000.0001) %MON exf_hflux_min                =   1.0991726570245E+02
(PID.TID 0000.0001) %MON exf_hflux_mean               =   2.7655954194256E+02
(PID.TID 0000.0001) %MON exf_hflux_sd                 =   1.5872020146482E+02
(PID.TID 0000.0001) %MON exf_hflux_del2               =   1.9324680413847E+01
(PID.TID 0000.0001) %MON exf_sflux_max                =   5.3473262221640E-08
(PID.TID 0000.0001) %MON exf_sflux_min                =  -6.1385296755754E-08
(PID.TID 0000.0001) %MON exf_sflux_mean               =  -7.3062649385547E-09
(PID.TID 0000.0001) %MON exf_sflux_sd                 =   2.6562207699908E-08
(PID.TID 0000.0001) %MON exf_sflux_del2               =   3.6392857222533E-09
(PID.TID 0000.0001) %MON exf_uwind_max                =   6.4643745422363E+00
(PID.TID 0000.0001) %MON exf_uwind_min                =  -6.8372380733490E+00
(PID.TID 0000.0001) %MON exf_uwind_mean               =   2.7697727336031E+00
(PID.TID 0000.0001) %MON exf_uwind_sd                 =   2.9900402496951E+00
(PID.TID 0000.0001) %MON exf_uwind_del2               =   3.1570994739265E-01
(PID.TID 0000.0001) %MON exf_vwind_max                =   3.9240682125092E+00
(PID.TID 0000.0001) %MON exf_vwind_min                =  -6.0197033882141E+00
(PID.TID 0000.0001) %MON exf_vwind_mean               =  -7.6089868124963E-01
(PID.TID 0000.0001) %MON exf_vwind_sd                 =   1.7293437592941E+00
(PID.TID 0000.0001) %MON exf_vwind_del2               =   1.9333263882436E-01
(PID.TID 0000.0001) %MON exf_wspeed_max               =   7.8832820454477E+00
(PID.TID 0000.0001) %MON exf_wspeed_min               =   4.6035219539401E-01
(PID.TID 0000.0001) %MON exf_wspeed_mean              =   4.1981217095273E+00
(PID.TID 0000.0001) %MON exf_wspeed_sd                =   1.5991724245810E+00
(PID.TID 0000.0001) %MON exf_wspeed_del2              =   3.7693667977018E-01
(PID.TID 0000.0001) %MON exf_atemp_max                =   2.8188281250000E+02
(PID.TID 0000.0001) %MON exf_atemp_min                =   2.3646176910400E+02
(PID.TID 0000.0001) %MON exf_atemp_mean               =   2.6394605878816E+02
(PID.TID 0000.0001) %MON exf_atemp_sd                 =   1.1983418328614E+01
(PID.TID 0000.0001) %MON exf_atemp_del2               =   6.4942242667643E-01
(PID.TID 0000.0001) %MON exf_aqh_max                  =   6.3231729436666E-03
(PID.TID 0000.0001) %MON exf_aqh_min                  =   1.6369274817407E-04
(PID.TID 0000.0001) %MON exf_aqh_mean                 =   2.4803629101886E-03
(PID.TID 0000.0001) %MON exf_aqh_sd                   =   1.4265074770275E-03
(PID.TID 0000.0001) %MON exf_aqh_del2                 =   6.8141780599641E-05
(PID.TID 0000.0001) %MON exf_lwflux_max               =   1.9978966060501E+02
(PID.TID 0000.0001) %MON exf_lwflux_min               =   6.3304595803996E+01
(PID.TID 0000.0001) %MON exf_lwflux_mean              =   1.0410079899302E+02
(PID.TID 0000.0001) %MON exf_lwflux_sd                =   3.6519264181786E+01
(PID.TID 0000.0001) %MON exf_lwflux_del2              =   3.1286635970398E+00
(PID.TID 0000.0001) %MON exf_precip_max               =   1.0498766300771E-07
(PID.TID 0000.0001) %MON exf_precip_min               =   2.7359498694368E-10
(PID.TID 0000.0001) %MON exf_precip_mean              =   3.6390080543085E-08
(PID.TID 0000.0001) %MON exf_precip_sd                =   2.0578148171209E-08
(PID.TID 0000.0001) %MON exf_precip_del2              =   2.5551549857431E-09
(PID.TID 0000.0001) %MON exf_snowprecip_max           =   0.0000000000000E+00
(PID.TID 0000.0001) %MON exf_snowprecip_min           =   0.0000000000000E+00
(PID.TID 0000.0001) %MON exf_snowprecip_mean          =   0.0000000000000E+00
(PID.TID 0000.0001) %MON exf_snowprecip_sd            =   0.0000000000000E+00
(PID.TID 0000.0001) %MON exf_snowprecip_del2          =   0.0000000000000E+00
(PID.TID 0000.0001) %MON exf_swflux_max               =  -8.1205755472183E-02
(PID.TID 0000.0001) %MON exf_swflux_min               =  -6.3973114013672E+01
(PID.TID 0000.0001) %MON exf_swflux_mean              =  -2.6453223022948E+01
(PID.TID 0000.0001) %MON exf_swflux_sd                =   1.9625901079469E+01
(PID.TID 0000.0001) %MON exf_swflux_del2              =   4.7901276555285E-01
(PID.TID 0000.0001) %MON exf_evap_max                 =   5.9797470045733E-08
(PID.TID 0000.0001) %MON exf_evap_min                 =   1.0729148721654E-08
(PID.TID 0000.0001) %MON exf_evap_mean                =   2.9083815604530E-08
(PID.TID 0000.0001) %MON exf_evap_sd                  =   9.2938023197537E-09
(PID.TID 0000.0001) %MON exf_evap_del2                =   2.0154590676424E-09
(PID.TID 0000.0001) %MON exf_swdown_max               =   7.1081237792969E+01
(PID.TID 0000.0001) %MON exf_swdown_min               =   9.0228617191315E-02
(PID.TID 0000.0001) %MON exf_swdown_mean              =   2.9392470025498E+01
(PID.TID 0000.0001) %MON exf_swdown_sd                =   2.1806556754965E+01
(PID.TID 0000.0001) %MON exf_swdown_del2              =   5.3223640616983E-01
(PID.TID 0000.0001) %MON exf_lwdown_max               =   3.0567971801758E+02
(PID.TID 0000.0001) %MON exf_lwdown_min               =   1.1599769210815E+02
(PID.TID 0000.0001) %MON exf_lwdown_mean              =   2.2594931695913E+02
(PID.TID 0000.0001) %MON exf_lwdown_sd                =   4.6277429231296E+01
(PID.TID 0000.0001) %MON exf_lwdown_del2              =   3.2438212966919E+00
(PID.TID 0000.0001) %MON exf_apressure_max            =   0.0000000000000E+00
(PID.TID 0000.0001) %MON exf_apressure_min            =   0.0000000000000E+00
(PID.TID 0000.0001) %MON exf_apressure_mean           =   0.0000000000000E+00
(PID.TID 0000.0001) %MON exf_apressure_sd             =   0.0000000000000E+00
(PID.TID 0000.0001) %MON exf_apressure_del2           =   0.0000000000000E+00
(PID.TID 0000.0001) %MON exf_runoff_max               =   0.0000000000000E+00
(PID.TID 0000.0001) %MON exf_runoff_min               =   0.0000000000000E+00
(PID.TID 0000.0001) %MON exf_runoff_mean              =   0.0000000000000E+00
(PID.TID 0000.0001) %MON exf_runoff_sd                =   0.0000000000000E+00
(PID.TID 0000.0001) %MON exf_runoff_del2              =   0.0000000000000E+00
(PID.TID 0000.0001) %MON exf_climsst_max              =   0.0000000000000E+00
(PID.TID 0000.0001) %MON exf_climsst_min              =   0.0000000000000E+00
(PID.TID 0000.0001) %MON exf_climsst_mean             =   0.0000000000000E+00
(PID.TID 0000.0001) %MON exf_climsst_sd               =   0.0000000000000E+00
(PID.TID 0000.0001) %MON exf_climsst_del2             =   0.0000000000000E+00
(PID.TID 0000.0001) %MON exf_climsss_max              =   3.5040330886841E+01
(PID.TID 0000.0001) %MON exf_climsss_min              =   3.0666313171387E+01
(PID.TID 0000.0001) %MON exf_climsss_mean             =   3.3459319600989E+01
(PID.TID 0000.0001) %MON exf_climsss_sd               =   1.0319548925494E+00
(PID.TID 0000.0001) %MON exf_climsss_del2             =   1.0019396146139E-01
(PID.TID 0000.0001) // =======================================================
(PID.TID 0000.0001) // End MONITOR EXF statistics
(PID.TID 0000.0001) // =======================================================
 ph-ice B  0  0.  0.  0.
 ph-ice C  0  5.30354909E+10
 cg2d: Sum(rhs),rhsMax =   1.05818132034585E-15  9.93037467350620E-01
(PID.TID 0000.0001) // =======================================================
(PID.TID 0000.0001) // Begin MONITOR SEAICE statistics
(PID.TID 0000.0001) // =======================================================
(PID.TID 0000.0001) %MON seaice_tsnumber              =                     1
(PID.TID 0000.0001) %MON seaice_time_sec              =   3.6000000000000E+03
(PID.TID 0000.0001) %MON seaice_uice_max              =   1.1830188588838E-01
(PID.TID 0000.0001) %MON seaice_uice_min              =  -3.6947667601810E-02
(PID.TID 0000.0001) %MON seaice_uice_mean             =   4.6351011395841E-02
(PID.TID 0000.0001) %MON seaice_uice_sd               =   4.4551623876367E-02
(PID.TID 0000.0001) %MON seaice_uice_del2             =   2.6893939150909E-03
(PID.TID 0000.0001) %MON seaice_vice_max              =   3.8048078875392E-02
(PID.TID 0000.0001) %MON seaice_vice_min              =  -7.2208311040469E-02
(PID.TID 0000.0001) %MON seaice_vice_mean             =  -1.7212953413442E-02
(PID.TID 0000.0001) %MON seaice_vice_sd               =   2.7498420195410E-02
(PID.TID 0000.0001) %MON seaice_vice_del2             =   2.2712992187913E-03
(PID.TID 0000.0001) %MON seaice_area_max              =   1.0000000000000E+00
(PID.TID 0000.0001) %MON seaice_area_min              =   0.0000000000000E+00
(PID.TID 0000.0001) %MON seaice_area_mean             =   6.3240413512230E-01
(PID.TID 0000.0001) %MON seaice_area_sd               =   4.5166867213941E-01
(PID.TID 0000.0001) %MON seaice_area_del2             =   4.7454785592776E-02
(PID.TID 0000.0001) %MON seaice_heff_max              =   6.0076635272005E-01
(PID.TID 0000.0001) %MON seaice_heff_min              =   0.0000000000000E+00
(PID.TID 0000.0001) %MON seaice_heff_mean             =   1.4887451420725E-01
(PID.TID 0000.0001) %MON seaice_heff_sd               =   1.8287366827108E-01
(PID.TID 0000.0001) %MON seaice_heff_del2             =   1.0146605917024E-02
(PID.TID 0000.0001) %MON seaice_hsnow_max             =   2.0078474686707E-01
(PID.TID 0000.0001) %MON seaice_hsnow_min             =   0.0000000000000E+00
(PID.TID 0000.0001) %MON seaice_hsnow_mean            =   1.1848697056338E-01
(PID.TID 0000.0001) %MON seaice_hsnow_sd              =   9.6623972770983E-02
(PID.TID 0000.0001) %MON seaice_hsnow_del2            =   6.2688952170602E-03
(PID.TID 0000.0001) // =======================================================
(PID.TID 0000.0001) // End MONITOR SEAICE statistics
(PID.TID 0000.0001) // =======================================================
(PID.TID 0000.0001) // =======================================================
(PID.TID 0000.0001) // Begin MONITOR EXF statistics
(PID.TID 0000.0001) // =======================================================
(PID.TID 0000.0001) %MON exf_tsnumber                 =                     1
(PID.TID 0000.0001) %MON exf_time_sec                 =   3.6000000000000E+03
(PID.TID 0000.0001) %MON exf_ustress_max              =   5.2215336216899E-02
(PID.TID 0000.0001) %MON exf_ustress_min              =  -9.3781516255246E-02
(PID.TID 0000.0001) %MON exf_ustress_mean             =   1.7908662351590E-02
(PID.TID 0000.0001) %MON exf_ustress_sd               =   2.3677824306557E-02
(PID.TID 0000.0001) %MON exf_ustress_del2             =   2.8185945121624E-03
(PID.TID 0000.0001) %MON exf_vstress_max              =   5.3823846971061E-02
(PID.TID 0000.0001) %MON exf_vstress_min              =  -5.8521115502029E-02
(PID.TID 0000.0001) %MON exf_vstress_mean             =  -5.4709262205398E-03
(PID.TID 0000.0001) %MON exf_vstress_sd               =   1.4440701972707E-02
(PID.TID 0000.0001) %MON exf_vstress_del2             =   1.6942466375470E-03
(PID.TID 0000.0001) %MON exf_hflux_max                =   6.2467472133264E+02
(PID.TID 0000.0001) %MON exf_hflux_min                =  -5.4116825759641E+01
(PID.TID 0000.0001) %MON exf_hflux_mean               =   1.4693364228121E+02
(PID.TID 0000.0001) %MON exf_hflux_sd                 =   1.8156699403995E+02
(PID.TID 0000.0001) %MON exf_hflux_del2               =   1.6567545529115E+01
(PID.TID 0000.0001) %MON exf_sflux_max                =   3.9008935708334E-08
(PID.TID 0000.0001) %MON exf_sflux_min                =  -8.8902774357601E-08
(PID.TID 0000.0001) %MON exf_sflux_mean               =  -2.5876940896479E-08
(PID.TID 0000.0001) %MON exf_sflux_sd                 =   3.0537598494793E-08
(PID.TID 0000.0001) %MON exf_sflux_del2               =   3.1605977463583E-09
(PID.TID 0000.0001) %MON exf_uwind_max                =   6.4648819946852E+00
(PID.TID 0000.0001) %MON exf_uwind_min                =  -6.8372648550513E+00
(PID.TID 0000.0001) %MON exf_uwind_mean               =   2.7698802859476E+00
(PID.TID 0000.0001) %MON exf_uwind_sd                 =   2.9903162155877E+00
(PID.TID 0000.0001) %MON exf_uwind_del2               =   3.1571785161521E-01
(PID.TID 0000.0001) %MON exf_vwind_max                =   3.9240983933048E+00
(PID.TID 0000.0001) %MON exf_vwind_min                =  -6.0187974783892E+00
(PID.TID 0000.0001) %MON exf_vwind_mean               =  -7.6028090815952E-01
(PID.TID 0000.0001) %MON exf_vwind_sd                 =   1.7294518007626E+00
(PID.TID 0000.0001) %MON exf_vwind_del2               =   1.9332576748242E-01
(PID.TID 0000.0001) %MON exf_wspeed_max               =   7.8833202965791E+00
(PID.TID 0000.0001) %MON exf_wspeed_min               =   4.6010935417159E-01
(PID.TID 0000.0001) %MON exf_wspeed_mean              =   4.1982241536133E+00
(PID.TID 0000.0001) %MON exf_wspeed_sd                =   1.5994287774633E+00
(PID.TID 0000.0001) %MON exf_wspeed_del2              =   3.7699000842292E-01
(PID.TID 0000.0001) %MON exf_atemp_max                =   2.8188110034713E+02
(PID.TID 0000.0001) %MON exf_atemp_min                =   2.3645730413635E+02
(PID.TID 0000.0001) %MON exf_atemp_mean               =   2.6394141469886E+02
(PID.TID 0000.0001) %MON exf_atemp_sd                 =   1.1984878858000E+01
(PID.TID 0000.0001) %MON exf_atemp_del2               =   6.4944176100665E-01
(PID.TID 0000.0001) %MON exf_aqh_max                  =   6.3224764028055E-03
(PID.TID 0000.0001) %MON exf_aqh_min                  =   1.6359864467567E-04
(PID.TID 0000.0001) %MON exf_aqh_mean                 =   2.4798025537840E-03
(PID.TID 0000.0001) %MON exf_aqh_sd                   =   1.4264043737180E-03
(PID.TID 0000.0001) %MON exf_aqh_del2                 =   6.8128113038494E-05
(PID.TID 0000.0001) %MON exf_lwflux_max               =   1.8380784776361E+02
(PID.TID 0000.0001) %MON exf_lwflux_min               =   2.6472644798215E+01
(PID.TID 0000.0001) %MON exf_lwflux_mean              =   7.5350572632925E+01
(PID.TID 0000.0001) %MON exf_lwflux_sd                =   4.3134595524386E+01
(PID.TID 0000.0001) %MON exf_lwflux_del2              =   3.2390977067912E+00
(PID.TID 0000.0001) %MON exf_precip_max               =   1.0498904445033E-07
(PID.TID 0000.0001) %MON exf_precip_min               =   2.7346106047101E-10
(PID.TID 0000.0001) %MON exf_precip_mean              =   3.6390069699050E-08
(PID.TID 0000.0001) %MON exf_precip_sd                =   2.0578598603627E-08
(PID.TID 0000.0001) %MON exf_precip_del2              =   2.5556826789328E-09
(PID.TID 0000.0001) %MON exf_snowprecip_max           =   0.0000000000000E+00
(PID.TID 0000.0001) %MON exf_snowprecip_min           =   0.0000000000000E+00
(PID.TID 0000.0001) %MON exf_snowprecip_mean          =   0.0000000000000E+00
(PID.TID 0000.0001) %MON exf_snowprecip_sd            =   0.0000000000000E+00
(PID.TID 0000.0001) %MON exf_snowprecip_del2          =   0.0000000000000E+00
(PID.TID 0000.0001) %MON exf_swflux_max               =  -8.1206038349965E-02
(PID.TID 0000.0001) %MON exf_swflux_min               =  -6.3991984364244E+01
(PID.TID 0000.0001) %MON exf_swflux_mean              =  -2.6463755238823E+01
(PID.TID 0000.0001) %MON exf_swflux_sd                =   1.9629736696482E+01
(PID.TID 0000.0001) %MON exf_swflux_del2              =   4.7911963949881E-01
(PID.TID 0000.0001) %MON exf_evap_max                 =   4.5332480821497E-08
(PID.TID 0000.0001) %MON exf_evap_min                 =  -4.7524365011618E-09
(PID.TID 0000.0001) %MON exf_evap_mean                =   1.0513128802572E-08
(PID.TID 0000.0001) %MON exf_evap_sd                  =   1.1274583181398E-08
(PID.TID 0000.0001) %MON exf_evap_del2                =   1.3716110068495E-09
(PID.TID 0000.0001) %MON exf_swdown_max               =   7.1102204849160E+01
(PID.TID 0000.0001) %MON exf_swdown_min               =   9.0228931499961E-02
(PID.TID 0000.0001) %MON exf_swdown_mean              =   2.9404172487581E+01
(PID.TID 0000.0001) %MON exf_swdown_sd                =   2.1810818551646E+01
(PID.TID 0000.0001) %MON exf_swdown_del2              =   5.3235515499868E-01
(PID.TID 0000.0001) %MON exf_lwdown_max               =   3.0567089193375E+02
(PID.TID 0000.0001) %MON exf_lwdown_min               =   1.1598258522951E+02
(PID.TID 0000.0001) %MON exf_lwdown_mean              =   2.2593360963007E+02
(PID.TID 0000.0001) %MON exf_lwdown_sd                =   4.6281398610271E+01
(PID.TID 0000.0001) %MON exf_lwdown_del2              =   3.2438329367646E+00
(PID.TID 0000.0001) %MON exf_apressure_max            =   0.0000000000000E+00
(PID.TID 0000.0001) %MON exf_apressure_min            =   0.0000000000000E+00
(PID.TID 0000.0001) %MON exf_apressure_mean           =   0.0000000000000E+00
(PID.TID 0000.0001) %MON exf_apressure_sd             =   0.0000000000000E+00
(PID.TID 0000.0001) %MON exf_apressure_del2           =   0.0000000000000E+00
(PID.TID 0000.0001) %MON exf_runoff_max               =   0.0000000000000E+00
(PID.TID 0000.0001) %MON exf_runoff_min               =   0.0000000000000E+00
(PID.TID 0000.0001) %MON exf_runoff_mean              =   0.0000000000000E+00
(PID.TID 0000.0001) %MON exf_runoff_sd                =   0.0000000000000E+00
(PID.TID 0000.0001) %MON exf_runoff_del2              =   0.0000000000000E+00
(PID.TID 0000.0001) %MON exf_climsst_max              =   0.0000000000000E+00
(PID.TID 0000.0001) %MON exf_climsst_min              =   0.0000000000000E+00
(PID.TID 0000.0001) %MON exf_climsst_mean             =   0.0000000000000E+00
(PID.TID 0000.0001) %MON exf_climsst_sd               =   0.0000000000000E+00
(PID.TID 0000.0001) %MON exf_climsst_del2             =   0.0000000000000E+00
(PID.TID 0000.0001) %MON exf_climsss_max              =   3.5040515633880E+01
(PID.TID 0000.0001) %MON exf_climsss_min              =   3.0667072499385E+01
(PID.TID 0000.0001) %MON exf_climsss_mean             =   3.3459840934468E+01
(PID.TID 0000.0001) %MON exf_climsss_sd               =   1.0318832207269E+00
(PID.TID 0000.0001) %MON exf_climsss_del2             =   1.0017673217099E-01
(PID.TID 0000.0001) // =======================================================
(PID.TID 0000.0001) // End MONITOR EXF statistics
(PID.TID 0000.0001) // =======================================================
 ph-ice B  1  0.  0.  0.
 ph-ice C  1  1.03662084E+11
 cg2d: Sum(rhs),rhsMax =   9.71448865794144E-10  1.19254195625089E+00
(PID.TID 0000.0001) // =======================================================
(PID.TID 0000.0001) // Begin MONITOR SEAICE statistics
(PID.TID 0000.0001) // =======================================================
(PID.TID 0000.0001) %MON seaice_tsnumber              =                     2
(PID.TID 0000.0001) %MON seaice_time_sec              =   7.2000000000000E+03
(PID.TID 0000.0001) %MON seaice_uice_max              =   1.5575757103641E-01
(PID.TID 0000.0001) %MON seaice_uice_min              =  -8.0942741430966E-02
(PID.TID 0000.0001) %MON seaice_uice_mean             =   6.5168649670673E-02
(PID.TID 0000.0001) %MON seaice_uice_sd               =   6.1631642983798E-02
(PID.TID 0000.0001) %MON seaice_uice_del2             =   6.8706904471493E-03
(PID.TID 0000.0001) %MON seaice_vice_max              =   7.0616929217888E-02
(PID.TID 0000.0001) %MON seaice_vice_min              =  -1.3662299947234E-01
(PID.TID 0000.0001) %MON seaice_vice_mean             =  -2.1829812694533E-02
(PID.TID 0000.0001) %MON seaice_vice_sd               =   4.1312329511895E-02
(PID.TID 0000.0001) %MON seaice_vice_del2             =   5.3521934538547E-03
(PID.TID 0000.0001) %MON seaice_area_max              =   1.0000000000000E+00
(PID.TID 0000.0001) %MON seaice_area_min              =   0.0000000000000E+00
(PID.TID 0000.0001) %MON seaice_area_mean             =   6.2511450721304E-01
(PID.TID 0000.0001) %MON seaice_area_sd               =   4.5918078619803E-01
(PID.TID 0000.0001) %MON seaice_area_del2             =   5.3309134761288E-02
(PID.TID 0000.0001) %MON seaice_heff_max              =   5.5572638142240E-01
(PID.TID 0000.0001) %MON seaice_heff_min              =   0.0000000000000E+00
(PID.TID 0000.0001) %MON seaice_heff_mean             =   1.4211256277048E-01
(PID.TID 0000.0001) %MON seaice_heff_sd               =   1.7471336183011E-01
(PID.TID 0000.0001) %MON seaice_heff_del2             =   1.3300800077314E-02
(PID.TID 0000.0001) %MON seaice_hsnow_max             =   2.0156957952176E-01
(PID.TID 0000.0001) %MON seaice_hsnow_min             =   0.0000000000000E+00
(PID.TID 0000.0001) %MON seaice_hsnow_mean            =   1.1798259565184E-01
(PID.TID 0000.0001) %MON seaice_hsnow_sd              =   9.6675387962263E-02
(PID.TID 0000.0001) %MON seaice_hsnow_del2            =   6.3372971187470E-03
(PID.TID 0000.0001) // =======================================================
(PID.TID 0000.0001) // End MONITOR SEAICE statistics
(PID.TID 0000.0001) // =======================================================
(PID.TID 0000.0001) // =======================================================
(PID.TID 0000.0001) // Begin MONITOR EXF statistics
(PID.TID 0000.0001) // =======================================================
(PID.TID 0000.0001) %MON exf_tsnumber                 =                     2
(PID.TID 0000.0001) %MON exf_time_sec                 =   7.2000000000000E+03
(PID.TID 0000.0001) %MON exf_ustress_max              =   5.2234389551241E-02
(PID.TID 0000.0001) %MON exf_ustress_min              =  -9.3783873525021E-02
(PID.TID 0000.0001) %MON exf_ustress_mean             =   1.7912600431306E-02
(PID.TID 0000.0001) %MON exf_ustress_sd               =   2.3689566491243E-02
(PID.TID 0000.0001) %MON exf_ustress_del2             =   2.8175390184118E-03
(PID.TID 0000.0001) %MON exf_vstress_max              =   5.3825403016462E-02
(PID.TID 0000.0001) %MON exf_vstress_min              =  -5.8501907463670E-02
(PID.TID 0000.0001) %MON exf_vstress_mean             =  -5.4571899555505E-03
(PID.TID 0000.0001) %MON exf_vstress_sd               =   1.4439148469373E-02
(PID.TID 0000.0001) %MON exf_vstress_del2             =   1.6937326092935E-03
(PID.TID 0000.0001) %MON exf_hflux_max                =   6.2473671698450E+02
(PID.TID 0000.0001) %MON exf_hflux_min                =  -5.1856944043789E+01
(PID.TID 0000.0001) %MON exf_hflux_mean               =   1.4603891447312E+02
(PID.TID 0000.0001) %MON exf_hflux_sd                 =   1.8006279033224E+02
(PID.TID 0000.0001) %MON exf_hflux_del2               =   1.6304062432457E+01
(PID.TID 0000.0001) %MON exf_sflux_max                =   3.9010172880204E-08
(PID.TID 0000.0001) %MON exf_sflux_min                =  -8.8920778732677E-08
(PID.TID 0000.0001) %MON exf_sflux_mean               =  -2.5980919709898E-08
(PID.TID 0000.0001) %MON exf_sflux_sd                 =   3.0374070367518E-08
(PID.TID 0000.0001) %MON exf_sflux_del2               =   3.1602147635532E-09
(PID.TID 0000.0001) %MON exf_uwind_max                =   6.4653894471340E+00
(PID.TID 0000.0001) %MON exf_uwind_min                =  -6.8372916367536E+00
(PID.TID 0000.0001) %MON exf_uwind_mean               =   2.7699878382920E+00
(PID.TID 0000.0001) %MON exf_uwind_sd                 =   2.9905922217476E+00
(PID.TID 0000.0001) %MON exf_uwind_del2               =   3.1572575583776E-01
(PID.TID 0000.0001) %MON exf_vwind_max                =   3.9241285741003E+00
(PID.TID 0000.0001) %MON exf_vwind_min                =  -6.0178915685643E+00
(PID.TID 0000.0001) %MON exf_vwind_mean               =  -7.5966313506940E-01
(PID.TID 0000.0001) %MON exf_vwind_sd                 =   1.7295599554900E+00
(PID.TID 0000.0001) %MON exf_vwind_del2               =   1.9331889614049E-01
(PID.TID 0000.0001) %MON exf_wspeed_max               =   7.8833585477315E+00
(PID.TID 0000.0001) %MON exf_wspeed_min               =   4.5986651533145E-01
(PID.TID 0000.0001) %MON exf_wspeed_mean              =   4.1983267266652E+00
(PID.TID 0000.0001) %MON exf_wspeed_sd                =   1.5996852426804E+00
(PID.TID 0000.0001) %MON exf_wspeed_del2              =   3.7704333058266E-01
(PID.TID 0000.0001) %MON exf_atemp_max                =   2.8187938819427E+02
(PID.TID 0000.0001) %MON exf_atemp_min                =   2.3645283916869E+02
(PID.TID 0000.0001) %MON exf_atemp_mean               =   2.6393677060956E+02
(PID.TID 0000.0001) %MON exf_atemp_sd                 =   1.1986339875198E+01
(PID.TID 0000.0001) %MON exf_atemp_del2               =   6.4946109533687E-01
(PID.TID 0000.0001) %MON exf_aqh_max                  =   6.3217798619445E-03
(PID.TID 0000.0001) %MON exf_aqh_min                  =   1.6350454117726E-04
(PID.TID 0000.0001) %MON exf_aqh_mean                 =   2.4792421973794E-03
(PID.TID 0000.0001) %MON exf_aqh_sd                   =   1.4263013062694E-03
(PID.TID 0000.0001) %MON exf_aqh_del2                 =   6.8114445477348E-05
(PID.TID 0000.0001) %MON exf_lwflux_max               =   1.8153743597504E+02
(PID.TID 0000.0001) %MON exf_lwflux_min               =   2.6999313161451E+01
(PID.TID 0000.0001) %MON exf_lwflux_mean              =   7.5148003037963E+01
(PID.TID 0000.0001) %MON exf_lwflux_sd                =   4.2803183324108E+01
(PID.TID 0000.0001) %MON exf_lwflux_del2              =   3.2353096168539E+00
(PID.TID 0000.0001) %MON exf_precip_max               =   1.0499042589295E-07
(PID.TID 0000.0001) %MON exf_precip_min               =   2.7332713399833E-10
(PID.TID 0000.0001) %MON exf_precip_mean              =   3.6390058855016E-08
(PID.TID 0000.0001) %MON exf_precip_sd                =   2.0579049691733E-08
(PID.TID 0000.0001) %MON exf_precip_del2              =   2.5562103721225E-09
(PID.TID 0000.0001) %MON exf_snowprecip_max           =   0.0000000000000E+00
(PID.TID 0000.0001) %MON exf_snowprecip_min           =   0.0000000000000E+00
(PID.TID 0000.0001) %MON exf_snowprecip_mean          =   0.0000000000000E+00
(PID.TID 0000.0001) %MON exf_snowprecip_sd            =   0.0000000000000E+00
(PID.TID 0000.0001) %MON exf_snowprecip_del2          =   0.0000000000000E+00
(PID.TID 0000.0001) %MON exf_swflux_max               =  -8.1206321227746E-02
(PID.TID 0000.0001) %MON exf_swflux_min               =  -6.4010854714816E+01
(PID.TID 0000.0001) %MON exf_swflux_mean              =  -2.6474287454698E+01
(PID.TID 0000.0001) %MON exf_swflux_sd                =   1.9633572905820E+01
(PID.TID 0000.0001) %MON exf_swflux_del2              =   4.7922651344477E-01
(PID.TID 0000.0001) %MON exf_evap_max                 =   4.5333055282436E-08
(PID.TID 0000.0001) %MON exf_evap_min                 =  -4.3262573270113E-09
(PID.TID 0000.0001) %MON exf_evap_mean                =   1.0409139145118E-08
(PID.TID 0000.0001) %MON exf_evap_sd                  =   1.1101640414918E-08
(PID.TID 0000.0001) %MON exf_evap_del2                =   1.3339356630847E-09
(PID.TID 0000.0001) %MON exf_swdown_max               =   7.1123171905351E+01
(PID.TID 0000.0001) %MON exf_swdown_min               =   9.0229245808607E-02
(PID.TID 0000.0001) %MON exf_swdown_mean              =   2.9415874949665E+01
(PID.TID 0000.0001) %MON exf_swdown_sd                =   2.1815081006466E+01
(PID.TID 0000.0001) %MON exf_swdown_del2              =   5.3247390382752E-01
(PID.TID 0000.0001) %MON exf_lwdown_max               =   3.0566206584993E+02
(PID.TID 0000.0001) %MON exf_lwdown_min               =   1.1596747835086E+02
(PID.TID 0000.0001) %MON exf_lwdown_mean              =   2.2591790230100E+02
(PID.TID 0000.0001) %MON exf_lwdown_sd                =   4.6285369157136E+01
(PID.TID 0000.0001) %MON exf_lwdown_del2              =   3.2438445768374E+00
(PID.TID 0000.0001) %MON exf_apressure_max            =   0.0000000000000E+00
(PID.TID 0000.0001) %MON exf_apressure_min            =   0.0000000000000E+00
(PID.TID 0000.0001) %MON exf_apressure_mean           =   0.0000000000000E+00
(PID.TID 0000.0001) %MON exf_apressure_sd             =   0.0000000000000E+00
(PID.TID 0000.0001) %MON exf_apressure_del2           =   0.0000000000000E+00
(PID.TID 0000.0001) %MON exf_runoff_max               =   0.0000000000000E+00
(PID.TID 0000.0001) %MON exf_runoff_min               =   0.0000000000000E+00
(PID.TID 0000.0001) %MON exf_runoff_mean              =   0.0000000000000E+00
(PID.TID 0000.0001) %MON exf_runoff_sd                =   0.0000000000000E+00
(PID.TID 0000.0001) %MON exf_runoff_del2              =   0.0000000000000E+00
(PID.TID 0000.0001) %MON exf_climsst_max              =   0.0000000000000E+00
(PID.TID 0000.0001) %MON exf_climsst_min              =   0.0000000000000E+00
(PID.TID 0000.0001) %MON exf_climsst_mean             =   0.0000000000000E+00
(PID.TID 0000.0001) %MON exf_climsst_sd               =   0.0000000000000E+00
(PID.TID 0000.0001) %MON exf_climsst_del2             =   0.0000000000000E+00
(PID.TID 0000.0001) %MON exf_climsss_max              =   3.5040700380919E+01
(PID.TID 0000.0001) %MON exf_climsss_min              =   3.0667831827383E+01
(PID.TID 0000.0001) %MON exf_climsss_mean             =   3.3460362267948E+01
(PID.TID 0000.0001) %MON exf_climsss_sd               =   1.0318117788237E+00
(PID.TID 0000.0001) %MON exf_climsss_del2             =   1.0015950288060E-01
(PID.TID 0000.0001) // =======================================================
(PID.TID 0000.0001) // End MONITOR EXF statistics
(PID.TID 0000.0001) // =======================================================
 ph-ice B  2  0.  0.  0.
 ph-ice C  2  1.54286126E+11
 cg2d: Sum(rhs),rhsMax =  -4.69101320288434E-10  1.21345933317021E+00
(PID.TID 0000.0001) // =======================================================
(PID.TID 0000.0001) // Begin MONITOR SEAICE statistics
(PID.TID 0000.0001) // =======================================================
(PID.TID 0000.0001) %MON seaice_tsnumber              =                     3
(PID.TID 0000.0001) %MON seaice_time_sec              =   1.0800000000000E+04
(PID.TID 0000.0001) %MON seaice_uice_max              =   1.7677554872737E-01
(PID.TID 0000.0001) %MON seaice_uice_min              =  -9.9473388719801E-02
(PID.TID 0000.0001) %MON seaice_uice_mean             =   7.5385000891992E-02
(PID.TID 0000.0001) %MON seaice_uice_sd               =   7.1157133104752E-02
(PID.TID 0000.0001) %MON seaice_uice_del2             =   8.3170545671289E-03
(PID.TID 0000.0001) %MON seaice_vice_max              =   8.9019953564428E-02
(PID.TID 0000.0001) %MON seaice_vice_min              =  -1.7696029804001E-01
(PID.TID 0000.0001) %MON seaice_vice_mean             =  -2.9256776350389E-02
(PID.TID 0000.0001) %MON seaice_vice_sd               =   5.2264404290058E-02
(PID.TID 0000.0001) %MON seaice_vice_del2             =   6.1178195298036E-03
(PID.TID 0000.0001) %MON seaice_area_max              =   1.0000000000000E+00
(PID.TID 0000.0001) %MON seaice_area_min              =   0.0000000000000E+00
(PID.TID 0000.0001) %MON seaice_area_mean             =   6.2473160646699E-01
(PID.TID 0000.0001) %MON seaice_area_sd               =   4.5913423191055E-01
(PID.TID 0000.0001) %MON seaice_area_del2             =   5.3480646292041E-02
(PID.TID 0000.0001) %MON seaice_heff_max              =   5.5368221576291E-01
(PID.TID 0000.0001) %MON seaice_heff_min              =   0.0000000000000E+00
(PID.TID 0000.0001) %MON seaice_heff_mean             =   1.4210539861878E-01
(PID.TID 0000.0001) %MON seaice_heff_sd               =   1.7434508668460E-01
(PID.TID 0000.0001) %MON seaice_heff_del2             =   1.3231250049283E-02
(PID.TID 0000.0001) %MON seaice_hsnow_max             =   2.0235454638389E-01
(PID.TID 0000.0001) %MON seaice_hsnow_min             =   0.0000000000000E+00
(PID.TID 0000.0001) %MON seaice_hsnow_mean            =   1.1801725658723E-01
(PID.TID 0000.0001) %MON seaice_hsnow_sd              =   9.6786605530350E-02
(PID.TID 0000.0001) %MON seaice_hsnow_del2            =   6.3531464967005E-03
(PID.TID 0000.0001) // =======================================================
(PID.TID 0000.0001) // End MONITOR SEAICE statistics
(PID.TID 0000.0001) // =======================================================
(PID.TID 0000.0001) // =======================================================
(PID.TID 0000.0001) // Begin MONITOR EXF statistics
(PID.TID 0000.0001) // =======================================================
(PID.TID 0000.0001) %MON exf_tsnumber                 =                     3
(PID.TID 0000.0001) %MON exf_time_sec                 =   1.0800000000000E+04
(PID.TID 0000.0001) %MON exf_ustress_max              =   5.2220278364570E-02
(PID.TID 0000.0001) %MON exf_ustress_min              =  -9.3786644941843E-02
(PID.TID 0000.0001) %MON exf_ustress_mean             =   1.7925093376974E-02
(PID.TID 0000.0001) %MON exf_ustress_sd               =   2.3700143319335E-02
(PID.TID 0000.0001) %MON exf_ustress_del2             =   2.8158746957883E-03
(PID.TID 0000.0001) %MON exf_vstress_max              =   5.3827196762903E-02
(PID.TID 0000.0001) %MON exf_vstress_min              =  -5.8480358160304E-02
(PID.TID 0000.0001) %MON exf_vstress_mean             =  -5.4532186757203E-03
(PID.TID 0000.0001) %MON exf_vstress_sd               =   1.4440792225009E-02
(PID.TID 0000.0001) %MON exf_vstress_del2             =   1.6929393308207E-03
(PID.TID 0000.0001) %MON exf_hflux_max                =   6.2482499785037E+02
(PID.TID 0000.0001) %MON exf_hflux_min                =  -5.1652096229852E+01
(PID.TID 0000.0001) %MON exf_hflux_mean               =   1.4608870428026E+02
(PID.TID 0000.0001) %MON exf_hflux_sd                 =   1.8003234135389E+02
(PID.TID 0000.0001) %MON exf_hflux_del2               =   1.6307603299314E+01
(PID.TID 0000.0001) %MON exf_sflux_max                =   3.9014761130189E-08
(PID.TID 0000.0001) %MON exf_sflux_min                =  -8.8949891199071E-08
(PID.TID 0000.0001) %MON exf_sflux_mean               =  -2.5974537374793E-08
(PID.TID 0000.0001) %MON exf_sflux_sd                 =   3.0366721069209E-08
(PID.TID 0000.0001) %MON exf_sflux_del2               =   3.1622834922439E-09
(PID.TID 0000.0001) %MON exf_uwind_max                =   6.4658968995829E+00
(PID.TID 0000.0001) %MON exf_uwind_min                =  -6.8373184184559E+00
(PID.TID 0000.0001) %MON exf_uwind_mean               =   2.7700953906364E+00
(PID.TID 0000.0001) %MON exf_uwind_sd                 =   2.9908682681638E+00
(PID.TID 0000.0001) %MON exf_uwind_del2               =   3.1573366006031E-01
(PID.TID 0000.0001) %MON exf_vwind_max                =   3.9241587548959E+00
(PID.TID 0000.0001) %MON exf_vwind_min                =  -6.0169856587394E+00
(PID.TID 0000.0001) %MON exf_vwind_mean               =  -7.5904536197929E-01
(PID.TID 0000.0001) %MON exf_vwind_sd                 =   1.7296682234552E+00
(PID.TID 0000.0001) %MON exf_vwind_del2               =   1.9331202479855E-01
(PID.TID 0000.0001) %MON exf_wspeed_max               =   7.8833967989048E+00
(PID.TID 0000.0001) %MON exf_wspeed_min               =   4.5962367887737E-01
(PID.TID 0000.0001) %MON exf_wspeed_mean              =   4.1984294286706E+00
(PID.TID 0000.0001) %MON exf_wspeed_sd                =   1.5999418201857E+00
(PID.TID 0000.0001) %MON exf_wspeed_del2              =   3.7709664625274E-01
(PID.TID 0000.0001) %MON exf_atemp_max                =   2.8187767604140E+02
(PID.TID 0000.0001) %MON exf_atemp_min                =   2.3644837420104E+02
(PID.TID 0000.0001) %MON exf_atemp_mean               =   2.6393212652025E+02
(PID.TID 0000.0001) %MON exf_atemp_sd                 =   1.1987801380028E+01
(PID.TID 0000.0001) %MON exf_atemp_del2               =   6.4948042966709E-01
(PID.TID 0000.0001) %MON exf_aqh_max                  =   6.3210833210834E-03
(PID.TID 0000.0001) %MON exf_aqh_min                  =   1.6341043767886E-04
(PID.TID 0000.0001) %MON exf_aqh_mean                 =   2.4786818409748E-03
(PID.TID 0000.0001) %MON exf_aqh_sd                   =   1.4261982746893E-03
(PID.TID 0000.0001) %MON exf_aqh_del2                 =   6.8100777916201E-05
(PID.TID 0000.0001) %MON exf_lwflux_max               =   1.8153866759519E+02
(PID.TID 0000.0001) %MON exf_lwflux_min               =   2.7117659268997E+01
(PID.TID 0000.0001) %MON exf_lwflux_mean              =   7.5167336272206E+01
(PID.TID 0000.0001) %MON exf_lwflux_sd                =   4.2791334915378E+01
(PID.TID 0000.0001) %MON exf_lwflux_del2              =   3.2353470344422E+00
(PID.TID 0000.0001) %MON exf_precip_max               =   1.0499180733557E-07
(PID.TID 0000.0001) %MON exf_precip_min               =   2.7319320752566E-10
(PID.TID 0000.0001) %MON exf_precip_mean              =   3.6390048010982E-08
(PID.TID 0000.0001) %MON exf_precip_sd                =   2.0579501435483E-08
(PID.TID 0000.0001) %MON exf_precip_del2              =   2.5567380653122E-09
(PID.TID 0000.0001) %MON exf_snowprecip_max           =   0.0000000000000E+00
(PID.TID 0000.0001) %MON exf_snowprecip_min           =   0.0000000000000E+00
(PID.TID 0000.0001) %MON exf_snowprecip_mean          =   0.0000000000000E+00
(PID.TID 0000.0001) %MON exf_snowprecip_sd            =   0.0000000000000E+00
(PID.TID 0000.0001) %MON exf_snowprecip_del2          =   0.0000000000000E+00
(PID.TID 0000.0001) %MON exf_swflux_max               =  -8.1206604105527E-02
(PID.TID 0000.0001) %MON exf_swflux_min               =  -6.4029725065388E+01
(PID.TID 0000.0001) %MON exf_swflux_mean              =  -2.6484819670573E+01
(PID.TID 0000.0001) %MON exf_swflux_sd                =   1.9637409707136E+01
(PID.TID 0000.0001) %MON exf_swflux_del2              =   4.7933338739073E-01
(PID.TID 0000.0001) %MON exf_evap_max                 =   4.5336980821491E-08
(PID.TID 0000.0001) %MON exf_evap_min                 =  -4.2852111093646E-09
(PID.TID 0000.0001) %MON exf_evap_mean                =   1.0415510636189E-08
(PID.TID 0000.0001) %MON exf_evap_sd                  =   1.1091289045284E-08
(PID.TID 0000.0001) %MON exf_evap_del2                =   1.3330271329249E-09
(PID.TID 0000.0001) %MON exf_swdown_max               =   7.1144138961542E+01
(PID.TID 0000.0001) %MON exf_swdown_min               =   9.0229560117253E-02
(PID.TID 0000.0001) %MON exf_swdown_mean              =   2.9427577411748E+01
(PID.TID 0000.0001) %MON exf_swdown_sd                =   2.1819344119040E+01
(PID.TID 0000.0001) %MON exf_swdown_del2              =   5.3259265265636E-01
(PID.TID 0000.0001) %MON exf_lwdown_max               =   3.0565323976611E+02
(PID.TID 0000.0001) %MON exf_lwdown_min               =   1.1595237147222E+02
(PID.TID 0000.0001) %MON exf_lwdown_mean              =   2.2590219497194E+02
(PID.TID 0000.0001) %MON exf_lwdown_sd                =   4.6289340871590E+01
(PID.TID 0000.0001) %MON exf_lwdown_del2              =   3.2438562169101E+00
(PID.TID 0000.0001) %MON exf_apressure_max            =   0.0000000000000E+00
(PID.TID 0000.0001) %MON exf_apressure_min            =   0.0000000000000E+00
(PID.TID 0000.0001) %MON exf_apressure_mean           =   0.0000000000000E+00
(PID.TID 0000.0001) %MON exf_apressure_sd             =   0.0000000000000E+00
(PID.TID 0000.0001) %MON exf_apressure_del2           =   0.0000000000000E+00
(PID.TID 0000.0001) %MON exf_runoff_max               =   0.0000000000000E+00
(PID.TID 0000.0001) %MON exf_runoff_min               =   0.0000000000000E+00
(PID.TID 0000.0001) %MON exf_runoff_mean              =   0.0000000000000E+00
(PID.TID 0000.0001) %MON exf_runoff_sd                =   0.0000000000000E+00
(PID.TID 0000.0001) %MON exf_runoff_del2              =   0.0000000000000E+00
(PID.TID 0000.0001) %MON exf_climsst_max              =   0.0000000000000E+00
(PID.TID 0000.0001) %MON exf_climsst_min              =   0.0000000000000E+00
(PID.TID 0000.0001) %MON exf_climsst_mean             =   0.0000000000000E+00
(PID.TID 0000.0001) %MON exf_climsst_sd               =   0.0000000000000E+00
(PID.TID 0000.0001) %MON exf_climsst_del2             =   0.0000000000000E+00
(PID.TID 0000.0001) %MON exf_climsss_max              =   3.5040885127959E+01
(PID.TID 0000.0001) %MON exf_climsss_min              =   3.0668591155380E+01
(PID.TID 0000.0001) %MON exf_climsss_mean             =   3.3460883601427E+01
(PID.TID 0000.0001) %MON exf_climsss_sd               =   1.0317405668875E+00
(PID.TID 0000.0001) %MON exf_climsss_del2             =   1.0014227359021E-01
(PID.TID 0000.0001) // =======================================================
(PID.TID 0000.0001) // End MONITOR EXF statistics
(PID.TID 0000.0001) // =======================================================
 ph-ice B  3  0.  0.  0.
 ph-ice C  3  2.04933547E+11
 cg2d: Sum(rhs),rhsMax =   3.25074339356524E-08  1.21053584946861E+00
(PID.TID 0000.0001) // =======================================================
(PID.TID 0000.0001) // Begin MONITOR SEAICE statistics
(PID.TID 0000.0001) // =======================================================
(PID.TID 0000.0001) %MON seaice_tsnumber              =                     4
(PID.TID 0000.0001) %MON seaice_time_sec              =   1.4400000000000E+04
(PID.TID 0000.0001) %MON seaice_uice_max              =   2.0410589047998E-01
(PID.TID 0000.0001) %MON seaice_uice_min              =  -1.0820664027345E-01
(PID.TID 0000.0001) %MON seaice_uice_mean             =   8.1218831343700E-02
(PID.TID 0000.0001) %MON seaice_uice_sd               =   7.8521024071152E-02
(PID.TID 0000.0001) %MON seaice_uice_del2             =   9.4129542010406E-03
(PID.TID 0000.0001) %MON seaice_vice_max              =   9.9288345484380E-02
(PID.TID 0000.0001) %MON seaice_vice_min              =  -1.9612309364624E-01
(PID.TID 0000.0001) %MON seaice_vice_mean             =  -3.7794415878661E-02
(PID.TID 0000.0001) %MON seaice_vice_sd               =   6.1057438326041E-02
(PID.TID 0000.0001) %MON seaice_vice_del2             =   6.9481564287000E-03
(PID.TID 0000.0001) %MON seaice_area_max              =   1.0000000000000E+00
(PID.TID 0000.0001) %MON seaice_area_min              =   0.0000000000000E+00
(PID.TID 0000.0001) %MON seaice_area_mean             =   6.2448959659385E-01
(PID.TID 0000.0001) %MON seaice_area_sd               =   4.5884281056558E-01
(PID.TID 0000.0001) %MON seaice_area_del2             =   5.3567591558652E-02
(PID.TID 0000.0001) %MON seaice_heff_max              =   5.5146835059086E-01
(PID.TID 0000.0001) %MON seaice_heff_min              =   0.0000000000000E+00
(PID.TID 0000.0001) %MON seaice_heff_mean             =   1.4217102681656E-01
(PID.TID 0000.0001) %MON seaice_heff_sd               =   1.7417994733466E-01
(PID.TID 0000.0001) %MON seaice_heff_del2             =   1.3240064440965E-02
(PID.TID 0000.0001) %MON seaice_hsnow_max             =   2.0313961711978E-01
(PID.TID 0000.0001) %MON seaice_hsnow_min             =   0.0000000000000E+00
(PID.TID 0000.0001) %MON seaice_hsnow_mean            =   1.1810788894800E-01
(PID.TID 0000.0001) %MON seaice_hsnow_sd              =   9.6917239052003E-02
(PID.TID 0000.0001) %MON seaice_hsnow_del2            =   6.4249667976097E-03
(PID.TID 0000.0001) // =======================================================
(PID.TID 0000.0001) // End MONITOR SEAICE statistics
(PID.TID 0000.0001) // =======================================================
(PID.TID 0000.0001) // =======================================================
(PID.TID 0000.0001) // Begin MONITOR EXF statistics
(PID.TID 0000.0001) // =======================================================
(PID.TID 0000.0001) %MON exf_tsnumber                 =                     4
(PID.TID 0000.0001) %MON exf_time_sec                 =   1.4400000000000E+04
(PID.TID 0000.0001) %MON exf_ustress_max              =   5.2222749041040E-02
(PID.TID 0000.0001) %MON exf_ustress_min              =  -9.3790194486454E-02
(PID.TID 0000.0001) %MON exf_ustress_mean             =   1.7935661364022E-02
(PID.TID 0000.0001) %MON exf_ustress_sd               =   2.3707712060873E-02
(PID.TID 0000.0001) %MON exf_ustress_del2             =   2.8164274001035E-03
(PID.TID 0000.0001) %MON exf_vstress_max              =   5.3829437114216E-02
(PID.TID 0000.0001) %MON exf_vstress_min              =  -5.8464476572378E-02
(PID.TID 0000.0001) %MON exf_vstress_mean             =  -5.4495378888656E-03
(PID.TID 0000.0001) %MON exf_vstress_sd               =   1.4442680291520E-02
(PID.TID 0000.0001) %MON exf_vstress_del2             =   1.6931341965719E-03
(PID.TID 0000.0001) %MON exf_hflux_max                =   6.2496267398705E+02
(PID.TID 0000.0001) %MON exf_hflux_min                =  -5.1565362854226E+01
(PID.TID 0000.0001) %MON exf_hflux_mean               =   1.4615660204211E+02
(PID.TID 0000.0001) %MON exf_hflux_sd                 =   1.8002236076263E+02
(PID.TID 0000.0001) %MON exf_hflux_del2               =   1.6301997616561E+01
(PID.TID 0000.0001) %MON exf_sflux_max                =   3.9025647077273E-08
(PID.TID 0000.0001) %MON exf_sflux_min                =  -8.8952139751991E-08
(PID.TID 0000.0001) %MON exf_sflux_mean               =  -2.5966971710259E-08
(PID.TID 0000.0001) %MON exf_sflux_sd                 =   3.0361915261337E-08
(PID.TID 0000.0001) %MON exf_sflux_del2               =   3.1623400407616E-09
(PID.TID 0000.0001) %MON exf_uwind_max                =   6.4664043520318E+00
(PID.TID 0000.0001) %MON exf_uwind_min                =  -6.8373452001582E+00
(PID.TID 0000.0001) %MON exf_uwind_mean               =   2.7702029429808E+00
(PID.TID 0000.0001) %MON exf_uwind_sd                 =   2.9911443548250E+00
(PID.TID 0000.0001) %MON exf_uwind_del2               =   3.1574156428286E-01
(PID.TID 0000.0001) %MON exf_vwind_max                =   3.9241889356915E+00
(PID.TID 0000.0001) %MON exf_vwind_min                =  -6.0160797489145E+00
(PID.TID 0000.0001) %MON exf_vwind_mean               =  -7.5842758888917E-01
(PID.TID 0000.0001) %MON exf_vwind_sd                 =   1.7297766046368E+00
(PID.TID 0000.0001) %MON exf_vwind_del2               =   1.9330515345662E-01
(PID.TID 0000.0001) %MON exf_wspeed_max               =   7.8834350500991E+00
(PID.TID 0000.0001) %MON exf_wspeed_min               =   4.5938084481311E-01
(PID.TID 0000.0001) %MON exf_wspeed_mean              =   4.1985322596174E+00
(PID.TID 0000.0001) %MON exf_wspeed_sd                =   1.6001985099325E+00
(PID.TID 0000.0001) %MON exf_wspeed_del2              =   3.7714995543655E-01
(PID.TID 0000.0001) %MON exf_atemp_max                =   2.8187596388853E+02
(PID.TID 0000.0001) %MON exf_atemp_min                =   2.3644390923339E+02
(PID.TID 0000.0001) %MON exf_atemp_mean               =   2.6392748243095E+02
(PID.TID 0000.0001) %MON exf_atemp_sd                 =   1.1989263372313E+01
(PID.TID 0000.0001) %MON exf_atemp_del2               =   6.4949976399731E-01
(PID.TID 0000.0001) %MON exf_aqh_max                  =   6.3203867802223E-03
(PID.TID 0000.0001) %MON exf_aqh_min                  =   1.6331633418045E-04
(PID.TID 0000.0001) %MON exf_aqh_mean                 =   2.4781214845702E-03
(PID.TID 0000.0001) %MON exf_aqh_sd                   =   1.4260952789855E-03
(PID.TID 0000.0001) %MON exf_aqh_del2                 =   6.8087110355054E-05
(PID.TID 0000.0001) %MON exf_lwflux_max               =   1.8154800702574E+02
(PID.TID 0000.0001) %MON exf_lwflux_min               =   2.7104463754972E+01
(PID.TID 0000.0001) %MON exf_lwflux_mean              =   7.5190183039921E+01
(PID.TID 0000.0001) %MON exf_lwflux_sd                =   4.2783226857253E+01
(PID.TID 0000.0001) %MON exf_lwflux_del2              =   3.2333540914424E+00
(PID.TID 0000.0001) %MON exf_precip_max               =   1.0499318877820E-07
(PID.TID 0000.0001) %MON exf_precip_min               =   2.7305928105298E-10
(PID.TID 0000.0001) %MON exf_precip_mean              =   3.6390037166947E-08
(PID.TID 0000.0001) %MON exf_precip_sd                =   2.0579953834835E-08
(PID.TID 0000.0001) %MON exf_precip_del2              =   2.5572657585019E-09
(PID.TID 0000.0001) %MON exf_snowprecip_max           =   0.0000000000000E+00
(PID.TID 0000.0001) %MON exf_snowprecip_min           =   0.0000000000000E+00
(PID.TID 0000.0001) %MON exf_snowprecip_mean          =   0.0000000000000E+00
(PID.TID 0000.0001) %MON exf_snowprecip_sd            =   0.0000000000000E+00
(PID.TID 0000.0001) %MON exf_snowprecip_del2          =   0.0000000000000E+00
(PID.TID 0000.0001) %MON exf_swflux_max               =  -8.1206886983309E-02
(PID.TID 0000.0001) %MON exf_swflux_min               =  -6.4048595415960E+01
(PID.TID 0000.0001) %MON exf_swflux_mean              =  -2.6495351886448E+01
(PID.TID 0000.0001) %MON exf_swflux_sd                =   1.9641247100083E+01
(PID.TID 0000.0001) %MON exf_swflux_del2              =   4.7944026133668E-01
(PID.TID 0000.0001) %MON exf_evap_max                 =   4.5347204057645E-08
(PID.TID 0000.0001) %MON exf_evap_min                 =  -4.2663929309446E-09
(PID.TID 0000.0001) %MON exf_evap_mean                =   1.0423065456689E-08
(PID.TID 0000.0001) %MON exf_evap_sd                  =   1.1085437977198E-08
(PID.TID 0000.0001) %MON exf_evap_del2                =   1.3323750872089E-09
(PID.TID 0000.0001) %MON exf_swdown_max               =   7.1165106017733E+01
(PID.TID 0000.0001) %MON exf_swdown_min               =   9.0229874425898E-02
(PID.TID 0000.0001) %MON exf_swdown_mean              =   2.9439279873831E+01
(PID.TID 0000.0001) %MON exf_swdown_sd                =   2.1823607888981E+01
(PID.TID 0000.0001) %MON exf_swdown_del2              =   5.3271140148521E-01
(PID.TID 0000.0001) %MON exf_lwdown_max               =   3.0564441368228E+02
(PID.TID 0000.0001) %MON exf_lwdown_min               =   1.1593726459357E+02
(PID.TID 0000.0001) %MON exf_lwdown_mean              =   2.2588648764287E+02
(PID.TID 0000.0001) %MON exf_lwdown_sd                =   4.6293313753333E+01
(PID.TID 0000.0001) %MON exf_lwdown_del2              =   3.2438678569828E+00
(PID.TID 0000.0001) %MON exf_apressure_max            =   0.0000000000000E+00
(PID.TID 0000.0001) %MON exf_apressure_min            =   0.0000000000000E+00
(PID.TID 0000.0001) %MON exf_apressure_mean           =   0.0000000000000E+00
(PID.TID 0000.0001) %MON exf_apressure_sd             =   0.0000000000000E+00
(PID.TID 0000.0001) %MON exf_apressure_del2           =   0.0000000000000E+00
(PID.TID 0000.0001) %MON exf_runoff_max               =   0.0000000000000E+00
(PID.TID 0000.0001) %MON exf_runoff_min               =   0.0000000000000E+00
(PID.TID 0000.0001) %MON exf_runoff_mean              =   0.0000000000000E+00
(PID.TID 0000.0001) %MON exf_runoff_sd                =   0.0000000000000E+00
(PID.TID 0000.0001) %MON exf_runoff_del2              =   0.0000000000000E+00
(PID.TID 0000.0001) %MON exf_climsst_max              =   0.0000000000000E+00
(PID.TID 0000.0001) %MON exf_climsst_min              =   0.0000000000000E+00
(PID.TID 0000.0001) %MON exf_climsst_mean             =   0.0000000000000E+00
(PID.TID 0000.0001) %MON exf_climsst_sd               =   0.0000000000000E+00
(PID.TID 0000.0001) %MON exf_climsst_del2             =   0.0000000000000E+00
(PID.TID 0000.0001) %MON exf_climsss_max              =   3.5041069874998E+01
(PID.TID 0000.0001) %MON exf_climsss_min              =   3.0669350483378E+01
(PID.TID 0000.0001) %MON exf_climsss_mean             =   3.3461404934907E+01
(PID.TID 0000.0001) %MON exf_climsss_sd               =   1.0316695849659E+00
(PID.TID 0000.0001) %MON exf_climsss_del2             =   1.0012504429982E-01
(PID.TID 0000.0001) // =======================================================
(PID.TID 0000.0001) // End MONITOR EXF statistics
(PID.TID 0000.0001) // =======================================================
 ph-ice B  4  0.  0.  0.
 ph-ice C  4  2.55604311E+11
 cg2d: Sum(rhs),rhsMax =   3.22654483200790E-08  1.20538351282248E+00
(PID.TID 0000.0001) // =======================================================
(PID.TID 0000.0001) // Begin MONITOR SEAICE statistics
(PID.TID 0000.0001) // =======================================================
(PID.TID 0000.0001) %MON seaice_tsnumber              =                     5
(PID.TID 0000.0001) %MON seaice_time_sec              =   1.8000000000000E+04
(PID.TID 0000.0001) %MON seaice_uice_max              =   2.1945311600212E-01
(PID.TID 0000.0001) %MON seaice_uice_min              =  -1.0939009902185E-01
(PID.TID 0000.0001) %MON seaice_uice_mean             =   8.3081498582453E-02
(PID.TID 0000.0001) %MON seaice_uice_sd               =   8.3462837428930E-02
(PID.TID 0000.0001) %MON seaice_uice_del2             =   1.0024800158358E-02
(PID.TID 0000.0001) %MON seaice_vice_max              =   1.0086609838504E-01
(PID.TID 0000.0001) %MON seaice_vice_min              =  -1.9808188882614E-01
(PID.TID 0000.0001) %MON seaice_vice_mean             =  -4.6968754951085E-02
(PID.TID 0000.0001) %MON seaice_vice_sd               =   6.7920741265253E-02
(PID.TID 0000.0001) %MON seaice_vice_del2             =   7.5957120875219E-03
(PID.TID 0000.0001) %MON seaice_area_max              =   1.0000000000000E+00
(PID.TID 0000.0001) %MON seaice_area_min              =   0.0000000000000E+00
(PID.TID 0000.0001) %MON seaice_area_mean             =   6.2430145585859E-01
(PID.TID 0000.0001) %MON seaice_area_sd               =   4.5848061744390E-01
(PID.TID 0000.0001) %MON seaice_area_del2             =   5.3614995000625E-02
(PID.TID 0000.0001) %MON seaice_heff_max              =   5.4903937822394E-01
(PID.TID 0000.0001) %MON seaice_heff_min              =   0.0000000000000E+00
(PID.TID 0000.0001) %MON seaice_heff_mean             =   1.4223655309961E-01
(PID.TID 0000.0001) %MON seaice_heff_sd               =   1.7414957656665E-01
(PID.TID 0000.0001) %MON seaice_heff_del2             =   1.3251324576119E-02
(PID.TID 0000.0001) %MON seaice_hsnow_max             =   2.0392476353420E-01
(PID.TID 0000.0001) %MON seaice_hsnow_min             =   0.0000000000000E+00
(PID.TID 0000.0001) %MON seaice_hsnow_mean            =   1.1825099134754E-01
(PID.TID 0000.0001) %MON seaice_hsnow_sd              =   9.7044356047918E-02
(PID.TID 0000.0001) %MON seaice_hsnow_del2            =   6.4762509688992E-03
(PID.TID 0000.0001) // =======================================================
(PID.TID 0000.0001) // End MONITOR SEAICE statistics
(PID.TID 0000.0001) // =======================================================
(PID.TID 0000.0001) // =======================================================
(PID.TID 0000.0001) // Begin MONITOR EXF statistics
(PID.TID 0000.0001) // =======================================================
(PID.TID 0000.0001) %MON exf_tsnumber                 =                     5
(PID.TID 0000.0001) %MON exf_time_sec                 =   1.8000000000000E+04
(PID.TID 0000.0001) %MON exf_ustress_max              =   5.2230884117569E-02
(PID.TID 0000.0001) %MON exf_ustress_min              =  -9.3792692313509E-02
(PID.TID 0000.0001) %MON exf_ustress_mean             =   1.7944938436852E-02
(PID.TID 0000.0001) %MON exf_ustress_sd               =   2.3713963498360E-02
(PID.TID 0000.0001) %MON exf_ustress_del2             =   2.8173054752019E-03
(PID.TID 0000.0001) %MON exf_vstress_max              =   5.3831073859947E-02
(PID.TID 0000.0001) %MON exf_vstress_min              =  -5.8456785540511E-02
(PID.TID 0000.0001) %MON exf_vstress_mean             =  -5.4464515888705E-03
(PID.TID 0000.0001) %MON exf_vstress_sd               =   1.4444944822106E-02
(PID.TID 0000.0001) %MON exf_vstress_del2             =   1.6932730973348E-03
(PID.TID 0000.0001) %MON exf_hflux_max                =   6.2503361232607E+02
(PID.TID 0000.0001) %MON exf_hflux_min                =  -5.1451597532177E+01
(PID.TID 0000.0001) %MON exf_hflux_mean               =   1.4623261788849E+02
(PID.TID 0000.0001) %MON exf_hflux_sd                 =   1.8002329091038E+02
(PID.TID 0000.0001) %MON exf_hflux_del2               =   1.6301012033206E+01
(PID.TID 0000.0001) %MON exf_sflux_max                =   3.9028023656348E-08
(PID.TID 0000.0001) %MON exf_sflux_min                =  -8.8915527500701E-08
(PID.TID 0000.0001) %MON exf_sflux_mean               =  -2.5958891178368E-08
(PID.TID 0000.0001) %MON exf_sflux_sd                 =   3.0357858438225E-08
(PID.TID 0000.0001) %MON exf_sflux_del2               =   3.1625236075997E-09
(PID.TID 0000.0001) %MON exf_uwind_max                =   6.4669118044806E+00
(PID.TID 0000.0001) %MON exf_uwind_min                =  -6.8373719818605E+00
(PID.TID 0000.0001) %MON exf_uwind_mean               =   2.7703104953252E+00
(PID.TID 0000.0001) %MON exf_uwind_sd                 =   2.9914204817202E+00
(PID.TID 0000.0001) %MON exf_uwind_del2               =   3.1574946850541E-01
(PID.TID 0000.0001) %MON exf_vwind_max                =   3.9242191164871E+00
(PID.TID 0000.0001) %MON exf_vwind_min                =  -6.0151738390896E+00
(PID.TID 0000.0001) %MON exf_vwind_mean               =  -7.5780981579906E-01
(PID.TID 0000.0001) %MON exf_vwind_sd                 =   1.7298850990135E+00
(PID.TID 0000.0001) %MON exf_vwind_del2               =   1.9329828211469E-01
(PID.TID 0000.0001) %MON exf_wspeed_max               =   7.8834733013142E+00
(PID.TID 0000.0001) %MON exf_wspeed_min               =   4.5913801314248E-01
(PID.TID 0000.0001) %MON exf_wspeed_mean              =   4.1986352194932E+00
(PID.TID 0000.0001) %MON exf_wspeed_sd                =   1.6004553118739E+00
(PID.TID 0000.0001) %MON exf_wspeed_del2              =   3.7720325813743E-01
(PID.TID 0000.0001) %MON exf_atemp_max                =   2.8187425173567E+02
(PID.TID 0000.0001) %MON exf_atemp_min                =   2.3643944426573E+02
(PID.TID 0000.0001) %MON exf_atemp_mean               =   2.6392283834165E+02
(PID.TID 0000.0001) %MON exf_atemp_sd                 =   1.1990725851874E+01
(PID.TID 0000.0001) %MON exf_atemp_del2               =   6.4951909832753E-01
(PID.TID 0000.0001) %MON exf_aqh_max                  =   6.3196902393613E-03
(PID.TID 0000.0001) %MON exf_aqh_min                  =   1.6322223068205E-04
(PID.TID 0000.0001) %MON exf_aqh_mean                 =   2.4775611281656E-03
(PID.TID 0000.0001) %MON exf_aqh_sd                   =   1.4259923191659E-03
(PID.TID 0000.0001) %MON exf_aqh_del2                 =   6.8073442793907E-05
(PID.TID 0000.0001) %MON exf_lwflux_max               =   1.8156112611884E+02
(PID.TID 0000.0001) %MON exf_lwflux_min               =   2.7075633017548E+01
(PID.TID 0000.0001) %MON exf_lwflux_mean              =   7.5214636389651E+01
(PID.TID 0000.0001) %MON exf_lwflux_sd                =   4.2777639552931E+01
(PID.TID 0000.0001) %MON exf_lwflux_del2              =   3.2323888501815E+00
(PID.TID 0000.0001) %MON exf_precip_max               =   1.0499457022082E-07
(PID.TID 0000.0001) %MON exf_precip_min               =   2.7292535458031E-10
(PID.TID 0000.0001) %MON exf_precip_mean              =   3.6390026322913E-08
(PID.TID 0000.0001) %MON exf_precip_sd                =   2.0580406889746E-08
(PID.TID 0000.0001) %MON exf_precip_del2              =   2.5577934516916E-09
(PID.TID 0000.0001) %MON exf_snowprecip_max           =   0.0000000000000E+00
(PID.TID 0000.0001) %MON exf_snowprecip_min           =   0.0000000000000E+00
(PID.TID 0000.0001) %MON exf_snowprecip_mean          =   0.0000000000000E+00
(PID.TID 0000.0001) %MON exf_snowprecip_sd            =   0.0000000000000E+00
(PID.TID 0000.0001) %MON exf_snowprecip_del2          =   0.0000000000000E+00
(PID.TID 0000.0001) %MON exf_swflux_max               =  -8.1207169861090E-02
(PID.TID 0000.0001) %MON exf_swflux_min               =  -6.4067465766532E+01
(PID.TID 0000.0001) %MON exf_swflux_mean              =  -2.6505884102323E+01
(PID.TID 0000.0001) %MON exf_swflux_sd                =   1.9645085084315E+01
(PID.TID 0000.0001) %MON exf_swflux_del2              =   4.7954713528264E-01
(PID.TID 0000.0001) %MON exf_evap_max                 =   4.5348917925788E-08
(PID.TID 0000.0001) %MON exf_evap_min                 =  -4.2424751728147E-09
(PID.TID 0000.0001) %MON exf_evap_mean                =   1.0431135144545E-08
(PID.TID 0000.0001) %MON exf_evap_sd                  =   1.1081500602846E-08
(PID.TID 0000.0001) %MON exf_evap_del2                =   1.3323474399634E-09
(PID.TID 0000.0001) %MON exf_swdown_max               =   7.1186073073924E+01
(PID.TID 0000.0001) %MON exf_swdown_min               =   9.0230188734544E-02
(PID.TID 0000.0001) %MON exf_swdown_mean              =   2.9450982335914E+01
(PID.TID 0000.0001) %MON exf_swdown_sd                =   2.1827872315905E+01
(PID.TID 0000.0001) %MON exf_swdown_del2              =   5.3283015031405E-01
(PID.TID 0000.0001) %MON exf_lwdown_max               =   3.0563558759846E+02
(PID.TID 0000.0001) %MON exf_lwdown_min               =   1.1592215771493E+02
(PID.TID 0000.0001) %MON exf_lwdown_mean              =   2.2587078031381E+02
(PID.TID 0000.0001) %MON exf_lwdown_sd                =   4.6297287802066E+01
(PID.TID 0000.0001) %MON exf_lwdown_del2              =   3.2438794970556E+00
(PID.TID 0000.0001) %MON exf_apressure_max            =   0.0000000000000E+00
(PID.TID 0000.0001) %MON exf_apressure_min            =   0.0000000000000E+00
(PID.TID 0000.0001) %MON exf_apressure_mean           =   0.0000000000000E+00
(PID.TID 0000.0001) %MON exf_apressure_sd             =   0.0000000000000E+00
(PID.TID 0000.0001) %MON exf_apressure_del2           =   0.0000000000000E+00
(PID.TID 0000.0001) %MON exf_runoff_max               =   0.0000000000000E+00
(PID.TID 0000.0001) %MON exf_runoff_min               =   0.0000000000000E+00
(PID.TID 0000.0001) %MON exf_runoff_mean              =   0.0000000000000E+00
(PID.TID 0000.0001) %MON exf_runoff_sd                =   0.0000000000000E+00
(PID.TID 0000.0001) %MON exf_runoff_del2              =   0.0000000000000E+00
(PID.TID 0000.0001) %MON exf_climsst_max              =   0.0000000000000E+00
(PID.TID 0000.0001) %MON exf_climsst_min              =   0.0000000000000E+00
(PID.TID 0000.0001) %MON exf_climsst_mean             =   0.0000000000000E+00
(PID.TID 0000.0001) %MON exf_climsst_sd               =   0.0000000000000E+00
(PID.TID 0000.0001) %MON exf_climsst_del2             =   0.0000000000000E+00
(PID.TID 0000.0001) %MON exf_climsss_max              =   3.5041254622037E+01
(PID.TID 0000.0001) %MON exf_climsss_min              =   3.0670109811376E+01
(PID.TID 0000.0001) %MON exf_climsss_mean             =   3.3461926268386E+01
(PID.TID 0000.0001) %MON exf_climsss_sd               =   1.0315988331065E+00
(PID.TID 0000.0001) %MON exf_climsss_del2             =   1.0010781500943E-01
(PID.TID 0000.0001) // =======================================================
(PID.TID 0000.0001) // End MONITOR EXF statistics
(PID.TID 0000.0001) // =======================================================
 ph-ice B  5  0.  0.  0.
 ph-ice C  5  3.0628148E+11
 cg2d: Sum(rhs),rhsMax =   3.20072280138306E-08  1.19996672250856E+00
(PID.TID 0000.0001) // =======================================================
(PID.TID 0000.0001) // Begin MONITOR SEAICE statistics
(PID.TID 0000.0001) // =======================================================
(PID.TID 0000.0001) %MON seaice_tsnumber              =                     6
(PID.TID 0000.0001) %MON seaice_time_sec              =   2.1600000000000E+04
(PID.TID 0000.0001) %MON seaice_uice_max              =   2.3992571036861E-01
(PID.TID 0000.0001) %MON seaice_uice_min              =  -1.0534849502404E-01
(PID.TID 0000.0001) %MON seaice_uice_mean             =   8.0977598916751E-02
(PID.TID 0000.0001) %MON seaice_uice_sd               =   8.5693080438706E-02
(PID.TID 0000.0001) %MON seaice_uice_del2             =   1.0079086178972E-02
(PID.TID 0000.0001) %MON seaice_vice_max              =   9.8351447678973E-02
(PID.TID 0000.0001) %MON seaice_vice_min              =  -2.1228924532387E-01
(PID.TID 0000.0001) %MON seaice_vice_mean             =  -5.4937411802047E-02
(PID.TID 0000.0001) %MON seaice_vice_sd               =   7.2061899686672E-02
(PID.TID 0000.0001) %MON seaice_vice_del2             =   8.0226378916393E-03
(PID.TID 0000.0001) %MON seaice_area_max              =   1.0000000000000E+00
(PID.TID 0000.0001) %MON seaice_area_min              =   0.0000000000000E+00
(PID.TID 0000.0001) %MON seaice_area_mean             =   6.2417683797051E-01
(PID.TID 0000.0001) %MON seaice_area_sd               =   4.5808412342943E-01
(PID.TID 0000.0001) %MON seaice_area_del2             =   5.3631191027859E-02
(PID.TID 0000.0001) %MON seaice_heff_max              =   5.4790358803123E-01
(PID.TID 0000.0001) %MON seaice_heff_min              =   0.0000000000000E+00
(PID.TID 0000.0001) %MON seaice_heff_mean             =   1.4225453001591E-01
(PID.TID 0000.0001) %MON seaice_heff_sd               =   1.7422550164649E-01
(PID.TID 0000.0001) %MON seaice_heff_del2             =   1.3241009123896E-02
(PID.TID 0000.0001) %MON seaice_hsnow_max             =   2.0470995401277E-01
(PID.TID 0000.0001) %MON seaice_hsnow_min             =   0.0000000000000E+00
(PID.TID 0000.0001) %MON seaice_hsnow_mean            =   1.1841143347616E-01
(PID.TID 0000.0001) %MON seaice_hsnow_sd              =   9.7165681938628E-02
(PID.TID 0000.0001) %MON seaice_hsnow_del2            =   6.5148328823658E-03
(PID.TID 0000.0001) // =======================================================
(PID.TID 0000.0001) // End MONITOR SEAICE statistics
(PID.TID 0000.0001) // =======================================================
(PID.TID 0000.0001) // =======================================================
(PID.TID 0000.0001) // Begin MONITOR EXF statistics
(PID.TID 0000.0001) // =======================================================
(PID.TID 0000.0001) %MON exf_tsnumber                 =                     6
(PID.TID 0000.0001) %MON exf_time_sec                 =   2.1600000000000E+04
(PID.TID 0000.0001) %MON exf_ustress_max              =   5.2237984457678E-02
(PID.TID 0000.0001) %MON exf_ustress_min              =  -9.3794680426842E-02
(PID.TID 0000.0001) %MON exf_ustress_mean             =   1.7953012135929E-02
(PID.TID 0000.0001) %MON exf_ustress_sd               =   2.3720086769326E-02
(PID.TID 0000.0001) %MON exf_ustress_del2             =   2.8182308495515E-03
(PID.TID 0000.0001) %MON exf_vstress_max              =   5.3832418070363E-02
(PID.TID 0000.0001) %MON exf_vstress_min              =  -5.8451170700650E-02
(PID.TID 0000.0001) %MON exf_vstress_mean             =  -5.4433707916166E-03
(PID.TID 0000.0001) %MON exf_vstress_sd               =   1.4447187195119E-02
(PID.TID 0000.0001) %MON exf_vstress_del2             =   1.6932782550436E-03
(PID.TID 0000.0001) %MON exf_hflux_max                =   6.2507220073315E+02
(PID.TID 0000.0001) %MON exf_hflux_min                =  -5.1351197183333E+01
(PID.TID 0000.0001) %MON exf_hflux_mean               =   1.4630895763995E+02
(PID.TID 0000.0001) %MON exf_hflux_sd                 =   1.8003245729572E+02
(PID.TID 0000.0001) %MON exf_hflux_del2               =   1.6303889800325E+01
(PID.TID 0000.0001) %MON exf_sflux_max                =   3.9026275524023E-08
(PID.TID 0000.0001) %MON exf_sflux_min                =  -8.8868954898581E-08
(PID.TID 0000.0001) %MON exf_sflux_mean               =  -2.5950940165018E-08
(PID.TID 0000.0001) %MON exf_sflux_sd                 =   3.0354687659003E-08
(PID.TID 0000.0001) %MON exf_sflux_del2               =   3.1631222852865E-09
(PID.TID 0000.0001) %MON exf_uwind_max                =   6.4674192569295E+00
(PID.TID 0000.0001) %MON exf_uwind_min                =  -6.8373987635628E+00
(PID.TID 0000.0001) %MON exf_uwind_mean               =   2.7704180476696E+00
(PID.TID 0000.0001) %MON exf_uwind_sd                 =   2.9916966488382E+00
(PID.TID 0000.0001) %MON exf_uwind_del2               =   3.1575737272796E-01
(PID.TID 0000.0001) %MON exf_vwind_max                =   3.9242492972827E+00
(PID.TID 0000.0001) %MON exf_vwind_min                =  -6.0142679292648E+00
(PID.TID 0000.0001) %MON exf_vwind_mean               =  -7.5719204270894E-01
(PID.TID 0000.0001) %MON exf_vwind_sd                 =   1.7299937065642E+00
(PID.TID 0000.0001) %MON exf_vwind_del2               =   1.9329141077275E-01
(PID.TID 0000.0001) %MON exf_wspeed_max               =   7.8835115525503E+00
(PID.TID 0000.0001) %MON exf_wspeed_min               =   4.5889518386928E-01
(PID.TID 0000.0001) %MON exf_wspeed_mean              =   4.1987383082859E+00
(PID.TID 0000.0001) %MON exf_wspeed_sd                =   1.6007122259633E+00
(PID.TID 0000.0001) %MON exf_wspeed_del2              =   3.7725655435875E-01
(PID.TID 0000.0001) %MON exf_atemp_max                =   2.8187253958280E+02
(PID.TID 0000.0001) %MON exf_atemp_min                =   2.3643497929808E+02
(PID.TID 0000.0001) %MON exf_atemp_mean               =   2.6391819425235E+02
(PID.TID 0000.0001) %MON exf_atemp_sd                 =   1.1992188818533E+01
(PID.TID 0000.0001) %MON exf_atemp_del2               =   6.4953843265774E-01
(PID.TID 0000.0001) %MON exf_aqh_max                  =   6.3189936985002E-03
(PID.TID 0000.0001) %MON exf_aqh_min                  =   1.6312812718364E-04
(PID.TID 0000.0001) %MON exf_aqh_mean                 =   2.4770007717611E-03
(PID.TID 0000.0001) %MON exf_aqh_sd                   =   1.4258893952382E-03
(PID.TID 0000.0001) %MON exf_aqh_del2                 =   6.8059775232760E-05
(PID.TID 0000.0001) %MON exf_lwflux_max               =   1.8157457967829E+02
(PID.TID 0000.0001) %MON exf_lwflux_min               =   2.7062314427737E+01
(PID.TID 0000.0001) %MON exf_lwflux_mean              =   7.5238129623259E+01
(PID.TID 0000.0001) %MON exf_lwflux_sd                =   4.2774665185725E+01
(PID.TID 0000.0001) %MON exf_lwflux_del2              =   3.2322413260586E+00
(PID.TID 0000.0001) %MON exf_precip_max               =   1.0499595166344E-07
(PID.TID 0000.0001) %MON exf_precip_min               =   2.7279142810763E-10
(PID.TID 0000.0001) %MON exf_precip_mean              =   3.6390015478879E-08
(PID.TID 0000.0001) %MON exf_precip_sd                =   2.0580860600171E-08
(PID.TID 0000.0001) %MON exf_precip_del2              =   2.5583211448813E-09
(PID.TID 0000.0001) %MON exf_snowprecip_max           =   0.0000000000000E+00
(PID.TID 0000.0001) %MON exf_snowprecip_min           =   0.0000000000000E+00
(PID.TID 0000.0001) %MON exf_snowprecip_mean          =   0.0000000000000E+00
(PID.TID 0000.0001) %MON exf_snowprecip_sd            =   0.0000000000000E+00
(PID.TID 0000.0001) %MON exf_snowprecip_del2          =   0.0000000000000E+00
(PID.TID 0000.0001) %MON exf_swflux_max               =  -8.1207452738871E-02
(PID.TID 0000.0001) %MON exf_swflux_min               =  -6.4086336117103E+01
(PID.TID 0000.0001) %MON exf_swflux_mean              =  -2.6516416318198E+01
(PID.TID 0000.0001) %MON exf_swflux_sd                =   1.9648923659484E+01
(PID.TID 0000.0001) %MON exf_swflux_del2              =   4.7965400922860E-01
(PID.TID 0000.0001) %MON exf_evap_max                 =   4.5346507082533E-08
(PID.TID 0000.0001) %MON exf_evap_min                 =  -4.2210682160457E-09
(PID.TID 0000.0001) %MON exf_evap_mean                =   1.0439075313860E-08
(PID.TID 0000.0001) %MON exf_evap_sd                  =   1.1078854380387E-08
(PID.TID 0000.0001) %MON exf_evap_del2                =   1.3326536720625E-09
(PID.TID 0000.0001) %MON exf_swdown_max               =   7.1207040130115E+01
(PID.TID 0000.0001) %MON exf_swdown_min               =   9.0230503043190E-02
(PID.TID 0000.0001) %MON exf_swdown_mean              =   2.9462684797997E+01
(PID.TID 0000.0001) %MON exf_swdown_sd                =   2.1832137399427E+01
(PID.TID 0000.0001) %MON exf_swdown_del2              =   5.3294889914289E-01
(PID.TID 0000.0001) %MON exf_lwdown_max               =   3.0562676151463E+02
(PID.TID 0000.0001) %MON exf_lwdown_min               =   1.1590705083628E+02
(PID.TID 0000.0001) %MON exf_lwdown_mean              =   2.2585507298474E+02
(PID.TID 0000.0001) %MON exf_lwdown_sd                =   4.6301263017486E+01
(PID.TID 0000.0001) %MON exf_lwdown_del2              =   3.2438911371283E+00
(PID.TID 0000.0001) %MON exf_apressure_max            =   0.0000000000000E+00
(PID.TID 0000.0001) %MON exf_apressure_min            =   0.0000000000000E+00
(PID.TID 0000.0001) %MON exf_apressure_mean           =   0.0000000000000E+00
(PID.TID 0000.0001) %MON exf_apressure_sd             =   0.0000000000000E+00
(PID.TID 0000.0001) %MON exf_apressure_del2           =   0.0000000000000E+00
(PID.TID 0000.0001) %MON exf_runoff_max               =   0.0000000000000E+00
(PID.TID 0000.0001) %MON exf_runoff_min               =   0.0000000000000E+00
(PID.TID 0000.0001) %MON exf_runoff_mean              =   0.0000000000000E+00
(PID.TID 0000.0001) %MON exf_runoff_sd                =   0.0000000000000E+00
(PID.TID 0000.0001) %MON exf_runoff_del2              =   0.0000000000000E+00
(PID.TID 0000.0001) %MON exf_climsst_max              =   0.0000000000000E+00
(PID.TID 0000.0001) %MON exf_climsst_min              =   0.0000000000000E+00
(PID.TID 0000.0001) %MON exf_climsst_mean             =   0.0000000000000E+00
(PID.TID 0000.0001) %MON exf_climsst_sd               =   0.0000000000000E+00
(PID.TID 0000.0001) %MON exf_climsst_del2             =   0.0000000000000E+00
(PID.TID 0000.0001) %MON exf_climsss_max              =   3.5041439369077E+01
(PID.TID 0000.0001) %MON exf_climsss_min              =   3.0670869139374E+01
(PID.TID 0000.0001) %MON exf_climsss_mean             =   3.3462447601866E+01
(PID.TID 0000.0001) %MON exf_climsss_sd               =   1.0315283113566E+00
(PID.TID 0000.0001) %MON exf_climsss_del2             =   1.0009058571904E-01
(PID.TID 0000.0001) // =======================================================
(PID.TID 0000.0001) // End MONITOR EXF statistics
(PID.TID 0000.0001) // =======================================================
 ph-ice B  6  0.  0.  0.
 ph-ice C  6  3.56943064E+11
 cg2d: Sum(rhs),rhsMax =   3.26974970224492E-08  1.19247381495392E+00
(PID.TID 0000.0001) // =======================================================
(PID.TID 0000.0001) // Begin MONITOR SEAICE statistics
(PID.TID 0000.0001) // =======================================================
(PID.TID 0000.0001) %MON seaice_tsnumber              =                     7
(PID.TID 0000.0001) %MON seaice_time_sec              =   2.5200000000000E+04
(PID.TID 0000.0001) %MON seaice_uice_max              =   2.5684967975350E-01
(PID.TID 0000.0001) %MON seaice_uice_min              =  -9.7750591653134E-02
(PID.TID 0000.0001) %MON seaice_uice_mean             =   7.6053288981287E-02
(PID.TID 0000.0001) %MON seaice_uice_sd               =   8.5420057031037E-02
(PID.TID 0000.0001) %MON seaice_uice_del2             =   9.6584993864737E-03
(PID.TID 0000.0001) %MON seaice_vice_max              =   9.3826162067241E-02
(PID.TID 0000.0001) %MON seaice_vice_min              =  -2.2536421275641E-01
(PID.TID 0000.0001) %MON seaice_vice_mean             =  -6.0012597491463E-02
(PID.TID 0000.0001) %MON seaice_vice_sd               =   7.2852688278025E-02
(PID.TID 0000.0001) %MON seaice_vice_del2             =   8.1655876744104E-03
(PID.TID 0000.0001) %MON seaice_area_max              =   1.0000000000000E+00
(PID.TID 0000.0001) %MON seaice_area_min              =   0.0000000000000E+00
(PID.TID 0000.0001) %MON seaice_area_mean             =   6.2408683982898E-01
(PID.TID 0000.0001) %MON seaice_area_sd               =   4.5772404802054E-01
(PID.TID 0000.0001) %MON seaice_area_del2             =   5.3629413301124E-02
(PID.TID 0000.0001) %MON seaice_heff_max              =   5.4815057630967E-01
(PID.TID 0000.0001) %MON seaice_heff_min              =   0.0000000000000E+00
(PID.TID 0000.0001) %MON seaice_heff_mean             =   1.4221078407140E-01
(PID.TID 0000.0001) %MON seaice_heff_sd               =   1.7437170158500E-01
(PID.TID 0000.0001) %MON seaice_heff_del2             =   1.3220385008953E-02
(PID.TID 0000.0001) %MON seaice_hsnow_max             =   2.0549515084231E-01
(PID.TID 0000.0001) %MON seaice_hsnow_min             =   0.0000000000000E+00
(PID.TID 0000.0001) %MON seaice_hsnow_mean            =   1.1857184786605E-01
(PID.TID 0000.0001) %MON seaice_hsnow_sd              =   9.7287286135965E-02
(PID.TID 0000.0001) %MON seaice_hsnow_del2            =   6.5537586314793E-03
(PID.TID 0000.0001) // =======================================================
(PID.TID 0000.0001) // End MONITOR SEAICE statistics
(PID.TID 0000.0001) // =======================================================
(PID.TID 0000.0001) // =======================================================
(PID.TID 0000.0001) // Begin MONITOR EXF statistics
(PID.TID 0000.0001) // =======================================================
(PID.TID 0000.0001) %MON exf_tsnumber                 =                     7
(PID.TID 0000.0001) %MON exf_time_sec                 =   2.5200000000000E+04
(PID.TID 0000.0001) %MON exf_ustress_max              =   5.2243932821006E-02
(PID.TID 0000.0001) %MON exf_ustress_min              =  -9.3796695311269E-02
(PID.TID 0000.0001) %MON exf_ustress_mean             =   1.7960116924884E-02
(PID.TID 0000.0001) %MON exf_ustress_sd               =   2.3726166990503E-02
(PID.TID 0000.0001) %MON exf_ustress_del2             =   2.8191130933879E-03
(PID.TID 0000.0001) %MON exf_vstress_max              =   5.3833777652830E-02
(PID.TID 0000.0001) %MON exf_vstress_min              =  -5.8440994816111E-02
(PID.TID 0000.0001) %MON exf_vstress_mean             =  -5.4400595878861E-03
(PID.TID 0000.0001) %MON exf_vstress_sd               =   1.4449139815105E-02
(PID.TID 0000.0001) %MON exf_vstress_del2             =   1.6932583520187E-03
(PID.TID 0000.0001) %MON exf_hflux_max                =   6.2511249114514E+02
(PID.TID 0000.0001) %MON exf_hflux_min                =  -5.1292187913339E+01
(PID.TID 0000.0001) %MON exf_hflux_mean               =   1.4638059347816E+02
(PID.TID 0000.0001) %MON exf_hflux_sd                 =   1.8004881198302E+02
(PID.TID 0000.0001) %MON exf_hflux_del2               =   1.6307699817685E+01
(PID.TID 0000.0001) %MON exf_sflux_max                =   3.9024744508733E-08
(PID.TID 0000.0001) %MON exf_sflux_min                =  -8.8844029784487E-08
(PID.TID 0000.0001) %MON exf_sflux_mean               =  -2.5943660849005E-08
(PID.TID 0000.0001) %MON exf_sflux_sd                 =   3.0352936448133E-08
(PID.TID 0000.0001) %MON exf_sflux_del2               =   3.1638795972686E-09
(PID.TID 0000.0001) %MON exf_uwind_max                =   6.4679267093784E+00
(PID.TID 0000.0001) %MON exf_uwind_min                =  -6.8374255452651E+00
(PID.TID 0000.0001) %MON exf_uwind_mean               =   2.7705256000140E+00
(PID.TID 0000.0001) %MON exf_uwind_sd                 =   2.9919728561678E+00
(PID.TID 0000.0001) %MON exf_uwind_del2               =   3.1576527695052E-01
(PID.TID 0000.0001) %MON exf_vwind_max                =   3.9242794780783E+00
(PID.TID 0000.0001) %MON exf_vwind_min                =  -6.0133620194399E+00
(PID.TID 0000.0001) %MON exf_vwind_mean               =  -7.5657426961883E-01
(PID.TID 0000.0001) %MON exf_vwind_sd                 =   1.7301024272674E+00
(PID.TID 0000.0001) %MON exf_vwind_del2               =   1.9328456693798E-01
(PID.TID 0000.0001) %MON exf_wspeed_max               =   7.8835498038073E+00
(PID.TID 0000.0001) %MON exf_wspeed_min               =   4.5865235699732E-01
(PID.TID 0000.0001) %MON exf_wspeed_mean              =   4.1988415259832E+00
(PID.TID 0000.0001) %MON exf_wspeed_sd                =   1.6009692521540E+00
(PID.TID 0000.0001) %MON exf_wspeed_del2              =   3.7730984410389E-01
(PID.TID 0000.0001) %MON exf_atemp_max                =   2.8187082742993E+02
(PID.TID 0000.0001) %MON exf_atemp_min                =   2.3643051433042E+02
(PID.TID 0000.0001) %MON exf_atemp_mean               =   2.6391355016305E+02
(PID.TID 0000.0001) %MON exf_atemp_sd                 =   1.1993652272111E+01
(PID.TID 0000.0001) %MON exf_atemp_del2               =   6.4955776698796E-01
(PID.TID 0000.0001) %MON exf_aqh_max                  =   6.3182971576392E-03
(PID.TID 0000.0001) %MON exf_aqh_min                  =   1.6303402368524E-04
(PID.TID 0000.0001) %MON exf_aqh_mean                 =   2.4764404153565E-03
(PID.TID 0000.0001) %MON exf_aqh_sd                   =   1.4257865072101E-03
(PID.TID 0000.0001) %MON exf_aqh_del2                 =   6.8046107671613E-05
(PID.TID 0000.0001) %MON exf_lwflux_max               =   1.8159055041551E+02
(PID.TID 0000.0001) %MON exf_lwflux_min               =   2.7054912708551E+01
(PID.TID 0000.0001) %MON exf_lwflux_mean              =   7.5259486032251E+01
(PID.TID 0000.0001) %MON exf_lwflux_sd                =   4.2774119981037E+01
(PID.TID 0000.0001) %MON exf_lwflux_del2              =   3.2323005465739E+00
(PID.TID 0000.0001) %MON exf_precip_max               =   1.0499733310606E-07
(PID.TID 0000.0001) %MON exf_precip_min               =   2.7265750163496E-10
(PID.TID 0000.0001) %MON exf_precip_mean              =   3.6390004634845E-08
(PID.TID 0000.0001) %MON exf_precip_sd                =   2.0581314966068E-08
(PID.TID 0000.0001) %MON exf_precip_del2              =   2.5588488380710E-09
(PID.TID 0000.0001) %MON exf_snowprecip_max           =   0.0000000000000E+00
(PID.TID 0000.0001) %MON exf_snowprecip_min           =   0.0000000000000E+00
(PID.TID 0000.0001) %MON exf_snowprecip_mean          =   0.0000000000000E+00
(PID.TID 0000.0001) %MON exf_snowprecip_sd            =   0.0000000000000E+00
(PID.TID 0000.0001) %MON exf_snowprecip_del2          =   0.0000000000000E+00
(PID.TID 0000.0001) %MON exf_swflux_max               =  -8.1207735616653E-02
(PID.TID 0000.0001) %MON exf_swflux_min               =  -6.4105206467675E+01
(PID.TID 0000.0001) %MON exf_swflux_mean              =  -2.6526948534072E+01
(PID.TID 0000.0001) %MON exf_swflux_sd                =   1.9652762825246E+01
(PID.TID 0000.0001) %MON exf_swflux_del2              =   4.7976088317456E-01
(PID.TID 0000.0001) %MON exf_evap_max                 =   4.5344313356313E-08
(PID.TID 0000.0001) %MON exf_evap_min                 =  -4.2074596052557E-09
(PID.TID 0000.0001) %MON exf_evap_mean                =   1.0446343785839E-08
(PID.TID 0000.0001) %MON exf_evap_sd                  =   1.1077265498009E-08
(PID.TID 0000.0001) %MON exf_evap_del2                =   1.3331822159485E-09
(PID.TID 0000.0001) %MON exf_swdown_max               =   7.1228007186306E+01
(PID.TID 0000.0001) %MON exf_swdown_min               =   9.0230817351836E-02
(PID.TID 0000.0001) %MON exf_swdown_mean              =   2.9474387260081E+01
(PID.TID 0000.0001) %MON exf_swdown_sd                =   2.1836403139162E+01
(PID.TID 0000.0001) %MON exf_swdown_del2              =   5.3306764797174E-01
(PID.TID 0000.0001) %MON exf_lwdown_max               =   3.0561793543081E+02
(PID.TID 0000.0001) %MON exf_lwdown_min               =   1.1589194395764E+02
(PID.TID 0000.0001) %MON exf_lwdown_mean              =   2.2583936565568E+02
(PID.TID 0000.0001) %MON exf_lwdown_sd                =   4.6305239399294E+01
(PID.TID 0000.0001) %MON exf_lwdown_del2              =   3.2439027772011E+00
(PID.TID 0000.0001) %MON exf_apressure_max            =   0.0000000000000E+00
(PID.TID 0000.0001) %MON exf_apressure_min            =   0.0000000000000E+00
(PID.TID 0000.0001) %MON exf_apressure_mean           =   0.0000000000000E+00
(PID.TID 0000.0001) %MON exf_apressure_sd             =   0.0000000000000E+00
(PID.TID 0000.0001) %MON exf_apressure_del2           =   0.0000000000000E+00
(PID.TID 0000.0001) %MON exf_runoff_max               =   0.0000000000000E+00
(PID.TID 0000.0001) %MON exf_runoff_min               =   0.0000000000000E+00
(PID.TID 0000.0001) %MON exf_runoff_mean              =   0.0000000000000E+00
(PID.TID 0000.0001) %MON exf_runoff_sd                =   0.0000000000000E+00
(PID.TID 0000.0001) %MON exf_runoff_del2              =   0.0000000000000E+00
(PID.TID 0000.0001) %MON exf_climsst_max              =   0.0000000000000E+00
(PID.TID 0000.0001) %MON exf_climsst_min              =   0.0000000000000E+00
(PID.TID 0000.0001) %MON exf_climsst_mean             =   0.0000000000000E+00
(PID.TID 0000.0001) %MON exf_climsst_sd               =   0.0000000000000E+00
(PID.TID 0000.0001) %MON exf_climsst_del2             =   0.0000000000000E+00
(PID.TID 0000.0001) %MON exf_climsss_max              =   3.5041624116116E+01
(PID.TID 0000.0001) %MON exf_climsss_min              =   3.0671628467372E+01
(PID.TID 0000.0001) %MON exf_climsss_mean             =   3.3462968935345E+01
(PID.TID 0000.0001) %MON exf_climsss_sd               =   1.0314580197633E+00
(PID.TID 0000.0001) %MON exf_climsss_del2             =   1.0007335642865E-01
(PID.TID 0000.0001) // =======================================================
(PID.TID 0000.0001) // End MONITOR EXF statistics
(PID.TID 0000.0001) // =======================================================
 ph-ice B  7  0.  0.  0.
 ph-ice C  7  4.07568401E+11
 cg2d: Sum(rhs),rhsMax =   3.08544261147514E-08  1.18167591050415E+00
(PID.TID 0000.0001) // =======================================================
(PID.TID 0000.0001) // Begin MONITOR SEAICE statistics
(PID.TID 0000.0001) // =======================================================
(PID.TID 0000.0001) %MON seaice_tsnumber              =                     8
(PID.TID 0000.0001) %MON seaice_time_sec              =   2.8800000000000E+04
(PID.TID 0000.0001) %MON seaice_uice_max              =   2.6752914899467E-01
(PID.TID 0000.0001) %MON seaice_uice_min              =  -8.8502450662315E-02
(PID.TID 0000.0001) %MON seaice_uice_mean             =   6.9613818362489E-02
(PID.TID 0000.0001) %MON seaice_uice_sd               =   8.3091552258773E-02
(PID.TID 0000.0001) %MON seaice_uice_del2             =   8.8606974153805E-03
(PID.TID 0000.0001) %MON seaice_vice_max              =   8.6568020765427E-02
(PID.TID 0000.0001) %MON seaice_vice_min              =  -2.2434575866045E-01
(PID.TID 0000.0001) %MON seaice_vice_mean             =  -6.1223824207085E-02
(PID.TID 0000.0001) %MON seaice_vice_sd               =   7.0132212625506E-02
(PID.TID 0000.0001) %MON seaice_vice_del2             =   8.0005922146764E-03
(PID.TID 0000.0001) %MON seaice_area_max              =   1.0000000000000E+00
(PID.TID 0000.0001) %MON seaice_area_min              =   0.0000000000000E+00
(PID.TID 0000.0001) %MON seaice_area_mean             =   6.2402836079649E-01
(PID.TID 0000.0001) %MON seaice_area_sd               =   4.5740427194650E-01
(PID.TID 0000.0001) %MON seaice_area_del2             =   5.3616887358496E-02
(PID.TID 0000.0001) %MON seaice_heff_max              =   5.4845941034808E-01
(PID.TID 0000.0001) %MON seaice_heff_min              =   0.0000000000000E+00
(PID.TID 0000.0001) %MON seaice_heff_mean             =   1.4210903502344E-01
(PID.TID 0000.0001) %MON seaice_heff_sd               =   1.7454245109890E-01
(PID.TID 0000.0001) %MON seaice_heff_del2             =   1.3199936762410E-02
(PID.TID 0000.0001) %MON seaice_hsnow_max             =   2.0628031960974E-01
(PID.TID 0000.0001) %MON seaice_hsnow_min             =   0.0000000000000E+00
(PID.TID 0000.0001) %MON seaice_hsnow_mean            =   1.1873224113028E-01
(PID.TID 0000.0001) %MON seaice_hsnow_sd              =   9.7409172567677E-02
(PID.TID 0000.0001) %MON seaice_hsnow_del2            =   6.5932180705383E-03
(PID.TID 0000.0001) // =======================================================
(PID.TID 0000.0001) // End MONITOR SEAICE statistics
(PID.TID 0000.0001) // =======================================================
(PID.TID 0000.0001) // =======================================================
(PID.TID 0000.0001) // Begin MONITOR EXF statistics
(PID.TID 0000.0001) // =======================================================
(PID.TID 0000.0001) %MON exf_tsnumber                 =                     8
(PID.TID 0000.0001) %MON exf_time_sec                 =   2.8800000000000E+04
(PID.TID 0000.0001) %MON exf_ustress_max              =   5.2249214879889E-02
(PID.TID 0000.0001) %MON exf_ustress_min              =  -9.3798929022902E-02
(PID.TID 0000.0001) %MON exf_ustress_mean             =   1.7966526544612E-02
(PID.TID 0000.0001) %MON exf_ustress_sd               =   2.3731956944524E-02
(PID.TID 0000.0001) %MON exf_ustress_del2             =   2.8199336428051E-03
(PID.TID 0000.0001) %MON exf_vstress_max              =   5.3835262836832E-02
(PID.TID 0000.0001) %MON exf_vstress_min              =  -5.8423863250611E-02
(PID.TID 0000.0001) %MON exf_vstress_mean             =  -5.4366065973766E-03
(PID.TID 0000.0001) %MON exf_vstress_sd               =   1.4450709129524E-02
(PID.TID 0000.0001) %MON exf_vstress_del2             =   1.6932448792064E-03
(PID.TID 0000.0001) %MON exf_hflux_max                =   6.2516667571594E+02
(PID.TID 0000.0001) %MON exf_hflux_min                =  -5.1290005263059E+01
(PID.TID 0000.0001) %MON exf_hflux_mean               =   1.4644485881974E+02
(PID.TID 0000.0001) %MON exf_hflux_sd                 =   1.8007070355389E+02
(PID.TID 0000.0001) %MON exf_hflux_del2               =   1.6310952571811E+01
(PID.TID 0000.0001) %MON exf_sflux_max                =   3.9024984842026E-08
(PID.TID 0000.0001) %MON exf_sflux_min                =  -8.8852274166808E-08
(PID.TID 0000.0001) %MON exf_sflux_mean               =  -2.5937382747508E-08
(PID.TID 0000.0001) %MON exf_sflux_sd                 =   3.0352650753117E-08
(PID.TID 0000.0001) %MON exf_sflux_del2               =   3.1646103940852E-09
(PID.TID 0000.0001) %MON exf_uwind_max                =   6.4684341618272E+00
(PID.TID 0000.0001) %MON exf_uwind_min                =  -6.8374523269674E+00
(PID.TID 0000.0001) %MON exf_uwind_mean               =   2.7706331523584E+00
(PID.TID 0000.0001) %MON exf_uwind_sd                 =   2.9922491036980E+00
(PID.TID 0000.0001) %MON exf_uwind_del2               =   3.1577589455021E-01
(PID.TID 0000.0001) %MON exf_vwind_max                =   3.9243096588739E+00
(PID.TID 0000.0001) %MON exf_vwind_min                =  -6.0124561096150E+00
(PID.TID 0000.0001) %MON exf_vwind_mean               =  -7.5595649652871E-01
(PID.TID 0000.0001) %MON exf_vwind_sd                 =   1.7302112611019E+00
(PID.TID 0000.0001) %MON exf_vwind_del2               =   1.9327792057372E-01
(PID.TID 0000.0001) %MON exf_wspeed_max               =   7.8835880550853E+00
(PID.TID 0000.0001) %MON exf_wspeed_min               =   4.5840953253040E-01
(PID.TID 0000.0001) %MON exf_wspeed_mean              =   4.1989448725728E+00
(PID.TID 0000.0001) %MON exf_wspeed_sd                =   1.6012263903992E+00
(PID.TID 0000.0001) %MON exf_wspeed_del2              =   3.7736312737620E-01
(PID.TID 0000.0001) %MON exf_atemp_max                =   2.8186911527707E+02
(PID.TID 0000.0001) %MON exf_atemp_min                =   2.3642604936277E+02
(PID.TID 0000.0001) %MON exf_atemp_mean               =   2.6390890607375E+02
(PID.TID 0000.0001) %MON exf_atemp_sd                 =   1.1995116212431E+01
(PID.TID 0000.0001) %MON exf_atemp_del2               =   6.4957710131818E-01
(PID.TID 0000.0001) %MON exf_aqh_max                  =   6.3176006167781E-03
(PID.TID 0000.0001) %MON exf_aqh_min                  =   1.6293992018683E-04
(PID.TID 0000.0001) %MON exf_aqh_mean                 =   2.4758800589519E-03
(PID.TID 0000.0001) %MON exf_aqh_sd                   =   1.4256836550895E-03
(PID.TID 0000.0001) %MON exf_aqh_del2                 =   6.8032440110466E-05
(PID.TID 0000.0001) %MON exf_lwflux_max               =   1.8160657786430E+02
(PID.TID 0000.0001) %MON exf_lwflux_min               =   2.7042773773003E+01
(PID.TID 0000.0001) %MON exf_lwflux_mean              =   7.5278579244397E+01
(PID.TID 0000.0001) %MON exf_lwflux_sd                =   4.2775412419521E+01
(PID.TID 0000.0001) %MON exf_lwflux_del2              =   3.2322609718753E+00
(PID.TID 0000.0001) %MON exf_precip_max               =   1.0499871454869E-07
(PID.TID 0000.0001) %MON exf_precip_min               =   2.7252357516229E-10
(PID.TID 0000.0001) %MON exf_precip_mean              =   3.6389993790810E-08
(PID.TID 0000.0001) %MON exf_precip_sd                =   2.0581769987393E-08
(PID.TID 0000.0001) %MON exf_precip_del2              =   2.5593765312607E-09
(PID.TID 0000.0001) %MON exf_snowprecip_max           =   0.0000000000000E+00
(PID.TID 0000.0001) %MON exf_snowprecip_min           =   0.0000000000000E+00
(PID.TID 0000.0001) %MON exf_snowprecip_mean          =   0.0000000000000E+00
(PID.TID 0000.0001) %MON exf_snowprecip_sd            =   0.0000000000000E+00
(PID.TID 0000.0001) %MON exf_snowprecip_del2          =   0.0000000000000E+00
(PID.TID 0000.0001) %MON exf_swflux_max               =  -8.1208018494434E-02
(PID.TID 0000.0001) %MON exf_swflux_min               =  -6.4124076818247E+01
(PID.TID 0000.0001) %MON exf_swflux_mean              =  -2.6537480749947E+01
(PID.TID 0000.0001) %MON exf_swflux_sd                =   1.9656602581253E+01
(PID.TID 0000.0001) %MON exf_swflux_del2              =   4.7986775712052E-01
(PID.TID 0000.0001) %MON exf_evap_max                 =   4.5343890978676E-08
(PID.TID 0000.0001) %MON exf_evap_min                 =  -4.2045649096642E-09
(PID.TID 0000.0001) %MON exf_evap_mean                =   1.0452611043303E-08
(PID.TID 0000.0001) %MON exf_evap_sd                  =   1.1076424145485E-08
(PID.TID 0000.0001) %MON exf_evap_del2                =   1.3336036684248E-09
(PID.TID 0000.0001) %MON exf_swdown_max               =   7.1248974242497E+01
(PID.TID 0000.0001) %MON exf_swdown_min               =   9.0231131660482E-02
(PID.TID 0000.0001) %MON exf_swdown_mean              =   2.9486089722164E+01
(PID.TID 0000.0001) %MON exf_swdown_sd                =   2.1840669534725E+01
(PID.TID 0000.0001) %MON exf_swdown_del2              =   5.3318639680058E-01
(PID.TID 0000.0001) %MON exf_lwdown_max               =   3.0560910934698E+02
(PID.TID 0000.0001) %MON exf_lwdown_min               =   1.1587683707899E+02
(PID.TID 0000.0001) %MON exf_lwdown_mean              =   2.2582365832661E+02
(PID.TID 0000.0001) %MON exf_lwdown_sd                =   4.6309216947189E+01
(PID.TID 0000.0001) %MON exf_lwdown_del2              =   3.2439144172738E+00
(PID.TID 0000.0001) %MON exf_apressure_max            =   0.0000000000000E+00
(PID.TID 0000.0001) %MON exf_apressure_min            =   0.0000000000000E+00
(PID.TID 0000.0001) %MON exf_apressure_mean           =   0.0000000000000E+00
(PID.TID 0000.0001) %MON exf_apressure_sd             =   0.0000000000000E+00
(PID.TID 0000.0001) %MON exf_apressure_del2           =   0.0000000000000E+00
(PID.TID 0000.0001) %MON exf_runoff_max               =   0.0000000000000E+00
(PID.TID 0000.0001) %MON exf_runoff_min               =   0.0000000000000E+00
(PID.TID 0000.0001) %MON exf_runoff_mean              =   0.0000000000000E+00
(PID.TID 0000.0001) %MON exf_runoff_sd                =   0.0000000000000E+00
(PID.TID 0000.0001) %MON exf_runoff_del2              =   0.0000000000000E+00
(PID.TID 0000.0001) %MON exf_climsst_max              =   0.0000000000000E+00
(PID.TID 0000.0001) %MON exf_climsst_min              =   0.0000000000000E+00
(PID.TID 0000.0001) %MON exf_climsst_mean             =   0.0000000000000E+00
(PID.TID 0000.0001) %MON exf_climsst_sd               =   0.0000000000000E+00
(PID.TID 0000.0001) %MON exf_climsst_del2             =   0.0000000000000E+00
(PID.TID 0000.0001) %MON exf_climsss_max              =   3.5041808863155E+01
(PID.TID 0000.0001) %MON exf_climsss_min              =   3.0672387795370E+01
(PID.TID 0000.0001) %MON exf_climsss_mean             =   3.3463490268825E+01
(PID.TID 0000.0001) %MON exf_climsss_sd               =   1.0313879583737E+00
(PID.TID 0000.0001) %MON exf_climsss_del2             =   1.0005612713826E-01
(PID.TID 0000.0001) // =======================================================
(PID.TID 0000.0001) // End MONITOR EXF statistics
(PID.TID 0000.0001) // =======================================================
 ph-ice B  8  0.  0.  0.
 ph-ice C  8  4.58144897E+11
 cg2d: Sum(rhs),rhsMax =   2.95456495762181E-08  1.16732732293098E+00
(PID.TID 0000.0001) // =======================================================
(PID.TID 0000.0001) // Begin MONITOR SEAICE statistics
(PID.TID 0000.0001) // =======================================================
(PID.TID 0000.0001) %MON seaice_tsnumber              =                     9
(PID.TID 0000.0001) %MON seaice_time_sec              =   3.2400000000000E+04
(PID.TID 0000.0001) %MON seaice_uice_max              =   2.6896861507220E-01
(PID.TID 0000.0001) %MON seaice_uice_min              =  -8.0042763881151E-02
(PID.TID 0000.0001) %MON seaice_uice_mean             =   6.2853615443034E-02
(PID.TID 0000.0001) %MON seaice_uice_sd               =   7.9023440387205E-02
(PID.TID 0000.0001) %MON seaice_uice_del2             =   7.8428555662567E-03
(PID.TID 0000.0001) %MON seaice_vice_max              =   7.8808436804591E-02
(PID.TID 0000.0001) %MON seaice_vice_min              =  -2.0876036223803E-01
(PID.TID 0000.0001) %MON seaice_vice_mean             =  -5.8595964979770E-02
(PID.TID 0000.0001) %MON seaice_vice_sd               =   6.4348792983534E-02
(PID.TID 0000.0001) %MON seaice_vice_del2             =   7.5771894528013E-03
(PID.TID 0000.0001) %MON seaice_area_max              =   1.0000000000000E+00
(PID.TID 0000.0001) %MON seaice_area_min              =   0.0000000000000E+00
(PID.TID 0000.0001) %MON seaice_area_mean             =   6.2385265170578E-01
(PID.TID 0000.0001) %MON seaice_area_sd               =   4.5701608080597E-01
(PID.TID 0000.0001) %MON seaice_area_del2             =   5.3473191317272E-02
(PID.TID 0000.0001) %MON seaice_heff_max              =   5.4880172478772E-01
(PID.TID 0000.0001) %MON seaice_heff_min              =   0.0000000000000E+00
(PID.TID 0000.0001) %MON seaice_heff_mean             =   1.4197193616812E-01
(PID.TID 0000.0001) %MON seaice_heff_sd               =   1.7470090171470E-01
(PID.TID 0000.0001) %MON seaice_heff_del2             =   1.3179499925373E-02
(PID.TID 0000.0001) %MON seaice_hsnow_max             =   2.0706544703537E-01
(PID.TID 0000.0001) %MON seaice_hsnow_min             =   0.0000000000000E+00
(PID.TID 0000.0001) %MON seaice_hsnow_mean            =   1.1888097079590E-01
(PID.TID 0000.0001) %MON seaice_hsnow_sd              =   9.7521343276567E-02
(PID.TID 0000.0001) %MON seaice_hsnow_del2            =   6.6252286416708E-03
(PID.TID 0000.0001) // =======================================================
(PID.TID 0000.0001) // End MONITOR SEAICE statistics
(PID.TID 0000.0001) // =======================================================
(PID.TID 0000.0001) // =======================================================
(PID.TID 0000.0001) // Begin MONITOR EXF statistics
(PID.TID 0000.0001) // =======================================================
(PID.TID 0000.0001) %MON exf_tsnumber                 =                     9
(PID.TID 0000.0001) %MON exf_time_sec                 =   3.2400000000000E+04
(PID.TID 0000.0001) %MON exf_ustress_max              =   5.2253931426818E-02
(PID.TID 0000.0001) %MON exf_ustress_min              =  -9.3801402378647E-02
(PID.TID 0000.0001) %MON exf_ustress_mean             =   1.7972506673815E-02
(PID.TID 0000.0001) %MON exf_ustress_sd               =   2.3737459996990E-02
(PID.TID 0000.0001) %MON exf_ustress_del2             =   2.8207095695397E-03
(PID.TID 0000.0001) %MON exf_vstress_max              =   5.3836885571562E-02
(PID.TID 0000.0001) %MON exf_vstress_min              =  -5.8402245559186E-02
(PID.TID 0000.0001) %MON exf_vstress_mean             =  -5.4330607051574E-03
(PID.TID 0000.0001) %MON exf_vstress_sd               =   1.4451995075785E-02
(PID.TID 0000.0001) %MON exf_vstress_del2             =   1.6932507278923E-03
(PID.TID 0000.0001) %MON exf_hflux_max                =   6.2523607820780E+02
(PID.TID 0000.0001) %MON exf_hflux_min                =  -5.1341825210329E+01
(PID.TID 0000.0001) %MON exf_hflux_mean               =   1.4650264452001E+02
(PID.TID 0000.0001) %MON exf_hflux_sd                 =   1.8009643465197E+02
(PID.TID 0000.0001) %MON exf_hflux_del2               =   1.6313517999020E+01
(PID.TID 0000.0001) %MON exf_sflux_max                =   3.9027165063372E-08
(PID.TID 0000.0001) %MON exf_sflux_min                =  -8.8881916051097E-08
(PID.TID 0000.0001) %MON exf_sflux_mean               =  -2.5931973468755E-08
(PID.TID 0000.0001) %MON exf_sflux_sd                 =   3.0353385795288E-08
(PID.TID 0000.0001) %MON exf_sflux_del2               =   3.1652745677495E-09
(PID.TID 0000.0001) %MON exf_uwind_max                =   6.4689416142761E+00
(PID.TID 0000.0001) %MON exf_uwind_min                =  -6.8374791086697E+00
(PID.TID 0000.0001) %MON exf_uwind_mean               =   2.7707407047028E+00
(PID.TID 0000.0001) %MON exf_uwind_sd                 =   2.9925253914175E+00
(PID.TID 0000.0001) %MON exf_uwind_del2               =   3.1578823099586E-01
(PID.TID 0000.0001) %MON exf_vwind_max                =   3.9243398396695E+00
(PID.TID 0000.0001) %MON exf_vwind_min                =  -6.0115501997901E+00
(PID.TID 0000.0001) %MON exf_vwind_mean               =  -7.5533872343860E-01
(PID.TID 0000.0001) %MON exf_vwind_sd                 =   1.7303202080462E+00
(PID.TID 0000.0001) %MON exf_vwind_del2               =   1.9327127420947E-01
(PID.TID 0000.0001) %MON exf_wspeed_max               =   7.8836263063842E+00
(PID.TID 0000.0001) %MON exf_wspeed_min               =   4.5816671047235E-01
(PID.TID 0000.0001) %MON exf_wspeed_mean              =   4.1990483480424E+00
(PID.TID 0000.0001) %MON exf_wspeed_sd                =   1.6014836406520E+00
(PID.TID 0000.0001) %MON exf_wspeed_del2              =   3.7741640417905E-01
(PID.TID 0000.0001) %MON exf_atemp_max                =   2.8186740312420E+02
(PID.TID 0000.0001) %MON exf_atemp_min                =   2.3642158439511E+02
(PID.TID 0000.0001) %MON exf_atemp_mean               =   2.6390426198445E+02
(PID.TID 0000.0001) %MON exf_atemp_sd                 =   1.1996580639314E+01
(PID.TID 0000.0001) %MON exf_atemp_del2               =   6.4959643564840E-01
(PID.TID 0000.0001) %MON exf_aqh_max                  =   6.3169040759170E-03
(PID.TID 0000.0001) %MON exf_aqh_min                  =   1.6284581668843E-04
(PID.TID 0000.0001) %MON exf_aqh_mean                 =   2.4753197025473E-03
(PID.TID 0000.0001) %MON exf_aqh_sd                   =   1.4255808388841E-03
(PID.TID 0000.0001) %MON exf_aqh_del2                 =   6.8018772549319E-05
(PID.TID 0000.0001) %MON exf_lwflux_max               =   1.8162256096870E+02
(PID.TID 0000.0001) %MON exf_lwflux_min               =   2.7024547892208E+01
(PID.TID 0000.0001) %MON exf_lwflux_mean              =   7.5295926875264E+01
(PID.TID 0000.0001) %MON exf_lwflux_sd                =   4.2777924751620E+01
(PID.TID 0000.0001) %MON exf_lwflux_del2              =   3.2320929915550E+00
(PID.TID 0000.0001) %MON exf_precip_max               =   1.0500009599131E-07
(PID.TID 0000.0001) %MON exf_precip_min               =   2.7238964868961E-10
(PID.TID 0000.0001) %MON exf_precip_mean              =   3.6389982946776E-08
(PID.TID 0000.0001) %MON exf_precip_sd                =   2.0582225664103E-08
(PID.TID 0000.0001) %MON exf_precip_del2              =   2.5599042244504E-09
(PID.TID 0000.0001) %MON exf_snowprecip_max           =   0.0000000000000E+00
(PID.TID 0000.0001) %MON exf_snowprecip_min           =   0.0000000000000E+00
(PID.TID 0000.0001) %MON exf_snowprecip_mean          =   0.0000000000000E+00
(PID.TID 0000.0001) %MON exf_snowprecip_sd            =   0.0000000000000E+00
(PID.TID 0000.0001) %MON exf_snowprecip_del2          =   0.0000000000000E+00
(PID.TID 0000.0001) %MON exf_swflux_max               =  -8.1208301372215E-02
(PID.TID 0000.0001) %MON exf_swflux_min               =  -6.4142947168819E+01
(PID.TID 0000.0001) %MON exf_swflux_mean              =  -2.6548012965822E+01
(PID.TID 0000.0001) %MON exf_swflux_sd                =   1.9660442927159E+01
(PID.TID 0000.0001) %MON exf_swflux_del2              =   4.7997463106648E-01
(PID.TID 0000.0001) %MON exf_evap_max                 =   4.5345408489091E-08
(PID.TID 0000.0001) %MON exf_evap_min                 =  -4.2118523685427E-09
(PID.TID 0000.0001) %MON exf_evap_mean                =   1.0458009478021E-08
(PID.TID 0000.0001) %MON exf_evap_sd                  =   1.1076057160533E-08
(PID.TID 0000.0001) %MON exf_evap_del2                =   1.3338847862079E-09
(PID.TID 0000.0001) %MON exf_swdown_max               =   7.1269941298688E+01
(PID.TID 0000.0001) %MON exf_swdown_min               =   9.0231445969128E-02
(PID.TID 0000.0001) %MON exf_swdown_mean              =   2.9497792184247E+01
(PID.TID 0000.0001) %MON exf_swdown_sd                =   2.1844936585733E+01
(PID.TID 0000.0001) %MON exf_swdown_del2              =   5.3330514562942E-01
(PID.TID 0000.0001) %MON exf_lwdown_max               =   3.0560028326316E+02
(PID.TID 0000.0001) %MON exf_lwdown_min               =   1.1586173020035E+02
(PID.TID 0000.0001) %MON exf_lwdown_mean              =   2.2580795099755E+02
(PID.TID 0000.0001) %MON exf_lwdown_sd                =   4.6313195660870E+01
(PID.TID 0000.0001) %MON exf_lwdown_del2              =   3.2439260573465E+00
(PID.TID 0000.0001) %MON exf_apressure_max            =   0.0000000000000E+00
(PID.TID 0000.0001) %MON exf_apressure_min            =   0.0000000000000E+00
(PID.TID 0000.0001) %MON exf_apressure_mean           =   0.0000000000000E+00
(PID.TID 0000.0001) %MON exf_apressure_sd             =   0.0000000000000E+00
(PID.TID 0000.0001) %MON exf_apressure_del2           =   0.0000000000000E+00
(PID.TID 0000.0001) %MON exf_runoff_max               =   0.0000000000000E+00
(PID.TID 0000.0001) %MON exf_runoff_min               =   0.0000000000000E+00
(PID.TID 0000.0001) %MON exf_runoff_mean              =   0.0000000000000E+00
(PID.TID 0000.0001) %MON exf_runoff_sd                =   0.0000000000000E+00
(PID.TID 0000.0001) %MON exf_runoff_del2              =   0.0000000000000E+00
(PID.TID 0000.0001) %MON exf_climsst_max              =   0.0000000000000E+00
(PID.TID 0000.0001) %MON exf_climsst_min              =   0.0000000000000E+00
(PID.TID 0000.0001) %MON exf_climsst_mean             =   0.0000000000000E+00
(PID.TID 0000.0001) %MON exf_climsst_sd               =   0.0000000000000E+00
(PID.TID 0000.0001) %MON exf_climsst_del2             =   0.0000000000000E+00
(PID.TID 0000.0001) %MON exf_climsss_max              =   3.5041993610194E+01
(PID.TID 0000.0001) %MON exf_climsss_min              =   3.0673147123368E+01
(PID.TID 0000.0001) %MON exf_climsss_mean             =   3.3464011602304E+01
(PID.TID 0000.0001) %MON exf_climsss_sd               =   1.0313181272348E+00
(PID.TID 0000.0001) %MON exf_climsss_del2             =   1.0003889784787E-01
(PID.TID 0000.0001) // =======================================================
(PID.TID 0000.0001) // End MONITOR EXF statistics
(PID.TID 0000.0001) // =======================================================
 ph-ice B  9  0.  0.  0.
 ph-ice C  9  5.08667589E+11
 cg2d: Sum(rhs),rhsMax =   2.90787460430209E-08  1.15038865786267E+00
(PID.TID 0000.0001) // =======================================================
(PID.TID 0000.0001) // Begin MONITOR SEAICE statistics
(PID.TID 0000.0001) // =======================================================
(PID.TID 0000.0001) %MON seaice_tsnumber              =                    10
(PID.TID 0000.0001) %MON seaice_time_sec              =   3.6000000000000E+04
(PID.TID 0000.0001) %MON seaice_uice_max              =   2.6070861943780E-01
(PID.TID 0000.0001) %MON seaice_uice_min              =  -7.4569485539510E-02
(PID.TID 0000.0001) %MON seaice_uice_mean             =   5.6947632166112E-02
(PID.TID 0000.0001) %MON seaice_uice_sd               =   7.3694154184245E-02
(PID.TID 0000.0001) %MON seaice_uice_del2             =   6.9822575490527E-03
(PID.TID 0000.0001) %MON seaice_vice_max              =   7.2855153875468E-02
(PID.TID 0000.0001) %MON seaice_vice_min              =  -1.8167527199305E-01
(PID.TID 0000.0001) %MON seaice_vice_mean             =  -5.2953363379281E-02
(PID.TID 0000.0001) %MON seaice_vice_sd               =   5.6405685023284E-02
(PID.TID 0000.0001) %MON seaice_vice_del2             =   6.8591502031082E-03
(PID.TID 0000.0001) %MON seaice_area_max              =   1.0000000000000E+00
(PID.TID 0000.0001) %MON seaice_area_min              =   0.0000000000000E+00
(PID.TID 0000.0001) %MON seaice_area_mean             =   6.2310739047460E-01
(PID.TID 0000.0001) %MON seaice_area_sd               =   4.5675720846692E-01
(PID.TID 0000.0001) %MON seaice_area_del2             =   5.3102381561939E-02
(PID.TID 0000.0001) %MON seaice_heff_max              =   5.4914440244253E-01
(PID.TID 0000.0001) %MON seaice_heff_min              =   0.0000000000000E+00
(PID.TID 0000.0001) %MON seaice_heff_mean             =   1.4182090188611E-01
(PID.TID 0000.0001) %MON seaice_heff_sd               =   1.7482789739659E-01
(PID.TID 0000.0001) %MON seaice_heff_del2             =   1.3169917460312E-02
(PID.TID 0000.0001) %MON seaice_hsnow_max             =   2.0785054838240E-01
(PID.TID 0000.0001) %MON seaice_hsnow_min             =   0.0000000000000E+00
(PID.TID 0000.0001) %MON seaice_hsnow_mean            =   1.1901259261200E-01
(PID.TID 0000.0001) %MON seaice_hsnow_sd              =   9.7627028757953E-02
(PID.TID 0000.0001) %MON seaice_hsnow_del2            =   6.6467674491453E-03
(PID.TID 0000.0001) // =======================================================
(PID.TID 0000.0001) // End MONITOR SEAICE statistics
(PID.TID 0000.0001) // =======================================================
(PID.TID 0000.0001)  MDS_READ_FIELD: opening file: xx_atemp.0000000000.001.001.data
(PID.TID 0000.0001)  MDS_READ_FIELD: opening file: xx_atemp.0000000000.001.001.data
(PID.TID 0000.0001)  MDS_READ_FIELD: opening file: xx_atemp.0000000000.001.001.data
(PID.TID 0000.0001)  MDS_READ_FIELD: opening file: xx_atemp.0000000000.001.001.data
(PID.TID 0000.0001)  MDS_READ_FIELD: opening file: xx_aqh.0000000000.001.001.data
(PID.TID 0000.0001)  MDS_READ_FIELD: opening file: xx_aqh.0000000000.001.001.data
(PID.TID 0000.0001)  MDS_READ_FIELD: opening file: xx_aqh.0000000000.001.001.data
(PID.TID 0000.0001)  MDS_READ_FIELD: opening file: xx_aqh.0000000000.001.001.data
(PID.TID 0000.0001)  MDS_READ_FIELD: opening file: xx_uwind.0000000000.001.001.data
(PID.TID 0000.0001)  MDS_READ_FIELD: opening file: xx_uwind.0000000000.001.001.data
(PID.TID 0000.0001)  MDS_READ_FIELD: opening file: xx_uwind.0000000000.001.001.data
(PID.TID 0000.0001)  MDS_READ_FIELD: opening file: xx_uwind.0000000000.001.001.data
(PID.TID 0000.0001)  MDS_READ_FIELD: opening file: xx_vwind.0000000000.001.001.data
(PID.TID 0000.0001)  MDS_READ_FIELD: opening file: xx_vwind.0000000000.001.001.data
(PID.TID 0000.0001)  MDS_READ_FIELD: opening file: xx_vwind.0000000000.001.001.data
(PID.TID 0000.0001)  MDS_READ_FIELD: opening file: xx_vwind.0000000000.001.001.data
(PID.TID 0000.0001)  MDS_READ_FIELD: opening file: xx_precip.0000000000.001.001.data
(PID.TID 0000.0001)  MDS_READ_FIELD: opening file: xx_precip.0000000000.001.001.data
(PID.TID 0000.0001)  MDS_READ_FIELD: opening file: xx_precip.0000000000.001.001.data
(PID.TID 0000.0001)  MDS_READ_FIELD: opening file: xx_precip.0000000000.001.001.data
(PID.TID 0000.0001)  MDS_READ_FIELD: opening file: xx_swdown.0000000000.001.001.data
(PID.TID 0000.0001)  MDS_READ_FIELD: opening file: xx_swdown.0000000000.001.001.data
(PID.TID 0000.0001)  MDS_READ_FIELD: opening file: xx_swdown.0000000000.001.001.data
(PID.TID 0000.0001)  MDS_READ_FIELD: opening file: xx_swdown.0000000000.001.001.data
(PID.TID 0000.0001)  MDS_READ_FIELD: opening file: xx_lwdown.0000000000.001.001.data
(PID.TID 0000.0001)  MDS_READ_FIELD: opening file: xx_lwdown.0000000000.001.001.data
(PID.TID 0000.0001)  MDS_READ_FIELD: opening file: xx_lwdown.0000000000.001.001.data
(PID.TID 0000.0001)  MDS_READ_FIELD: opening file: xx_lwdown.0000000000.001.001.data
(PID.TID 0000.0001)  MDS_READ_FIELD: opening file: xx_snowprecip.0000000000.001.001.data
(PID.TID 0000.0001)  MDS_READ_FIELD: opening file: xx_snowprecip.0000000000.001.001.data
(PID.TID 0000.0001)  MDS_READ_FIELD: opening file: xx_snowprecip.0000000000.001.001.data
(PID.TID 0000.0001)  MDS_READ_FIELD: opening file: xx_snowprecip.0000000000.001.001.data
(PID.TID 0000.0001)  MDS_READ_FIELD: opening file: xx_apressure.0000000000.001.001.data
(PID.TID 0000.0001)  MDS_READ_FIELD: opening file: xx_apressure.0000000000.001.001.data
(PID.TID 0000.0001)  MDS_READ_FIELD: opening file: xx_apressure.0000000000.001.001.data
(PID.TID 0000.0001)  MDS_READ_FIELD: opening file: xx_apressure.0000000000.001.001.data
(PID.TID 0000.0001)  MDS_READ_FIELD: opening file: psbar.0000000000.001.001.data
(PID.TID 0000.0001)  cost_ssh: offset_sum =  0.710000000000000E+02
(PID.TID 0000.0001)  MDS_READ_FIELD: opening file: psbar.0000000000.001.001.data
(PID.TID 0000.0001) ph-cost call cost_sst
(PID.TID 0000.0001)  MDS_READ_FIELD: opening file: tbar.0000000000.001.001.data
(PID.TID 0000.0001) ph-cost call cost_theta
(PID.TID 0000.0001)  MDS_READ_FIELD: opening file: tbar.0000000000.001.001.data
(PID.TID 0000.0001) ph-cost call cost_salt
(PID.TID 0000.0001)  MDS_READ_FIELD: opening file: sbar.0000000000.001.001.data
(PID.TID 0000.0001) ph-cost call cost_smrarea
(PID.TID 0000.0001) ph-cost smrarea   0.0000000000E+00  0.0000000000E+00
 --> f_ice     = 0.508667588613098E+12
 --> f_smrarea = 0.000000000000000E+00
 --> f_temp    = 0.000000000000000E+00
 --> f_salt    = 0.000000000000000E+00
 --> f_temp0   = 0.000000000000000E+00
 --> f_salt0   = 0.000000000000000E+00
 --> f_temp0smoo = 0.000000000000000E+00
 --> f_salt0smoo = 0.000000000000000E+00
 --> f_sst     = 0.423905164098506E+04
 --> f_tmi     = 0.000000000000000E+00
 --> f_sss     = 0.000000000000000E+00
 --> f_ssh       = 0.000000000000000E+00
 --> f_tp        = 0.000000000000000E+00
 --> f_ers       = 0.000000000000000E+00
 --> f_gfo       = 0.000000000000000E+00
 --> f_tauu    = 0.000000000000000E+00
 --> f_tauum   = 0.000000000000000E+00
 --> f_tauusmoo = 0.000000000000000E+00
 --> f_tauv    = 0.000000000000000E+00
 --> f_tauvm   = 0.000000000000000E+00
 --> f_tauvsmoo = 0.000000000000000E+00
 --> f_hflux   = 0.000000000000000E+00
 --> f_hfluxm  = 0.000000000000000E+00
 --> f_hfluxmm = 0.000000000000000E+00
 --> f_hfluxsmoo = 0.000000000000000E+00
 --> f_sflux   = 0.000000000000000E+00
 --> f_sfluxm  = 0.000000000000000E+00
 --> f_sfluxmm = 0.000000000000000E+00
 --> f_sfluxsmoo = 0.000000000000000E+00
 --> f_uwind     = 0.000000000000000E+00
 --> f_vwind     = 0.000000000000000E+00
 --> f_atemp     = 0.200000000000000E-07
 --> f_aqh     = 0.000000000000000E+00
 --> f_precip  = 0.000000000000000E+00
 --> f_swflux  = 0.000000000000000E+00
 --> f_swdown  = 0.000000000000000E+00
 --> f_uwindm     = 0.000000000000000E+00
 --> f_vwindm     = 0.000000000000000E+00
 --> f_atempm     = 0.250000000000000E-08
 --> f_aqhm     = 0.000000000000000E+00
 --> f_precipm  = 0.000000000000000E+00
 --> f_swfluxm  = 0.000000000000000E+00
 --> f_swdownm  = 0.000000000000000E+00
 --> f_uwindsmoo     = 0.000000000000000E+00
 --> f_vwindsmoo     = 0.000000000000000E+00
 --> f_atempsmoo     = 0.000000000000000E+00
 --> f_aqhsmoo     = 0.000000000000000E+00
 --> f_precipsmoo  = 0.000000000000000E+00
 --> f_swfluxsmoo  = 0.000000000000000E+00
 --> f_swdownsmoo  = 0.000000000000000E+00
 --> f_atl     = 0.000000000000000E+00
 --> f_ctdt    = 0.000000000000000E+00
 --> f_ctds    = 0.000000000000000E+00
 --> f_ctdtclim= 0.000000000000000E+00
 --> f_ctdsclim= 0.000000000000000E+00
 --> f_xbt     = 0.000000000000000E+00
 --> f_argot   = 0.000000000000000E+00
 --> f_argos   = 0.000000000000000E+00
 --> f_drifter   = 0.000000000000000E+00
 --> f_tdrift  = 0.000000000000000E+00
 --> f_sdrift  = 0.000000000000000E+00
 --> f_wdrift  = 0.000000000000000E+00
 --> f_scatx   = 0.000000000000000E+00
 --> f_scaty   = 0.000000000000000E+00
 --> f_scatxm  = 0.000000000000000E+00
 --> f_scatym  = 0.000000000000000E+00
 --> f_obcsn   = 0.000000000000000E+00
 --> f_obcss   = 0.000000000000000E+00
 --> f_obcsw   = 0.000000000000000E+00
 --> f_obcse   = 0.000000000000000E+00
 --> f_ageos   = 0.000000000000000E+00
 --> f_curmtr  = 0.000000000000000E+00
 --> f_kapgm   = 0.000000000000000E+00
 --> f_diffkr  = 0.000000000000000E+00
 --> f_eddytau = 0.000000000000000E+00
 --> f_hfluxmm2           = 0.000000000000000E+00
 --> f_sfluxmm2           = 0.000000000000000E+00
 --> objf_hmean           = 0.920256467474248E-02
 --> fc               = 0.508667592852150E+12
 ph-check fcpertplus =   5.08667593E+11
(PID.TID 0000.0001)  MDS_READ_FIELD: opening file: xx_atemp.0000000000.001.001.data
 ph-check fcpertminus =   5.08667309E+11
(PID.TID 0000.0001)  MDS_READ_FIELD: opening file: xx_atemp.0000000000.001.001.data
(PID.TID 0000.0001) 
(PID.TID 0000.0001)  cal_TimeStamp: iter =          0 time =  0.00000000E+00
(PID.TID 0000.0001)                 date =   19790101           0
(PID.TID 0000.0001) 
(PID.TID 0000.0001) // =======================================================
(PID.TID 0000.0001) // Field Model R_low (ini_masks_etc) at iteration          1
(PID.TID 0000.0001) // CMIN =         -4.200000000000000E+03
(PID.TID 0000.0001) // CMAX =         -5.500000000000000E+01
(PID.TID 0000.0001) // CINT =          1.535185185185185E+02
(PID.TID 0000.0001) // SYMBOLS (CMIN->CMAX): -abcdefghijklmnopqrstuvwxyz+
(PID.TID 0000.0001) //                  0.0: .
(PID.TID 0000.0001) // RANGE I (Lo:Hi:Step):(  -2:  23:   1)
(PID.TID 0000.0001) // RANGE J (Lo:Hi:Step):(  19:  -2:  -1)
(PID.TID 0000.0001) // RANGE K (Lo:Hi:Step):(   1:   1:   1)
(PID.TID 0000.0001) // =======================================================
(PID.TID 0000.0001) K =   1
(PID.TID 0000.0001) //                I=7       I=17
(PID.TID 0000.0001) // |--J--|210123456|890123456|890123
(PID.TID 0000.0001) //     19 cc-..........+.zzxmgcc-...
(PID.TID 0000.0001) //     18 jc-.......+zzz..zzsmjc-...
(PID.TID 0000.0001) //     17 wc-........++z+++z+wwc-...
(PID.TID 0000.0001) //     16 ....zyyz................zy
(PID.TID 0000.0001) //     15 ...yxwwuspxyxz.........yxw
(PID.TID 0000.0001) //     14 ....+wwspppsxzz.........+w
(PID.TID 0000.0001) //     13 .......zwsppsyz...........
(PID.TID 0000.0001) //     12 .........+ypswzz+.........
(PID.TID 0000.0001) //     11 ...........+wwy+..........
(PID.TID 0000.0001) //     10 ..........zzzywy+.........
(PID.TID 0000.0001) //      9 ..z.......+zxsmmm+....z...
(PID.TID 0000.0001) //      8 ..s.....zzzxumjjjjuz..s...
(PID.TID 0000.0001) //      7 pmj......z.+zmjggggjpmj...
(PID.TID 0000.0001) //      6 ggg.........zxmjggggggg...
(PID.TID 0000.0001) //      5 ggg..........zzsjgggggg...
(PID.TID 0000.0001) //      4 ccg............zzmgcccg...
(PID.TID 0000.0001) //      3 cc-..........+.zzxmgcc-...
(PID.TID 0000.0001) //      2 jc-.......+zzz..zzsmjc-...
(PID.TID 0000.0001) //      1 wc-........++z+++z+wwc-...
(PID.TID 0000.0001) //      0 ....zyyz................zy
(PID.TID 0000.0001) //     -1 ...yxwwuspxyxz.........yxw
(PID.TID 0000.0001) //     -2 ....+wwspppsxzz.........+w
(PID.TID 0000.0001) // =======================================================
(PID.TID 0000.0001) // END OF FIELD                                          =
(PID.TID 0000.0001) // =======================================================
(PID.TID 0000.0001) 
(PID.TID 0000.0001) // =======================================================
(PID.TID 0000.0001) // Field Model Ro_surf (ini_masks_etc) at iteration          1
(PID.TID 0000.0001) // CMIN =          1.000000000000000E+32
(PID.TID 0000.0001) // CMAX =         -1.000000000000000E+32
(PID.TID 0000.0001) // CINT =          0.000000000000000E+00
(PID.TID 0000.0001) // SYMBOLS (CMIN->CMAX): -abcdefghijklmnopqrstuvwxyz+
(PID.TID 0000.0001) //                  0.0: .
(PID.TID 0000.0001) // RANGE I (Lo:Hi:Step):(  -2:  23:   1)
(PID.TID 0000.0001) // RANGE J (Lo:Hi:Step):(  19:  -2:  -1)
(PID.TID 0000.0001) // RANGE K (Lo:Hi:Step):(   1:   1:   1)
(PID.TID 0000.0001) // =======================================================
(PID.TID 0000.0001) // =======================================================
(PID.TID 0000.0001) // END OF FIELD                                          =
(PID.TID 0000.0001) // =======================================================
(PID.TID 0000.0001) 
(PID.TID 0000.0001) // =======================================================
(PID.TID 0000.0001) // Field hFacC at iteration          1
(PID.TID 0000.0001) // CMIN =          1.000000000000000E+00
(PID.TID 0000.0001) // CMAX =          1.000000000000000E+00
(PID.TID 0000.0001) // CINT =          0.000000000000000E+00
(PID.TID 0000.0001) // SYMBOLS (CMIN->CMAX): -abcdefghijklmnopqrstuvwxyz+
(PID.TID 0000.0001) //                  0.0: .
(PID.TID 0000.0001) // RANGE I (Lo:Hi:Step):(  -2:  23:   1)
(PID.TID 0000.0001) // RANGE J (Lo:Hi:Step):(  19:  -2:  -1)
(PID.TID 0000.0001) // RANGE K (Lo:Hi:Step):(   1:   1:   1)
(PID.TID 0000.0001) // =======================================================
(PID.TID 0000.0001) // =======================================================
(PID.TID 0000.0001) // END OF FIELD                                          =
(PID.TID 0000.0001) // =======================================================
(PID.TID 0000.0001) 
(PID.TID 0000.0001) // =======================================================
(PID.TID 0000.0001) // Field hFacW at iteration          1
(PID.TID 0000.0001) // CMIN =          1.000000000000000E+00
(PID.TID 0000.0001) // CMAX =          1.000000000000000E+00
(PID.TID 0000.0001) // CINT =          0.000000000000000E+00
(PID.TID 0000.0001) // SYMBOLS (CMIN->CMAX): -abcdefghijklmnopqrstuvwxyz+
(PID.TID 0000.0001) //                  0.0: .
(PID.TID 0000.0001) // RANGE I (Lo:Hi:Step):(  -2:  23:   1)
(PID.TID 0000.0001) // RANGE J (Lo:Hi:Step):(  19:  -2:  -1)
(PID.TID 0000.0001) // RANGE K (Lo:Hi:Step):(   1:   1:   1)
(PID.TID 0000.0001) // =======================================================
(PID.TID 0000.0001) // =======================================================
(PID.TID 0000.0001) // END OF FIELD                                          =
(PID.TID 0000.0001) // =======================================================
(PID.TID 0000.0001) 
(PID.TID 0000.0001) // =======================================================
(PID.TID 0000.0001) // Field hFacS at iteration          1
(PID.TID 0000.0001) // CMIN =          1.000000000000000E+00
(PID.TID 0000.0001) // CMAX =          1.000000000000000E+00
(PID.TID 0000.0001) // CINT =          0.000000000000000E+00
(PID.TID 0000.0001) // SYMBOLS (CMIN->CMAX): -abcdefghijklmnopqrstuvwxyz+
(PID.TID 0000.0001) //                  0.0: .
(PID.TID 0000.0001) // RANGE I (Lo:Hi:Step):(  -2:  23:   1)
(PID.TID 0000.0001) // RANGE J (Lo:Hi:Step):(  19:  -2:  -1)
(PID.TID 0000.0001) // RANGE K (Lo:Hi:Step):(   1:   1:   1)
(PID.TID 0000.0001) // =======================================================
(PID.TID 0000.0001) // =======================================================
(PID.TID 0000.0001) // END OF FIELD                                          =
(PID.TID 0000.0001) // =======================================================
(PID.TID 0000.0001) 
(PID.TID 0000.0001) %MON seaicefCori_max              =   1.4210453727344E-04
(PID.TID 0000.0001) %MON seaicefCori_min              =   1.0666243053630E-04
(PID.TID 0000.0001) %MON seaicefCori_mean             =   1.2711058365303E-04
(PID.TID 0000.0001) %MON seaicefCori_sd               =   1.1031533875266E-05
(PID.TID 0000.0001) %MON seaicefCoriG_max             =   1.4151032568025E-04
(PID.TID 0000.0001) %MON seaicefCoriG_min             =   1.0491029349513E-04
(PID.TID 0000.0001) %MON seaicefCoriG_mean            =   1.2591168756569E-04
(PID.TID 0000.0001) %MON seaicefCoriG_sd              =   1.1383815633153E-05
(PID.TID 0000.0001) %MON seaicefCoriCos_max           =   9.9464325599212E-05
(PID.TID 0000.0001) %MON seaicefCoriCos_min           =   3.2807417471054E-05
(PID.TID 0000.0001) %MON seaicefCoriCos_mean          =   6.7585896192312E-05
(PID.TID 0000.0001) %MON seaicefCoriCos_sd            =   2.0576140902612E-05
(PID.TID 0000.0001) INI_CG2D: CG2D normalisation factor =  1.6094939840939192E-04
(PID.TID 0000.0001) 
(PID.TID 0000.0001) // =======================================================
(PID.TID 0000.0001) // Field Initial Temperature at iteration          1
(PID.TID 0000.0001) // CMIN =          9.205863475799561E-01
(PID.TID 0000.0001) // CMAX =          1.333307647705078E+01
(PID.TID 0000.0001) // CINT =          4.597218566470676E-01
(PID.TID 0000.0001) // SYMBOLS (CMIN->CMAX): -abcdefghijklmnopqrstuvwxyz+
(PID.TID 0000.0001) //                  0.0: .
(PID.TID 0000.0001) // RANGE I (Lo:Hi:Step):(   1:  20:   1)
(PID.TID 0000.0001) // RANGE J (Lo:Hi:Step):(  16:   1:  -1)
(PID.TID 0000.0001) // RANGE K (Lo:Hi:Step):(   1:   1:   1)
(PID.TID 0000.0001) // =======================================================
(PID.TID 0000.0001) K =   1
(PID.TID 0000.0001)                I=10      I=20
(PID.TID 0000.0001) |--J--|123456789|123456789|
(PID.TID 0000.0001)     16 .----...............
(PID.TID 0000.0001)     15 aabaaaaaaaa.........
(PID.TID 0000.0001)     14 .ccccccbbbbc........
(PID.TID 0000.0001)     13 ....dddddddd........
(PID.TID 0000.0001)     12 ......dcdddddd......
(PID.TID 0000.0001)     11 ........cccdd.......
(PID.TID 0000.0001)     10 .......bbcdddd......
(PID.TID 0000.0001)      9 .......cdeeffff....j
(PID.TID 0000.0001)      8 .....ccdefgghhggh..k
(PID.TID 0000.0001)      7 ......d.fghiiiiiijkl
(PID.TID 0000.0001)      6 .........ghhijjjkklm
(PID.TID 0000.0001)      5 ..........hhhijklmnn
(PID.TID 0000.0001)      4 ............ghikmopq
(PID.TID 0000.0001)      3 ..........k.hhiknqsu
(PID.TID 0000.0001)      2 .......oonm..ijknqux
(PID.TID 0000.0001)      1 ........qponlkklosw+
(PID.TID 0000.0001) // =======================================================
(PID.TID 0000.0001) // END OF FIELD                                          =
(PID.TID 0000.0001) // =======================================================
(PID.TID 0000.0001) 
(PID.TID 0000.0001) // =======================================================
(PID.TID 0000.0001) // Field Initial Salinity at iteration          1
(PID.TID 0000.0001) // CMIN =          3.012869834899902E+01
(PID.TID 0000.0001) // CMAX =          3.487366104125977E+01
(PID.TID 0000.0001) // CINT =          1.757393589726201E-01
(PID.TID 0000.0001) // SYMBOLS (CMIN->CMAX): -abcdefghijklmnopqrstuvwxyz+
(PID.TID 0000.0001) //                  0.0: .
(PID.TID 0000.0001) // RANGE I (Lo:Hi:Step):(   1:  20:   1)
(PID.TID 0000.0001) // RANGE J (Lo:Hi:Step):(  16:   1:  -1)
(PID.TID 0000.0001) // RANGE K (Lo:Hi:Step):(   1:   1:   1)
(PID.TID 0000.0001) // =======================================================
(PID.TID 0000.0001) K =   1
(PID.TID 0000.0001)                I=10      I=20
(PID.TID 0000.0001) |--J--|123456789|123456789|
(PID.TID 0000.0001)     16 .nnos...............
(PID.TID 0000.0001)     15 lnoppppppol.........
(PID.TID 0000.0001)     14 .nponmllllmn........
(PID.TID 0000.0001)     13 ....ljhijkmo........
(PID.TID 0000.0001)     12 ......ghjlmors......
(PID.TID 0000.0001)     11 ........jmnpr.......
(PID.TID 0000.0001)     10 .......jlnpqrq......
(PID.TID 0000.0001)      9 .......noqsttts....w
(PID.TID 0000.0001)      8 .....jlnpsuvwwutu..x
(PID.TID 0000.0001)      7 ......j.rruwxyxxwxxy
(PID.TID 0000.0001)      6 .........ppruxyyzzzz
(PID.TID 0000.0001)      5 ..........ijoswyzzzz
(PID.TID 0000.0001)      4 ............iotwyzzz
(PID.TID 0000.0001)      3 ..........g.imquwyzz
(PID.TID 0000.0001)      2 .......-bef..knqtvxz
(PID.TID 0000.0001)      1 ........-cegijlosvy+
(PID.TID 0000.0001) // =======================================================
(PID.TID 0000.0001) // END OF FIELD                                          =
(PID.TID 0000.0001) // =======================================================
(PID.TID 0000.0001) 
(PID.TID 0000.0001) Start initial hydrostatic pressure computation
(PID.TID 0000.0001) Pressure is predetermined for buoyancyRelation OCEANIC
(PID.TID 0000.0001) 
(PID.TID 0000.0001)  MDS_READ_FIELD: opening file: xx_theta.0000000000.001.001.data
 ph-ctrl theta0 a   0.
 ph-ctrl theta0 b   0.
(PID.TID 0000.0001)  MDS_READ_FIELD: opening file: xx_salt.0000000000.001.001.data
(PID.TID 0000.0001) // =======================================================
(PID.TID 0000.0001) // Model current state
(PID.TID 0000.0001) // =======================================================
(PID.TID 0000.0001) 
(PID.TID 0000.0001) // =======================================================
(PID.TID 0000.0001) // Begin MONITOR SEAICE statistics
(PID.TID 0000.0001) // =======================================================
(PID.TID 0000.0001) %MON seaice_tsnumber              =                     0
(PID.TID 0000.0001) %MON seaice_time_sec              =   0.0000000000000E+00
(PID.TID 0000.0001) %MON seaice_uice_max              =   0.0000000000000E+00
(PID.TID 0000.0001) %MON seaice_uice_min              =   0.0000000000000E+00
(PID.TID 0000.0001) %MON seaice_uice_mean             =   0.0000000000000E+00
(PID.TID 0000.0001) %MON seaice_uice_sd               =   0.0000000000000E+00
(PID.TID 0000.0001) %MON seaice_uice_del2             =   0.0000000000000E+00
(PID.TID 0000.0001) %MON seaice_vice_max              =   0.0000000000000E+00
(PID.TID 0000.0001) %MON seaice_vice_min              =   0.0000000000000E+00
(PID.TID 0000.0001) %MON seaice_vice_mean             =   0.0000000000000E+00
(PID.TID 0000.0001) %MON seaice_vice_sd               =   0.0000000000000E+00
(PID.TID 0000.0001) %MON seaice_vice_del2             =   0.0000000000000E+00
(PID.TID 0000.0001) %MON seaice_area_max              =   1.0000000000000E+00
(PID.TID 0000.0001) %MON seaice_area_min              =   1.0000000000000E+00
(PID.TID 0000.0001) %MON seaice_area_mean             =   1.0000000000000E+00
(PID.TID 0000.0001) %MON seaice_area_sd               =   0.0000000000000E+00
(PID.TID 0000.0001) %MON seaice_area_del2             =   0.0000000000000E+00
(PID.TID 0000.0001) %MON seaice_heff_max              =   1.0000000000000E+00
(PID.TID 0000.0001) %MON seaice_heff_min              =   1.0000000000000E+00
(PID.TID 0000.0001) %MON seaice_heff_mean             =   1.0000000000000E+00
(PID.TID 0000.0001) %MON seaice_heff_sd               =   0.0000000000000E+00
(PID.TID 0000.0001) %MON seaice_heff_del2             =   0.0000000000000E+00
(PID.TID 0000.0001) %MON seaice_hsnow_max             =   2.0000000298023E-01
(PID.TID 0000.0001) %MON seaice_hsnow_min             =   2.0000000298023E-01
(PID.TID 0000.0001) %MON seaice_hsnow_mean            =   2.0000000298023E-01
(PID.TID 0000.0001) %MON seaice_hsnow_sd              =   5.8286708792821E-16
(PID.TID 0000.0001) %MON seaice_hsnow_del2            =   0.0000000000000E+00
(PID.TID 0000.0001) // =======================================================
(PID.TID 0000.0001) // End MONITOR SEAICE statistics
(PID.TID 0000.0001) // =======================================================
(PID.TID 0000.0001)  MDS_READ_FIELD: opening file: xx_atemp.0000000000.001.001.data
(PID.TID 0000.0001)  MDS_READ_FIELD: opening file: xx_atemp.0000000000.001.001.data
(PID.TID 0000.0001)  MDS_READ_FIELD: opening file: xx_aqh.0000000000.001.001.data
(PID.TID 0000.0001)  MDS_READ_FIELD: opening file: xx_aqh.0000000000.001.001.data
(PID.TID 0000.0001)  MDS_READ_FIELD: opening file: xx_precip.0000000000.001.001.data
(PID.TID 0000.0001)  MDS_READ_FIELD: opening file: xx_precip.0000000000.001.001.data
(PID.TID 0000.0001)  MDS_READ_FIELD: opening file: xx_swdown.0000000000.001.001.data
(PID.TID 0000.0001)  MDS_READ_FIELD: opening file: xx_swdown.0000000000.001.001.data
(PID.TID 0000.0001)  MDS_READ_FIELD: opening file: xx_lwdown.0000000000.001.001.data
(PID.TID 0000.0001)  MDS_READ_FIELD: opening file: xx_lwdown.0000000000.001.001.data
(PID.TID 0000.0001)  MDS_READ_FIELD: opening file: xx_snowprecip.0000000000.001.001.data
(PID.TID 0000.0001)  MDS_READ_FIELD: opening file: xx_snowprecip.0000000000.001.001.data
(PID.TID 0000.0001)  MDS_READ_FIELD: opening file: xx_apressure.0000000000.001.001.data
(PID.TID 0000.0001)  MDS_READ_FIELD: opening file: xx_apressure.0000000000.001.001.data
(PID.TID 0000.0001)  MDS_READ_FIELD: opening file: xx_uwind.0000000000.001.001.data
(PID.TID 0000.0001)  MDS_READ_FIELD: opening file: xx_uwind.0000000000.001.001.data
(PID.TID 0000.0001)  MDS_READ_FIELD: opening file: xx_vwind.0000000000.001.001.data
(PID.TID 0000.0001)  MDS_READ_FIELD: opening file: xx_vwind.0000000000.001.001.data
(PID.TID 0000.0001) // =======================================================
(PID.TID 0000.0001) // Begin MONITOR EXF statistics
(PID.TID 0000.0001) // =======================================================
(PID.TID 0000.0001) %MON exf_tsnumber                 =                     0
(PID.TID 0000.0001) %MON exf_time_sec                 =   0.0000000000000E+00
(PID.TID 0000.0001) %MON exf_ustress_max              =   6.3903775845771E-02
(PID.TID 0000.0001) %MON exf_ustress_min              =  -9.5324050318348E-02
(PID.TID 0000.0001) %MON exf_ustress_mean             =   2.2585162310123E-02
(PID.TID 0000.0001) %MON exf_ustress_sd               =   2.7275780021771E-02
(PID.TID 0000.0001) %MON exf_ustress_del2             =   2.9464928316532E-03
(PID.TID 0000.0001) %MON exf_vstress_max              =   5.4708944127586E-02
(PID.TID 0000.0001) %MON exf_vstress_min              =  -6.2488440618747E-02
(PID.TID 0000.0001) %MON exf_vstress_mean             =  -5.6174742663681E-03
(PID.TID 0000.0001) %MON exf_vstress_sd               =   1.5596129788178E-02
(PID.TID 0000.0001) %MON exf_vstress_del2             =   1.7930353613182E-03
(PID.TID 0000.0001) %MON exf_hflux_max                =   7.3111020636161E+02
(PID.TID 0000.0001) %MON exf_hflux_min                =   1.0991726570245E+02
(PID.TID 0000.0001) %MON exf_hflux_mean               =   2.7655955961219E+02
(PID.TID 0000.0001) %MON exf_hflux_sd                 =   1.5872018558509E+02
(PID.TID 0000.0001) %MON exf_hflux_del2               =   1.9324680413847E+01
(PID.TID 0000.0001) %MON exf_sflux_max                =   5.3473262221640E-08
(PID.TID 0000.0001) %MON exf_sflux_min                =  -6.1385296755754E-08
(PID.TID 0000.0001) %MON exf_sflux_mean               =  -7.3062642917559E-09
(PID.TID 0000.0001) %MON exf_sflux_sd                 =   2.6562207433778E-08
(PID.TID 0000.0001) %MON exf_sflux_del2               =   3.6392854945260E-09
(PID.TID 0000.0001) %MON exf_uwind_max                =   6.4643745422363E+00
(PID.TID 0000.0001) %MON exf_uwind_min                =  -6.8372380733490E+00
(PID.TID 0000.0001) %MON exf_uwind_mean               =   2.7697727336031E+00
(PID.TID 0000.0001) %MON exf_uwind_sd                 =   2.9900402496951E+00
(PID.TID 0000.0001) %MON exf_uwind_del2               =   3.1570994739265E-01
(PID.TID 0000.0001) %MON exf_vwind_max                =   3.9240682125092E+00
(PID.TID 0000.0001) %MON exf_vwind_min                =  -6.0197033882141E+00
(PID.TID 0000.0001) %MON exf_vwind_mean               =  -7.6089868124963E-01
(PID.TID 0000.0001) %MON exf_vwind_sd                 =   1.7293437592941E+00
(PID.TID 0000.0001) %MON exf_vwind_del2               =   1.9333263882436E-01
(PID.TID 0000.0001) %MON exf_wspeed_max               =   7.8832820454477E+00
(PID.TID 0000.0001) %MON exf_wspeed_min               =   4.6035219539401E-01
(PID.TID 0000.0001) %MON exf_wspeed_mean              =   4.1981217095273E+00
(PID.TID 0000.0001) %MON exf_wspeed_sd                =   1.5991724245810E+00
(PID.TID 0000.0001) %MON exf_wspeed_del2              =   3.7693667977018E-01
(PID.TID 0000.0001) %MON exf_atemp_max                =   2.8188281250000E+02
(PID.TID 0000.0001) %MON exf_atemp_min                =   2.3646176910400E+02
(PID.TID 0000.0001) %MON exf_atemp_mean               =   2.6394605689467E+02
(PID.TID 0000.0001) %MON exf_atemp_sd                 =   1.1983417060618E+01
(PID.TID 0000.0001) %MON exf_atemp_del2               =   6.4942309334310E-01
(PID.TID 0000.0001) %MON exf_aqh_max                  =   6.3231729436666E-03
(PID.TID 0000.0001) %MON exf_aqh_min                  =   1.6369274817407E-04
(PID.TID 0000.0001) %MON exf_aqh_mean                 =   2.4803629101886E-03
(PID.TID 0000.0001) %MON exf_aqh_sd                   =   1.4265074770275E-03
(PID.TID 0000.0001) %MON exf_aqh_del2                 =   6.8141780599641E-05
(PID.TID 0000.0001) %MON exf_lwflux_max               =   1.9978966060501E+02
(PID.TID 0000.0001) %MON exf_lwflux_min               =   6.3304595803996E+01
(PID.TID 0000.0001) %MON exf_lwflux_mean              =   1.0410079899302E+02
(PID.TID 0000.0001) %MON exf_lwflux_sd                =   3.6519264181786E+01
(PID.TID 0000.0001) %MON exf_lwflux_del2              =   3.1286635970398E+00
(PID.TID 0000.0001) %MON exf_precip_max               =   1.0498766300771E-07
(PID.TID 0000.0001) %MON exf_precip_min               =   2.7359498694368E-10
(PID.TID 0000.0001) %MON exf_precip_mean              =   3.6390080543085E-08
(PID.TID 0000.0001) %MON exf_precip_sd                =   2.0578148171209E-08
(PID.TID 0000.0001) %MON exf_precip_del2              =   2.5551549857431E-09
(PID.TID 0000.0001) %MON exf_snowprecip_max           =   0.0000000000000E+00
(PID.TID 0000.0001) %MON exf_snowprecip_min           =   0.0000000000000E+00
(PID.TID 0000.0001) %MON exf_snowprecip_mean          =   0.0000000000000E+00
(PID.TID 0000.0001) %MON exf_snowprecip_sd            =   0.0000000000000E+00
(PID.TID 0000.0001) %MON exf_snowprecip_del2          =   0.0000000000000E+00
(PID.TID 0000.0001) %MON exf_swflux_max               =  -8.1205755472183E-02
(PID.TID 0000.0001) %MON exf_swflux_min               =  -6.3973114013672E+01
(PID.TID 0000.0001) %MON exf_swflux_mean              =  -2.6453223022948E+01
(PID.TID 0000.0001) %MON exf_swflux_sd                =   1.9625901079469E+01
(PID.TID 0000.0001) %MON exf_swflux_del2              =   4.7901276555285E-01
(PID.TID 0000.0001) %MON exf_evap_max                 =   5.9797470045733E-08
(PID.TID 0000.0001) %MON exf_evap_min                 =   1.0729148721654E-08
(PID.TID 0000.0001) %MON exf_evap_mean                =   2.9083816251329E-08
(PID.TID 0000.0001) %MON exf_evap_sd                  =   9.2938018491574E-09
(PID.TID 0000.0001) %MON exf_evap_del2                =   2.0154590676424E-09
(PID.TID 0000.0001) %MON exf_swdown_max               =   7.1081237792969E+01
(PID.TID 0000.0001) %MON exf_swdown_min               =   9.0228617191315E-02
(PID.TID 0000.0001) %MON exf_swdown_mean              =   2.9392470025498E+01
(PID.TID 0000.0001) %MON exf_swdown_sd                =   2.1806556754965E+01
(PID.TID 0000.0001) %MON exf_swdown_del2              =   5.3223640616983E-01
(PID.TID 0000.0001) %MON exf_lwdown_max               =   3.0567971801758E+02
(PID.TID 0000.0001) %MON exf_lwdown_min               =   1.1599769210815E+02
(PID.TID 0000.0001) %MON exf_lwdown_mean              =   2.2594931695913E+02
(PID.TID 0000.0001) %MON exf_lwdown_sd                =   4.6277429231296E+01
(PID.TID 0000.0001) %MON exf_lwdown_del2              =   3.2438212966919E+00
(PID.TID 0000.0001) %MON exf_apressure_max            =   0.0000000000000E+00
(PID.TID 0000.0001) %MON exf_apressure_min            =   0.0000000000000E+00
(PID.TID 0000.0001) %MON exf_apressure_mean           =   0.0000000000000E+00
(PID.TID 0000.0001) %MON exf_apressure_sd             =   0.0000000000000E+00
(PID.TID 0000.0001) %MON exf_apressure_del2           =   0.0000000000000E+00
(PID.TID 0000.0001) %MON exf_runoff_max               =   0.0000000000000E+00
(PID.TID 0000.0001) %MON exf_runoff_min               =   0.0000000000000E+00
(PID.TID 0000.0001) %MON exf_runoff_mean              =   0.0000000000000E+00
(PID.TID 0000.0001) %MON exf_runoff_sd                =   0.0000000000000E+00
(PID.TID 0000.0001) %MON exf_runoff_del2              =   0.0000000000000E+00
(PID.TID 0000.0001) %MON exf_climsst_max              =   0.0000000000000E+00
(PID.TID 0000.0001) %MON exf_climsst_min              =   0.0000000000000E+00
(PID.TID 0000.0001) %MON exf_climsst_mean             =   0.0000000000000E+00
(PID.TID 0000.0001) %MON exf_climsst_sd               =   0.0000000000000E+00
(PID.TID 0000.0001) %MON exf_climsst_del2             =   0.0000000000000E+00
(PID.TID 0000.0001) %MON exf_climsss_max              =   3.5040330886841E+01
(PID.TID 0000.0001) %MON exf_climsss_min              =   3.0666313171387E+01
(PID.TID 0000.0001) %MON exf_climsss_mean             =   3.3459319600989E+01
(PID.TID 0000.0001) %MON exf_climsss_sd               =   1.0319548925494E+00
(PID.TID 0000.0001) %MON exf_climsss_del2             =   1.0019396146139E-01
(PID.TID 0000.0001) // =======================================================
(PID.TID 0000.0001) // End MONITOR EXF statistics
(PID.TID 0000.0001) // =======================================================
 ph-ice B  0  0.  0.  0.
 ph-ice C  0  5.30354909E+10
 cg2d: Sum(rhs),rhsMax =   1.05818132034585E-15  9.93037467350620E-01
(PID.TID 0000.0001) // =======================================================
(PID.TID 0000.0001) // Begin MONITOR SEAICE statistics
(PID.TID 0000.0001) // =======================================================
(PID.TID 0000.0001) %MON seaice_tsnumber              =                     1
(PID.TID 0000.0001) %MON seaice_time_sec              =   3.6000000000000E+03
(PID.TID 0000.0001) %MON seaice_uice_max              =   1.1830188588838E-01
(PID.TID 0000.0001) %MON seaice_uice_min              =  -3.6947667601810E-02
(PID.TID 0000.0001) %MON seaice_uice_mean             =   4.6351011395841E-02
(PID.TID 0000.0001) %MON seaice_uice_sd               =   4.4551623876367E-02
(PID.TID 0000.0001) %MON seaice_uice_del2             =   2.6893939150909E-03
(PID.TID 0000.0001) %MON seaice_vice_max              =   3.8048078875392E-02
(PID.TID 0000.0001) %MON seaice_vice_min              =  -7.2208311040469E-02
(PID.TID 0000.0001) %MON seaice_vice_mean             =  -1.7212953413442E-02
(PID.TID 0000.0001) %MON seaice_vice_sd               =   2.7498420195410E-02
(PID.TID 0000.0001) %MON seaice_vice_del2             =   2.2712992187913E-03
(PID.TID 0000.0001) %MON seaice_area_max              =   1.0000000000000E+00
(PID.TID 0000.0001) %MON seaice_area_min              =   0.0000000000000E+00
(PID.TID 0000.0001) %MON seaice_area_mean             =   6.3240422504137E-01
(PID.TID 0000.0001) %MON seaice_area_sd               =   4.5166857054977E-01
(PID.TID 0000.0001) %MON seaice_area_del2             =   4.7454817251810E-02
(PID.TID 0000.0001) %MON seaice_heff_max              =   6.0076635272005E-01
(PID.TID 0000.0001) %MON seaice_heff_min              =   0.0000000000000E+00
(PID.TID 0000.0001) %MON seaice_heff_mean             =   1.4887451421624E-01
(PID.TID 0000.0001) %MON seaice_heff_sd               =   1.8287366826376E-01
(PID.TID 0000.0001) %MON seaice_heff_del2             =   1.0146605920190E-02
(PID.TID 0000.0001) %MON seaice_hsnow_max             =   2.0078474686707E-01
(PID.TID 0000.0001) %MON seaice_hsnow_min             =   0.0000000000000E+00
(PID.TID 0000.0001) %MON seaice_hsnow_mean            =   1.1848697056338E-01
(PID.TID 0000.0001) %MON seaice_hsnow_sd              =   9.6623972770983E-02
(PID.TID 0000.0001) %MON seaice_hsnow_del2            =   6.2688952170602E-03
(PID.TID 0000.0001) // =======================================================
(PID.TID 0000.0001) // End MONITOR SEAICE statistics
(PID.TID 0000.0001) // =======================================================
(PID.TID 0000.0001) // =======================================================
(PID.TID 0000.0001) // Begin MONITOR EXF statistics
(PID.TID 0000.0001) // =======================================================
(PID.TID 0000.0001) %MON exf_tsnumber                 =                     1
(PID.TID 0000.0001) %MON exf_time_sec                 =   3.6000000000000E+03
(PID.TID 0000.0001) %MON exf_ustress_max              =   5.2215336216899E-02
(PID.TID 0000.0001) %MON exf_ustress_min              =  -9.3781516255246E-02
(PID.TID 0000.0001) %MON exf_ustress_mean             =   1.7908667275810E-02
(PID.TID 0000.0001) %MON exf_ustress_sd               =   2.3677824733666E-02
(PID.TID 0000.0001) %MON exf_ustress_del2             =   2.8185945121624E-03
(PID.TID 0000.0001) %MON exf_vstress_max              =   5.3823846971061E-02
(PID.TID 0000.0001) %MON exf_vstress_min              =  -5.8521115502029E-02
(PID.TID 0000.0001) %MON exf_vstress_mean             =  -5.4709252404640E-03
(PID.TID 0000.0001) %MON exf_vstress_sd               =   1.4440702617014E-02
(PID.TID 0000.0001) %MON exf_vstress_del2             =   1.6942466375470E-03
(PID.TID 0000.0001) %MON exf_hflux_max                =   6.2467472133264E+02
(PID.TID 0000.0001) %MON exf_hflux_min                =  -5.4116825759641E+01
(PID.TID 0000.0001) %MON exf_hflux_mean               =   1.4693365466030E+02
(PID.TID 0000.0001) %MON exf_hflux_sd                 =   1.8156698316282E+02
(PID.TID 0000.0001) %MON exf_hflux_del2               =   1.6567549887591E+01
(PID.TID 0000.0001) %MON exf_sflux_max                =   3.9008935708334E-08
(PID.TID 0000.0001) %MON exf_sflux_min                =  -8.8902774357601E-08
(PID.TID 0000.0001) %MON exf_sflux_mean               =  -2.5876940474079E-08
(PID.TID 0000.0001) %MON exf_sflux_sd                 =   3.0537598319208E-08
(PID.TID 0000.0001) %MON exf_sflux_del2               =   3.1605975976382E-09
(PID.TID 0000.0001) %MON exf_uwind_max                =   6.4648819946852E+00
(PID.TID 0000.0001) %MON exf_uwind_min                =  -6.8372648550513E+00
(PID.TID 0000.0001) %MON exf_uwind_mean               =   2.7698802859476E+00
(PID.TID 0000.0001) %MON exf_uwind_sd                 =   2.9903162155877E+00
(PID.TID 0000.0001) %MON exf_uwind_del2               =   3.1571785161521E-01
(PID.TID 0000.0001) %MON exf_vwind_max                =   3.9240983933048E+00
(PID.TID 0000.0001) %MON exf_vwind_min                =  -6.0187974783892E+00
(PID.TID 0000.0001) %MON exf_vwind_mean               =  -7.6028090815952E-01
(PID.TID 0000.0001) %MON exf_vwind_sd                 =   1.7294518007626E+00
(PID.TID 0000.0001) %MON exf_vwind_del2               =   1.9332576748242E-01
(PID.TID 0000.0001) %MON exf_wspeed_max               =   7.8833202965791E+00
(PID.TID 0000.0001) %MON exf_wspeed_min               =   4.6010935417159E-01
(PID.TID 0000.0001) %MON exf_wspeed_mean              =   4.1982241536133E+00
(PID.TID 0000.0001) %MON exf_wspeed_sd                =   1.5994287774633E+00
(PID.TID 0000.0001) %MON exf_wspeed_del2              =   3.7699000842292E-01
(PID.TID 0000.0001) %MON exf_atemp_max                =   2.8188110034713E+02
(PID.TID 0000.0001) %MON exf_atemp_min                =   2.3645730413635E+02
(PID.TID 0000.0001) %MON exf_atemp_mean               =   2.6394141281326E+02
(PID.TID 0000.0001) %MON exf_atemp_sd                 =   1.1984877595270E+01
(PID.TID 0000.0001) %MON exf_atemp_del2               =   6.4944242489554E-01
(PID.TID 0000.0001) %MON exf_aqh_max                  =   6.3224764028055E-03
(PID.TID 0000.0001) %MON exf_aqh_min                  =   1.6359864467567E-04
(PID.TID 0000.0001) %MON exf_aqh_mean                 =   2.4798025537840E-03
(PID.TID 0000.0001) %MON exf_aqh_sd                   =   1.4264043737180E-03
(PID.TID 0000.0001) %MON exf_aqh_del2                 =   6.8128113038494E-05
(PID.TID 0000.0001) %MON exf_lwflux_max               =   1.8380784776361E+02
(PID.TID 0000.0001) %MON exf_lwflux_min               =   2.6472644798215E+01
(PID.TID 0000.0001) %MON exf_lwflux_mean              =   7.5350572632925E+01
(PID.TID 0000.0001) %MON exf_lwflux_sd                =   4.3134595524386E+01
(PID.TID 0000.0001) %MON exf_lwflux_del2              =   3.2390977067912E+00
(PID.TID 0000.0001) %MON exf_precip_max               =   1.0498904445033E-07
(PID.TID 0000.0001) %MON exf_precip_min               =   2.7346106047101E-10
(PID.TID 0000.0001) %MON exf_precip_mean              =   3.6390069699050E-08
(PID.TID 0000.0001) %MON exf_precip_sd                =   2.0578598603627E-08
(PID.TID 0000.0001) %MON exf_precip_del2              =   2.5556826789328E-09
(PID.TID 0000.0001) %MON exf_snowprecip_max           =   0.0000000000000E+00
(PID.TID 0000.0001) %MON exf_snowprecip_min           =   0.0000000000000E+00
(PID.TID 0000.0001) %MON exf_snowprecip_mean          =   0.0000000000000E+00
(PID.TID 0000.0001) %MON exf_snowprecip_sd            =   0.0000000000000E+00
(PID.TID 0000.0001) %MON exf_snowprecip_del2          =   0.0000000000000E+00
(PID.TID 0000.0001) %MON exf_swflux_max               =  -8.1206038349965E-02
(PID.TID 0000.0001) %MON exf_swflux_min               =  -6.3991984364244E+01
(PID.TID 0000.0001) %MON exf_swflux_mean              =  -2.6463755238823E+01
(PID.TID 0000.0001) %MON exf_swflux_sd                =   1.9629736696482E+01
(PID.TID 0000.0001) %MON exf_swflux_del2              =   4.7911963949881E-01
(PID.TID 0000.0001) %MON exf_evap_max                 =   4.5332480821497E-08
(PID.TID 0000.0001) %MON exf_evap_min                 =  -4.7524365011618E-09
(PID.TID 0000.0001) %MON exf_evap_mean                =   1.0513129224972E-08
(PID.TID 0000.0001) %MON exf_evap_sd                  =   1.1274582862040E-08
(PID.TID 0000.0001) %MON exf_evap_del2                =   1.3716110068495E-09
(PID.TID 0000.0001) %MON exf_swdown_max               =   7.1102204849160E+01
(PID.TID 0000.0001) %MON exf_swdown_min               =   9.0228931499961E-02
(PID.TID 0000.0001) %MON exf_swdown_mean              =   2.9404172487581E+01
(PID.TID 0000.0001) %MON exf_swdown_sd                =   2.1810818551646E+01
(PID.TID 0000.0001) %MON exf_swdown_del2              =   5.3235515499868E-01
(PID.TID 0000.0001) %MON exf_lwdown_max               =   3.0567089193375E+02
(PID.TID 0000.0001) %MON exf_lwdown_min               =   1.1598258522951E+02
(PID.TID 0000.0001) %MON exf_lwdown_mean              =   2.2593360963007E+02
(PID.TID 0000.0001) %MON exf_lwdown_sd                =   4.6281398610271E+01
(PID.TID 0000.0001) %MON exf_lwdown_del2              =   3.2438329367646E+00
(PID.TID 0000.0001) %MON exf_apressure_max            =   0.0000000000000E+00
(PID.TID 0000.0001) %MON exf_apressure_min            =   0.0000000000000E+00
(PID.TID 0000.0001) %MON exf_apressure_mean           =   0.0000000000000E+00
(PID.TID 0000.0001) %MON exf_apressure_sd             =   0.0000000000000E+00
(PID.TID 0000.0001) %MON exf_apressure_del2           =   0.0000000000000E+00
(PID.TID 0000.0001) %MON exf_runoff_max               =   0.0000000000000E+00
(PID.TID 0000.0001) %MON exf_runoff_min               =   0.0000000000000E+00
(PID.TID 0000.0001) %MON exf_runoff_mean              =   0.0000000000000E+00
(PID.TID 0000.0001) %MON exf_runoff_sd                =   0.0000000000000E+00
(PID.TID 0000.0001) %MON exf_runoff_del2              =   0.0000000000000E+00
(PID.TID 0000.0001) %MON exf_climsst_max              =   0.0000000000000E+00
(PID.TID 0000.0001) %MON exf_climsst_min              =   0.0000000000000E+00
(PID.TID 0000.0001) %MON exf_climsst_mean             =   0.0000000000000E+00
(PID.TID 0000.0001) %MON exf_climsst_sd               =   0.0000000000000E+00
(PID.TID 0000.0001) %MON exf_climsst_del2             =   0.0000000000000E+00
(PID.TID 0000.0001) %MON exf_climsss_max              =   3.5040515633880E+01
(PID.TID 0000.0001) %MON exf_climsss_min              =   3.0667072499385E+01
(PID.TID 0000.0001) %MON exf_climsss_mean             =   3.3459840934468E+01
(PID.TID 0000.0001) %MON exf_climsss_sd               =   1.0318832207269E+00
(PID.TID 0000.0001) %MON exf_climsss_del2             =   1.0017673217099E-01
(PID.TID 0000.0001) // =======================================================
(PID.TID 0000.0001) // End MONITOR EXF statistics
(PID.TID 0000.0001) // =======================================================
 ph-ice B  1  0.  0.  0.
 ph-ice C  1  1.03662085E+11
 cg2d: Sum(rhs),rhsMax =   9.71448477216086E-10  1.19254195625089E+00
(PID.TID 0000.0001) // =======================================================
(PID.TID 0000.0001) // Begin MONITOR SEAICE statistics
(PID.TID 0000.0001) // =======================================================
(PID.TID 0000.0001) %MON seaice_tsnumber              =                     2
(PID.TID 0000.0001) %MON seaice_time_sec              =   7.2000000000000E+03
(PID.TID 0000.0001) %MON seaice_uice_max              =   1.5575757131989E-01
(PID.TID 0000.0001) %MON seaice_uice_min              =  -8.0942741430966E-02
(PID.TID 0000.0001) %MON seaice_uice_mean             =   6.5168649988091E-02
(PID.TID 0000.0001) %MON seaice_uice_sd               =   6.1631643194901E-02
(PID.TID 0000.0001) %MON seaice_uice_del2             =   6.8706904575312E-03
(PID.TID 0000.0001) %MON seaice_vice_max              =   7.0616929563122E-02
(PID.TID 0000.0001) %MON seaice_vice_min              =  -1.3662299947234E-01
(PID.TID 0000.0001) %MON seaice_vice_mean             =  -2.1829812690729E-02
(PID.TID 0000.0001) %MON seaice_vice_sd               =   4.1312329540630E-02
(PID.TID 0000.0001) %MON seaice_vice_del2             =   5.3521934594245E-03
(PID.TID 0000.0001) %MON seaice_area_max              =   1.0000000000000E+00
(PID.TID 0000.0001) %MON seaice_area_min              =   0.0000000000000E+00
(PID.TID 0000.0001) %MON seaice_area_mean             =   6.2511459699044E-01
(PID.TID 0000.0001) %MON seaice_area_sd               =   4.5918068785070E-01
(PID.TID 0000.0001) %MON seaice_area_del2             =   5.3309166375108E-02
(PID.TID 0000.0001) %MON seaice_heff_max              =   5.5572638142240E-01
(PID.TID 0000.0001) %MON seaice_heff_min              =   0.0000000000000E+00
(PID.TID 0000.0001) %MON seaice_heff_mean             =   1.4211256280031E-01
(PID.TID 0000.0001) %MON seaice_heff_sd               =   1.7471336180584E-01
(PID.TID 0000.0001) %MON seaice_heff_del2             =   1.3300800066811E-02
(PID.TID 0000.0001) %MON seaice_hsnow_max             =   2.0156957952176E-01
(PID.TID 0000.0001) %MON seaice_hsnow_min             =   0.0000000000000E+00
(PID.TID 0000.0001) %MON seaice_hsnow_mean            =   1.1798259565184E-01
(PID.TID 0000.0001) %MON seaice_hsnow_sd              =   9.6675387962263E-02
(PID.TID 0000.0001) %MON seaice_hsnow_del2            =   6.3372971187471E-03
(PID.TID 0000.0001) // =======================================================
(PID.TID 0000.0001) // End MONITOR SEAICE statistics
(PID.TID 0000.0001) // =======================================================
(PID.TID 0000.0001) // =======================================================
(PID.TID 0000.0001) // Begin MONITOR EXF statistics
(PID.TID 0000.0001) // =======================================================
(PID.TID 0000.0001) %MON exf_tsnumber                 =                     2
(PID.TID 0000.0001) %MON exf_time_sec                 =   7.2000000000000E+03
(PID.TID 0000.0001) %MON exf_ustress_max              =   5.2234389551241E-02
(PID.TID 0000.0001) %MON exf_ustress_min              =  -9.3783873525021E-02
(PID.TID 0000.0001) %MON exf_ustress_mean             =   1.7912605235746E-02
(PID.TID 0000.0001) %MON exf_ustress_sd               =   2.3689566912470E-02
(PID.TID 0000.0001) %MON exf_ustress_del2             =   2.8175390184117E-03
(PID.TID 0000.0001) %MON exf_vstress_max              =   5.3825403016462E-02
(PID.TID 0000.0001) %MON exf_vstress_min              =  -5.8501907463670E-02
(PID.TID 0000.0001) %MON exf_vstress_mean             =  -5.4571889987595E-03
(PID.TID 0000.0001) %MON exf_vstress_sd               =   1.4439149098048E-02
(PID.TID 0000.0001) %MON exf_vstress_del2             =   1.6937326092934E-03
(PID.TID 0000.0001) %MON exf_hflux_max                =   6.2473671698450E+02
(PID.TID 0000.0001) %MON exf_hflux_min                =  -5.1856944043789E+01
(PID.TID 0000.0001) %MON exf_hflux_mean               =   1.4603892679895E+02
(PID.TID 0000.0001) %MON exf_hflux_sd                 =   1.8006277948141E+02
(PID.TID 0000.0001) %MON exf_hflux_del2               =   1.6304066772183E+01
(PID.TID 0000.0001) %MON exf_sflux_max                =   3.9010172880204E-08
(PID.TID 0000.0001) %MON exf_sflux_min                =  -8.8920778732677E-08
(PID.TID 0000.0001) %MON exf_sflux_mean               =  -2.5980919294279E-08
(PID.TID 0000.0001) %MON exf_sflux_sd                 =   3.0374070195439E-08
(PID.TID 0000.0001) %MON exf_sflux_del2               =   3.1602146172185E-09
(PID.TID 0000.0001) %MON exf_uwind_max                =   6.4653894471340E+00
(PID.TID 0000.0001) %MON exf_uwind_min                =  -6.8372916367536E+00
(PID.TID 0000.0001) %MON exf_uwind_mean               =   2.7699878382920E+00
(PID.TID 0000.0001) %MON exf_uwind_sd                 =   2.9905922217476E+00
(PID.TID 0000.0001) %MON exf_uwind_del2               =   3.1572575583776E-01
(PID.TID 0000.0001) %MON exf_vwind_max                =   3.9241285741003E+00
(PID.TID 0000.0001) %MON exf_vwind_min                =  -6.0178915685643E+00
(PID.TID 0000.0001) %MON exf_vwind_mean               =  -7.5966313506940E-01
(PID.TID 0000.0001) %MON exf_vwind_sd                 =   1.7295599554900E+00
(PID.TID 0000.0001) %MON exf_vwind_del2               =   1.9331889614049E-01
(PID.TID 0000.0001) %MON exf_wspeed_max               =   7.8833585477315E+00
(PID.TID 0000.0001) %MON exf_wspeed_min               =   4.5986651533145E-01
(PID.TID 0000.0001) %MON exf_wspeed_mean              =   4.1983267266652E+00
(PID.TID 0000.0001) %MON exf_wspeed_sd                =   1.5996852426804E+00
(PID.TID 0000.0001) %MON exf_wspeed_del2              =   3.7704333058266E-01
(PID.TID 0000.0001) %MON exf_atemp_max                =   2.8187938819427E+02
(PID.TID 0000.0001) %MON exf_atemp_min                =   2.3645283916869E+02
(PID.TID 0000.0001) %MON exf_atemp_mean               =   2.6393676873185E+02
(PID.TID 0000.0001) %MON exf_atemp_sd                 =   1.1986338617734E+01
(PID.TID 0000.0001) %MON exf_atemp_del2               =   6.4946175644798E-01
(PID.TID 0000.0001) %MON exf_aqh_max                  =   6.3217798619445E-03
(PID.TID 0000.0001) %MON exf_aqh_min                  =   1.6350454117726E-04
(PID.TID 0000.0001) %MON exf_aqh_mean                 =   2.4792421973794E-03
(PID.TID 0000.0001) %MON exf_aqh_sd                   =   1.4263013062694E-03
(PID.TID 0000.0001) %MON exf_aqh_del2                 =   6.8114445477348E-05
(PID.TID 0000.0001) %MON exf_lwflux_max               =   1.8153743597504E+02
(PID.TID 0000.0001) %MON exf_lwflux_min               =   2.6999313161451E+01
(PID.TID 0000.0001) %MON exf_lwflux_mean              =   7.5148003032958E+01
(PID.TID 0000.0001) %MON exf_lwflux_sd                =   4.2803183328252E+01
(PID.TID 0000.0001) %MON exf_lwflux_del2              =   3.2353096150937E+00
(PID.TID 0000.0001) %MON exf_precip_max               =   1.0499042589295E-07
(PID.TID 0000.0001) %MON exf_precip_min               =   2.7332713399833E-10
(PID.TID 0000.0001) %MON exf_precip_mean              =   3.6390058855016E-08
(PID.TID 0000.0001) %MON exf_precip_sd                =   2.0579049691733E-08
(PID.TID 0000.0001) %MON exf_precip_del2              =   2.5562103721225E-09
(PID.TID 0000.0001) %MON exf_snowprecip_max           =   0.0000000000000E+00
(PID.TID 0000.0001) %MON exf_snowprecip_min           =   0.0000000000000E+00
(PID.TID 0000.0001) %MON exf_snowprecip_mean          =   0.0000000000000E+00
(PID.TID 0000.0001) %MON exf_snowprecip_sd            =   0.0000000000000E+00
(PID.TID 0000.0001) %MON exf_snowprecip_del2          =   0.0000000000000E+00
(PID.TID 0000.0001) %MON exf_swflux_max               =  -8.1206321227746E-02
(PID.TID 0000.0001) %MON exf_swflux_min               =  -6.4010854714816E+01
(PID.TID 0000.0001) %MON exf_swflux_mean              =  -2.6474287454698E+01
(PID.TID 0000.0001) %MON exf_swflux_sd                =   1.9633572905820E+01
(PID.TID 0000.0001) %MON exf_swflux_del2              =   4.7922651344477E-01
(PID.TID 0000.0001) %MON exf_evap_max                 =   4.5333055282436E-08
(PID.TID 0000.0001) %MON exf_evap_min                 =  -4.3262573270113E-09
(PID.TID 0000.0001) %MON exf_evap_mean                =   1.0409139560737E-08
(PID.TID 0000.0001) %MON exf_evap_sd                  =   1.1101640100313E-08
(PID.TID 0000.0001) %MON exf_evap_del2                =   1.3339356630850E-09
(PID.TID 0000.0001) %MON exf_swdown_max               =   7.1123171905351E+01
(PID.TID 0000.0001) %MON exf_swdown_min               =   9.0229245808607E-02
(PID.TID 0000.0001) %MON exf_swdown_mean              =   2.9415874949665E+01
(PID.TID 0000.0001) %MON exf_swdown_sd                =   2.1815081006466E+01
(PID.TID 0000.0001) %MON exf_swdown_del2              =   5.3247390382752E-01
(PID.TID 0000.0001) %MON exf_lwdown_max               =   3.0566206584993E+02
(PID.TID 0000.0001) %MON exf_lwdown_min               =   1.1596747835086E+02
(PID.TID 0000.0001) %MON exf_lwdown_mean              =   2.2591790230100E+02
(PID.TID 0000.0001) %MON exf_lwdown_sd                =   4.6285369157136E+01
(PID.TID 0000.0001) %MON exf_lwdown_del2              =   3.2438445768374E+00
(PID.TID 0000.0001) %MON exf_apressure_max            =   0.0000000000000E+00
(PID.TID 0000.0001) %MON exf_apressure_min            =   0.0000000000000E+00
(PID.TID 0000.0001) %MON exf_apressure_mean           =   0.0000000000000E+00
(PID.TID 0000.0001) %MON exf_apressure_sd             =   0.0000000000000E+00
(PID.TID 0000.0001) %MON exf_apressure_del2           =   0.0000000000000E+00
(PID.TID 0000.0001) %MON exf_runoff_max               =   0.0000000000000E+00
(PID.TID 0000.0001) %MON exf_runoff_min               =   0.0000000000000E+00
(PID.TID 0000.0001) %MON exf_runoff_mean              =   0.0000000000000E+00
(PID.TID 0000.0001) %MON exf_runoff_sd                =   0.0000000000000E+00
(PID.TID 0000.0001) %MON exf_runoff_del2              =   0.0000000000000E+00
(PID.TID 0000.0001) %MON exf_climsst_max              =   0.0000000000000E+00
(PID.TID 0000.0001) %MON exf_climsst_min              =   0.0000000000000E+00
(PID.TID 0000.0001) %MON exf_climsst_mean             =   0.0000000000000E+00
(PID.TID 0000.0001) %MON exf_climsst_sd               =   0.0000000000000E+00
(PID.TID 0000.0001) %MON exf_climsst_del2             =   0.0000000000000E+00
(PID.TID 0000.0001) %MON exf_climsss_max              =   3.5040700380919E+01
(PID.TID 0000.0001) %MON exf_climsss_min              =   3.0667831827383E+01
(PID.TID 0000.0001) %MON exf_climsss_mean             =   3.3460362267948E+01
(PID.TID 0000.0001) %MON exf_climsss_sd               =   1.0318117788237E+00
(PID.TID 0000.0001) %MON exf_climsss_del2             =   1.0015950288060E-01
(PID.TID 0000.0001) // =======================================================
(PID.TID 0000.0001) // End MONITOR EXF statistics
(PID.TID 0000.0001) // =======================================================
 ph-ice B  2  0.  0.  0.
 ph-ice C  2  1.54286141E+11
 cg2d: Sum(rhs),rhsMax =  -4.69102270916899E-10  1.21345933323451E+00
(PID.TID 0000.0001) // =======================================================
(PID.TID 0000.0001) // Begin MONITOR SEAICE statistics
(PID.TID 0000.0001) // =======================================================
(PID.TID 0000.0001) %MON seaice_tsnumber              =                     3
(PID.TID 0000.0001) %MON seaice_time_sec              =   1.0800000000000E+04
(PID.TID 0000.0001) %MON seaice_uice_max              =   1.7677554873395E-01
(PID.TID 0000.0001) %MON seaice_uice_min              =  -9.9473388719800E-02
(PID.TID 0000.0001) %MON seaice_uice_mean             =   7.5385003376230E-02
(PID.TID 0000.0001) %MON seaice_uice_sd               =   7.1157132746327E-02
(PID.TID 0000.0001) %MON seaice_uice_del2             =   8.3170554724105E-03
(PID.TID 0000.0001) %MON seaice_vice_max              =   8.9019949963241E-02
(PID.TID 0000.0001) %MON seaice_vice_min              =  -1.7696029803845E-01
(PID.TID 0000.0001) %MON seaice_vice_mean             =  -2.9256776584070E-02
(PID.TID 0000.0001) %MON seaice_vice_sd               =   5.2264403995714E-02
(PID.TID 0000.0001) %MON seaice_vice_del2             =   6.1178194481737E-03
(PID.TID 0000.0001) %MON seaice_area_max              =   1.0000000000000E+00
(PID.TID 0000.0001) %MON seaice_area_min              =   0.0000000000000E+00
(PID.TID 0000.0001) %MON seaice_area_mean             =   6.2473169610059E-01
(PID.TID 0000.0001) %MON seaice_area_sd               =   4.5913413378460E-01
(PID.TID 0000.0001) %MON seaice_area_del2             =   5.3480677859679E-02
(PID.TID 0000.0001) %MON seaice_heff_max              =   5.5368221576291E-01
(PID.TID 0000.0001) %MON seaice_heff_min              =   0.0000000000000E+00
(PID.TID 0000.0001) %MON seaice_heff_mean             =   1.4210544107097E-01
(PID.TID 0000.0001) %MON seaice_heff_sd               =   1.7434505208758E-01
(PID.TID 0000.0001) %MON seaice_heff_del2             =   1.3231235102552E-02
(PID.TID 0000.0001) %MON seaice_hsnow_max             =   2.0235454638389E-01
(PID.TID 0000.0001) %MON seaice_hsnow_min             =   0.0000000000000E+00
(PID.TID 0000.0001) %MON seaice_hsnow_mean            =   1.1801725658722E-01
(PID.TID 0000.0001) %MON seaice_hsnow_sd              =   9.6786605530350E-02
(PID.TID 0000.0001) %MON seaice_hsnow_del2            =   6.3531464967013E-03
(PID.TID 0000.0001) // =======================================================
(PID.TID 0000.0001) // End MONITOR SEAICE statistics
(PID.TID 0000.0001) // =======================================================
(PID.TID 0000.0001) // =======================================================
(PID.TID 0000.0001) // Begin MONITOR EXF statistics
(PID.TID 0000.0001) // =======================================================
(PID.TID 0000.0001) %MON exf_tsnumber                 =                     3
(PID.TID 0000.0001) %MON exf_time_sec                 =   1.0800000000000E+04
(PID.TID 0000.0001) %MON exf_ustress_max              =   5.2220278364574E-02
(PID.TID 0000.0001) %MON exf_ustress_min              =  -9.3786644941843E-02
(PID.TID 0000.0001) %MON exf_ustress_mean             =   1.7925097778837E-02
(PID.TID 0000.0001) %MON exf_ustress_sd               =   2.3700143709381E-02
(PID.TID 0000.0001) %MON exf_ustress_del2             =   2.8158746957510E-03
(PID.TID 0000.0001) %MON exf_vstress_max              =   5.3827196762903E-02
(PID.TID 0000.0001) %MON exf_vstress_min              =  -5.8480358160307E-02
(PID.TID 0000.0001) %MON exf_vstress_mean             =  -5.4532177986017E-03
(PID.TID 0000.0001) %MON exf_vstress_sd               =   1.4440792801603E-02
(PID.TID 0000.0001) %MON exf_vstress_del2             =   1.6929393308008E-03
(PID.TID 0000.0001) %MON exf_hflux_max                =   6.2482499785037E+02
(PID.TID 0000.0001) %MON exf_hflux_min                =  -5.1652096229142E+01
(PID.TID 0000.0001) %MON exf_hflux_mean               =   1.4608871507173E+02
(PID.TID 0000.0001) %MON exf_hflux_sd                 =   1.8003233186002E+02
(PID.TID 0000.0001) %MON exf_hflux_del2               =   1.6307607100538E+01
(PID.TID 0000.0001) %MON exf_sflux_max                =   3.9014761130189E-08
(PID.TID 0000.0001) %MON exf_sflux_min                =  -8.8949891199059E-08
(PID.TID 0000.0001) %MON exf_sflux_mean               =  -2.5974537143937E-08
(PID.TID 0000.0001) %MON exf_sflux_sd                 =   3.0366720973727E-08
(PID.TID 0000.0001) %MON exf_sflux_del2               =   3.1622834110671E-09
(PID.TID 0000.0001) %MON exf_uwind_max                =   6.4658968995829E+00
(PID.TID 0000.0001) %MON exf_uwind_min                =  -6.8373184184559E+00
(PID.TID 0000.0001) %MON exf_uwind_mean               =   2.7700953906364E+00
(PID.TID 0000.0001) %MON exf_uwind_sd                 =   2.9908682681638E+00
(PID.TID 0000.0001) %MON exf_uwind_del2               =   3.1573366006031E-01
(PID.TID 0000.0001) %MON exf_vwind_max                =   3.9241587548959E+00
(PID.TID 0000.0001) %MON exf_vwind_min                =  -6.0169856587394E+00
(PID.TID 0000.0001) %MON exf_vwind_mean               =  -7.5904536197929E-01
(PID.TID 0000.0001) %MON exf_vwind_sd                 =   1.7296682234552E+00
(PID.TID 0000.0001) %MON exf_vwind_del2               =   1.9331202479855E-01
(PID.TID 0000.0001) %MON exf_wspeed_max               =   7.8833967989048E+00
(PID.TID 0000.0001) %MON exf_wspeed_min               =   4.5962367887737E-01
(PID.TID 0000.0001) %MON exf_wspeed_mean              =   4.1984294286706E+00
(PID.TID 0000.0001) %MON exf_wspeed_sd                =   1.5999418201857E+00
(PID.TID 0000.0001) %MON exf_wspeed_del2              =   3.7709664625274E-01
(PID.TID 0000.0001) %MON exf_atemp_max                =   2.8187767604140E+02
(PID.TID 0000.0001) %MON exf_atemp_min                =   2.3644837420104E+02
(PID.TID 0000.0001) %MON exf_atemp_mean               =   2.6393212465043E+02
(PID.TID 0000.0001) %MON exf_atemp_sd                 =   1.1987800127831E+01
(PID.TID 0000.0001) %MON exf_atemp_del2               =   6.4948108800042E-01
(PID.TID 0000.0001) %MON exf_aqh_max                  =   6.3210833210834E-03
(PID.TID 0000.0001) %MON exf_aqh_min                  =   1.6341043767886E-04
(PID.TID 0000.0001) %MON exf_aqh_mean                 =   2.4786818409748E-03
(PID.TID 0000.0001) %MON exf_aqh_sd                   =   1.4261982746893E-03
(PID.TID 0000.0001) %MON exf_aqh_del2                 =   6.8100777916201E-05
(PID.TID 0000.0001) %MON exf_lwflux_max               =   1.8153866759519E+02
(PID.TID 0000.0001) %MON exf_lwflux_min               =   2.7117659269299E+01
(PID.TID 0000.0001) %MON exf_lwflux_mean              =   7.5167335824980E+01
(PID.TID 0000.0001) %MON exf_lwflux_sd                =   4.2791335285432E+01
(PID.TID 0000.0001) %MON exf_lwflux_del2              =   3.2353468775711E+00
(PID.TID 0000.0001) %MON exf_precip_max               =   1.0499180733557E-07
(PID.TID 0000.0001) %MON exf_precip_min               =   2.7319320752566E-10
(PID.TID 0000.0001) %MON exf_precip_mean              =   3.6390048010982E-08
(PID.TID 0000.0001) %MON exf_precip_sd                =   2.0579501435483E-08
(PID.TID 0000.0001) %MON exf_precip_del2              =   2.5567380653122E-09
(PID.TID 0000.0001) %MON exf_snowprecip_max           =   0.0000000000000E+00
(PID.TID 0000.0001) %MON exf_snowprecip_min           =   0.0000000000000E+00
(PID.TID 0000.0001) %MON exf_snowprecip_mean          =   0.0000000000000E+00
(PID.TID 0000.0001) %MON exf_snowprecip_sd            =   0.0000000000000E+00
(PID.TID 0000.0001) %MON exf_snowprecip_del2          =   0.0000000000000E+00
(PID.TID 0000.0001) %MON exf_swflux_max               =  -8.1206604105527E-02
(PID.TID 0000.0001) %MON exf_swflux_min               =  -6.4029725065388E+01
(PID.TID 0000.0001) %MON exf_swflux_mean              =  -2.6484819670573E+01
(PID.TID 0000.0001) %MON exf_swflux_sd                =   1.9637409707136E+01
(PID.TID 0000.0001) %MON exf_swflux_del2              =   4.7933338739073E-01
(PID.TID 0000.0001) %MON exf_evap_max                 =   4.5336980821491E-08
(PID.TID 0000.0001) %MON exf_evap_min                 =  -4.2852111092309E-09
(PID.TID 0000.0001) %MON exf_evap_mean                =   1.0415510867044E-08
(PID.TID 0000.0001) %MON exf_evap_sd                  =   1.1091288870734E-08
(PID.TID 0000.0001) %MON exf_evap_del2                =   1.3330271329924E-09
(PID.TID 0000.0001) %MON exf_swdown_max               =   7.1144138961542E+01
(PID.TID 0000.0001) %MON exf_swdown_min               =   9.0229560117253E-02
(PID.TID 0000.0001) %MON exf_swdown_mean              =   2.9427577411748E+01
(PID.TID 0000.0001) %MON exf_swdown_sd                =   2.1819344119040E+01
(PID.TID 0000.0001) %MON exf_swdown_del2              =   5.3259265265636E-01
(PID.TID 0000.0001) %MON exf_lwdown_max               =   3.0565323976611E+02
(PID.TID 0000.0001) %MON exf_lwdown_min               =   1.1595237147222E+02
(PID.TID 0000.0001) %MON exf_lwdown_mean              =   2.2590219497194E+02
(PID.TID 0000.0001) %MON exf_lwdown_sd                =   4.6289340871590E+01
(PID.TID 0000.0001) %MON exf_lwdown_del2              =   3.2438562169101E+00
(PID.TID 0000.0001) %MON exf_apressure_max            =   0.0000000000000E+00
(PID.TID 0000.0001) %MON exf_apressure_min            =   0.0000000000000E+00
(PID.TID 0000.0001) %MON exf_apressure_mean           =   0.0000000000000E+00
(PID.TID 0000.0001) %MON exf_apressure_sd             =   0.0000000000000E+00
(PID.TID 0000.0001) %MON exf_apressure_del2           =   0.0000000000000E+00
(PID.TID 0000.0001) %MON exf_runoff_max               =   0.0000000000000E+00
(PID.TID 0000.0001) %MON exf_runoff_min               =   0.0000000000000E+00
(PID.TID 0000.0001) %MON exf_runoff_mean              =   0.0000000000000E+00
(PID.TID 0000.0001) %MON exf_runoff_sd                =   0.0000000000000E+00
(PID.TID 0000.0001) %MON exf_runoff_del2              =   0.0000000000000E+00
(PID.TID 0000.0001) %MON exf_climsst_max              =   0.0000000000000E+00
(PID.TID 0000.0001) %MON exf_climsst_min              =   0.0000000000000E+00
(PID.TID 0000.0001) %MON exf_climsst_mean             =   0.0000000000000E+00
(PID.TID 0000.0001) %MON exf_climsst_sd               =   0.0000000000000E+00
(PID.TID 0000.0001) %MON exf_climsst_del2             =   0.0000000000000E+00
(PID.TID 0000.0001) %MON exf_climsss_max              =   3.5040885127959E+01
(PID.TID 0000.0001) %MON exf_climsss_min              =   3.0668591155380E+01
(PID.TID 0000.0001) %MON exf_climsss_mean             =   3.3460883601427E+01
(PID.TID 0000.0001) %MON exf_climsss_sd               =   1.0317405668875E+00
(PID.TID 0000.0001) %MON exf_climsss_del2             =   1.0014227359021E-01
(PID.TID 0000.0001) // =======================================================
(PID.TID 0000.0001) // End MONITOR EXF statistics
(PID.TID 0000.0001) // =======================================================
 ph-ice B  3  0.  0.  0.
 ph-ice C  3  2.04933577E+11
 cg2d: Sum(rhs),rhsMax =   3.25076132956514E-08  1.21053584980273E+00
(PID.TID 0000.0001) // =======================================================
(PID.TID 0000.0001) // Begin MONITOR SEAICE statistics
(PID.TID 0000.0001) // =======================================================
(PID.TID 0000.0001) %MON seaice_tsnumber              =                     4
(PID.TID 0000.0001) %MON seaice_time_sec              =   1.4400000000000E+04
(PID.TID 0000.0001) %MON seaice_uice_max              =   2.0410589071397E-01
(PID.TID 0000.0001) %MON seaice_uice_min              =  -1.0820664027344E-01
(PID.TID 0000.0001) %MON seaice_uice_mean             =   8.1220185398936E-02
(PID.TID 0000.0001) %MON seaice_uice_sd               =   7.8521495729901E-02
(PID.TID 0000.0001) %MON seaice_uice_del2             =   9.4128961120445E-03
(PID.TID 0000.0001) %MON seaice_vice_max              =   9.9289405364437E-02
(PID.TID 0000.0001) %MON seaice_vice_min              =  -1.9612309363587E-01
(PID.TID 0000.0001) %MON seaice_vice_mean             =  -3.7794370601097E-02
(PID.TID 0000.0001) %MON seaice_vice_sd               =   6.1057518351918E-02
(PID.TID 0000.0001) %MON seaice_vice_del2             =   6.9481573531702E-03
(PID.TID 0000.0001) %MON seaice_area_max              =   1.0000000000000E+00
(PID.TID 0000.0001) %MON seaice_area_min              =   0.0000000000000E+00
(PID.TID 0000.0001) %MON seaice_area_mean             =   6.2448968588165E-01
(PID.TID 0000.0001) %MON seaice_area_sd               =   4.5884271208511E-01
(PID.TID 0000.0001) %MON seaice_area_del2             =   5.3567623190634E-02
(PID.TID 0000.0001) %MON seaice_heff_max              =   5.5146835059086E-01
(PID.TID 0000.0001) %MON seaice_heff_min              =   0.0000000000000E+00
(PID.TID 0000.0001) %MON seaice_heff_mean             =   1.4217106930007E-01
(PID.TID 0000.0001) %MON seaice_heff_sd               =   1.7417991266296E-01
(PID.TID 0000.0001) %MON seaice_heff_del2             =   1.3240049482775E-02
(PID.TID 0000.0001) %MON seaice_hsnow_max             =   2.0313961711978E-01
(PID.TID 0000.0001) %MON seaice_hsnow_min             =   0.0000000000000E+00
(PID.TID 0000.0001) %MON seaice_hsnow_mean            =   1.1810788894730E-01
(PID.TID 0000.0001) %MON seaice_hsnow_sd              =   9.6917239052049E-02
(PID.TID 0000.0001) %MON seaice_hsnow_del2            =   6.4249667978328E-03
(PID.TID 0000.0001) // =======================================================
(PID.TID 0000.0001) // End MONITOR SEAICE statistics
(PID.TID 0000.0001) // =======================================================
(PID.TID 0000.0001) // =======================================================
(PID.TID 0000.0001) // Begin MONITOR EXF statistics
(PID.TID 0000.0001) // =======================================================
(PID.TID 0000.0001) %MON exf_tsnumber                 =                     4
(PID.TID 0000.0001) %MON exf_time_sec                 =   1.4400000000000E+04
(PID.TID 0000.0001) %MON exf_ustress_max              =   5.2222749041055E-02
(PID.TID 0000.0001) %MON exf_ustress_min              =  -9.3790194486454E-02
(PID.TID 0000.0001) %MON exf_ustress_mean             =   1.7935664576533E-02
(PID.TID 0000.0001) %MON exf_ustress_sd               =   2.3707712349264E-02
(PID.TID 0000.0001) %MON exf_ustress_del2             =   2.8164273999861E-03
(PID.TID 0000.0001) %MON exf_vstress_max              =   5.3829437114216E-02
(PID.TID 0000.0001) %MON exf_vstress_min              =  -5.8464476572394E-02
(PID.TID 0000.0001) %MON exf_vstress_mean             =  -5.4495372483812E-03
(PID.TID 0000.0001) %MON exf_vstress_sd               =   1.4442680712799E-02
(PID.TID 0000.0001) %MON exf_vstress_del2             =   1.6931341964151E-03
(PID.TID 0000.0001) %MON exf_hflux_max                =   6.2496267398705E+02
(PID.TID 0000.0001) %MON exf_hflux_min                =  -5.1565362850637E+01
(PID.TID 0000.0001) %MON exf_hflux_mean               =   1.4615660660825E+02
(PID.TID 0000.0001) %MON exf_hflux_sd                 =   1.8002235675005E+02
(PID.TID 0000.0001) %MON exf_hflux_del2               =   1.6301999235923E+01
(PID.TID 0000.0001) %MON exf_sflux_max                =   3.9025647077274E-08
(PID.TID 0000.0001) %MON exf_sflux_min                =  -8.8952139751916E-08
(PID.TID 0000.0001) %MON exf_sflux_mean               =  -2.5966972224088E-08
(PID.TID 0000.0001) %MON exf_sflux_sd                 =   3.0361915473708E-08
(PID.TID 0000.0001) %MON exf_sflux_del2               =   3.1623402221504E-09
(PID.TID 0000.0001) %MON exf_uwind_max                =   6.4664043520318E+00
(PID.TID 0000.0001) %MON exf_uwind_min                =  -6.8373452001582E+00
(PID.TID 0000.0001) %MON exf_uwind_mean               =   2.7702029429808E+00
(PID.TID 0000.0001) %MON exf_uwind_sd                 =   2.9911443548250E+00
(PID.TID 0000.0001) %MON exf_uwind_del2               =   3.1574156428286E-01
(PID.TID 0000.0001) %MON exf_vwind_max                =   3.9241889356915E+00
(PID.TID 0000.0001) %MON exf_vwind_min                =  -6.0160797489145E+00
(PID.TID 0000.0001) %MON exf_vwind_mean               =  -7.5842758888917E-01
(PID.TID 0000.0001) %MON exf_vwind_sd                 =   1.7297766046368E+00
(PID.TID 0000.0001) %MON exf_vwind_del2               =   1.9330515345662E-01
(PID.TID 0000.0001) %MON exf_wspeed_max               =   7.8834350500991E+00
(PID.TID 0000.0001) %MON exf_wspeed_min               =   4.5938084481311E-01
(PID.TID 0000.0001) %MON exf_wspeed_mean              =   4.1985322596174E+00
(PID.TID 0000.0001) %MON exf_wspeed_sd                =   1.6001985099325E+00
(PID.TID 0000.0001) %MON exf_wspeed_del2              =   3.7714995543655E-01
(PID.TID 0000.0001) %MON exf_atemp_max                =   2.8187596388853E+02
(PID.TID 0000.0001) %MON exf_atemp_min                =   2.3644390923339E+02
(PID.TID 0000.0001) %MON exf_atemp_mean               =   2.6392748056902E+02
(PID.TID 0000.0001) %MON exf_atemp_sd                 =   1.1989262125383E+01
(PID.TID 0000.0001) %MON exf_atemp_del2               =   6.4950041955286E-01
(PID.TID 0000.0001) %MON exf_aqh_max                  =   6.3203867802223E-03
(PID.TID 0000.0001) %MON exf_aqh_min                  =   1.6331633418045E-04
(PID.TID 0000.0001) %MON exf_aqh_mean                 =   2.4781214845702E-03
(PID.TID 0000.0001) %MON exf_aqh_sd                   =   1.4260952789855E-03
(PID.TID 0000.0001) %MON exf_aqh_del2                 =   6.8087110355054E-05
(PID.TID 0000.0001) %MON exf_lwflux_max               =   1.8154800702574E+02
(PID.TID 0000.0001) %MON exf_lwflux_min               =   2.7104463756392E+01
(PID.TID 0000.0001) %MON exf_lwflux_mean              =   7.5190180772473E+01
(PID.TID 0000.0001) %MON exf_lwflux_sd                =   4.2783228731738E+01
(PID.TID 0000.0001) %MON exf_lwflux_del2              =   3.2333532972474E+00
(PID.TID 0000.0001) %MON exf_precip_max               =   1.0499318877820E-07
(PID.TID 0000.0001) %MON exf_precip_min               =   2.7305928105298E-10
(PID.TID 0000.0001) %MON exf_precip_mean              =   3.6390037166947E-08
(PID.TID 0000.0001) %MON exf_precip_sd                =   2.0579953834835E-08
(PID.TID 0000.0001) %MON exf_precip_del2              =   2.5572657585019E-09
(PID.TID 0000.0001) %MON exf_snowprecip_max           =   0.0000000000000E+00
(PID.TID 0000.0001) %MON exf_snowprecip_min           =   0.0000000000000E+00
(PID.TID 0000.0001) %MON exf_snowprecip_mean          =   0.0000000000000E+00
(PID.TID 0000.0001) %MON exf_snowprecip_sd            =   0.0000000000000E+00
(PID.TID 0000.0001) %MON exf_snowprecip_del2          =   0.0000000000000E+00
(PID.TID 0000.0001) %MON exf_swflux_max               =  -8.1206886983309E-02
(PID.TID 0000.0001) %MON exf_swflux_min               =  -6.4048595415960E+01
(PID.TID 0000.0001) %MON exf_swflux_mean              =  -2.6495351886448E+01
(PID.TID 0000.0001) %MON exf_swflux_sd                =   1.9641247100083E+01
(PID.TID 0000.0001) %MON exf_swflux_del2              =   4.7944026133668E-01
(PID.TID 0000.0001) %MON exf_evap_max                 =   4.5347204057645E-08
(PID.TID 0000.0001) %MON exf_evap_min                 =  -4.2663929302686E-09
(PID.TID 0000.0001) %MON exf_evap_mean                =   1.0423064942859E-08
(PID.TID 0000.0001) %MON exf_evap_sd                  =   1.1085438365151E-08
(PID.TID 0000.0001) %MON exf_evap_del2                =   1.3323750877270E-09
(PID.TID 0000.0001) %MON exf_swdown_max               =   7.1165106017733E+01
(PID.TID 0000.0001) %MON exf_swdown_min               =   9.0229874425898E-02
(PID.TID 0000.0001) %MON exf_swdown_mean              =   2.9439279873831E+01
(PID.TID 0000.0001) %MON exf_swdown_sd                =   2.1823607888981E+01
(PID.TID 0000.0001) %MON exf_swdown_del2              =   5.3271140148521E-01
(PID.TID 0000.0001) %MON exf_lwdown_max               =   3.0564441368228E+02
(PID.TID 0000.0001) %MON exf_lwdown_min               =   1.1593726459357E+02
(PID.TID 0000.0001) %MON exf_lwdown_mean              =   2.2588648764287E+02
(PID.TID 0000.0001) %MON exf_lwdown_sd                =   4.6293313753333E+01
(PID.TID 0000.0001) %MON exf_lwdown_del2              =   3.2438678569828E+00
(PID.TID 0000.0001) %MON exf_apressure_max            =   0.0000000000000E+00
(PID.TID 0000.0001) %MON exf_apressure_min            =   0.0000000000000E+00
(PID.TID 0000.0001) %MON exf_apressure_mean           =   0.0000000000000E+00
(PID.TID 0000.0001) %MON exf_apressure_sd             =   0.0000000000000E+00
(PID.TID 0000.0001) %MON exf_apressure_del2           =   0.0000000000000E+00
(PID.TID 0000.0001) %MON exf_runoff_max               =   0.0000000000000E+00
(PID.TID 0000.0001) %MON exf_runoff_min               =   0.0000000000000E+00
(PID.TID 0000.0001) %MON exf_runoff_mean              =   0.0000000000000E+00
(PID.TID 0000.0001) %MON exf_runoff_sd                =   0.0000000000000E+00
(PID.TID 0000.0001) %MON exf_runoff_del2              =   0.0000000000000E+00
(PID.TID 0000.0001) %MON exf_climsst_max              =   0.0000000000000E+00
(PID.TID 0000.0001) %MON exf_climsst_min              =   0.0000000000000E+00
(PID.TID 0000.0001) %MON exf_climsst_mean             =   0.0000000000000E+00
(PID.TID 0000.0001) %MON exf_climsst_sd               =   0.0000000000000E+00
(PID.TID 0000.0001) %MON exf_climsst_del2             =   0.0000000000000E+00
(PID.TID 0000.0001) %MON exf_climsss_max              =   3.5041069874998E+01
(PID.TID 0000.0001) %MON exf_climsss_min              =   3.0669350483378E+01
(PID.TID 0000.0001) %MON exf_climsss_mean             =   3.3461404934907E+01
(PID.TID 0000.0001) %MON exf_climsss_sd               =   1.0316695849659E+00
(PID.TID 0000.0001) %MON exf_climsss_del2             =   1.0012504429982E-01
(PID.TID 0000.0001) // =======================================================
(PID.TID 0000.0001) // End MONITOR EXF statistics
(PID.TID 0000.0001) // =======================================================
 ph-ice B  4  0.  0.  0.
 ph-ice C  4  2.55604485E+11
 cg2d: Sum(rhs),rhsMax =   3.22656308580915E-08  1.20538351375283E+00
(PID.TID 0000.0001) // =======================================================
(PID.TID 0000.0001) // Begin MONITOR SEAICE statistics
(PID.TID 0000.0001) // =======================================================
(PID.TID 0000.0001) %MON seaice_tsnumber              =                     5
(PID.TID 0000.0001) %MON seaice_time_sec              =   1.8000000000000E+04
(PID.TID 0000.0001) %MON seaice_uice_max              =   2.1945857397591E-01
(PID.TID 0000.0001) %MON seaice_uice_min              =  -1.0939009902186E-01
(PID.TID 0000.0001) %MON seaice_uice_mean             =   8.3083953688191E-02
(PID.TID 0000.0001) %MON seaice_uice_sd               =   8.3463928770375E-02
(PID.TID 0000.0001) %MON seaice_uice_del2             =   1.0024689056385E-02
(PID.TID 0000.0001) %MON seaice_vice_max              =   1.0086929767118E-01
(PID.TID 0000.0001) %MON seaice_vice_min              =  -1.9808188879087E-01
(PID.TID 0000.0001) %MON seaice_vice_mean             =  -4.6968602850482E-02
(PID.TID 0000.0001) %MON seaice_vice_sd               =   6.7920973819624E-02
(PID.TID 0000.0001) %MON seaice_vice_del2             =   7.5957185433563E-03
(PID.TID 0000.0001) %MON seaice_area_max              =   1.0000000000000E+00
(PID.TID 0000.0001) %MON seaice_area_min              =   0.0000000000000E+00
(PID.TID 0000.0001) %MON seaice_area_mean             =   6.2430154457553E-01
(PID.TID 0000.0001) %MON seaice_area_sd               =   4.5848051812095E-01
(PID.TID 0000.0001) %MON seaice_area_del2             =   5.3615026603883E-02
(PID.TID 0000.0001) %MON seaice_heff_max              =   5.4903937822394E-01
(PID.TID 0000.0001) %MON seaice_heff_min              =   0.0000000000000E+00
(PID.TID 0000.0001) %MON seaice_heff_mean             =   1.4223695501386E-01
(PID.TID 0000.0001) %MON seaice_heff_sd               =   1.7414925027197E-01
(PID.TID 0000.0001) %MON seaice_heff_del2             =   1.3251465487822E-02
(PID.TID 0000.0001) %MON seaice_hsnow_max             =   2.0392476353420E-01
(PID.TID 0000.0001) %MON seaice_hsnow_min             =   0.0000000000000E+00
(PID.TID 0000.0001) %MON seaice_hsnow_mean            =   1.1825099134747E-01
(PID.TID 0000.0001) %MON seaice_hsnow_sd              =   9.7044356047765E-02
(PID.TID 0000.0001) %MON seaice_hsnow_del2            =   6.4762509686824E-03
(PID.TID 0000.0001) // =======================================================
(PID.TID 0000.0001) // End MONITOR SEAICE statistics
(PID.TID 0000.0001) // =======================================================
(PID.TID 0000.0001) // =======================================================
(PID.TID 0000.0001) // Begin MONITOR EXF statistics
(PID.TID 0000.0001) // =======================================================
(PID.TID 0000.0001) %MON exf_tsnumber                 =                     5
(PID.TID 0000.0001) %MON exf_time_sec                 =   1.8000000000000E+04
(PID.TID 0000.0001) %MON exf_ustress_max              =   5.2230884117606E-02
(PID.TID 0000.0001) %MON exf_ustress_min              =  -9.3792692313509E-02
(PID.TID 0000.0001) %MON exf_ustress_mean             =   1.7944940464059E-02
(PID.TID 0000.0001) %MON exf_ustress_sd               =   2.3713963714243E-02
(PID.TID 0000.0001) %MON exf_ustress_del2             =   2.8173055707469E-03
(PID.TID 0000.0001) %MON exf_vstress_max              =   5.3831073859948E-02
(PID.TID 0000.0001) %MON exf_vstress_min              =  -5.8456785540560E-02
(PID.TID 0000.0001) %MON exf_vstress_mean             =  -5.4464509960182E-03
(PID.TID 0000.0001) %MON exf_vstress_sd               =   1.4444945153431E-02
(PID.TID 0000.0001) %MON exf_vstress_del2             =   1.6932729838580E-03
(PID.TID 0000.0001) %MON exf_hflux_max                =   6.2503361232607E+02
(PID.TID 0000.0001) %MON exf_hflux_min                =  -5.1451597522507E+01
(PID.TID 0000.0001) %MON exf_hflux_mean               =   1.4623260272574E+02
(PID.TID 0000.0001) %MON exf_hflux_sd                 =   1.8002329580588E+02
(PID.TID 0000.0001) %MON exf_hflux_del2               =   1.6301002267688E+01
(PID.TID 0000.0001) %MON exf_sflux_max                =   3.9028023656348E-08
(PID.TID 0000.0001) %MON exf_sflux_min                =  -8.8915527500467E-08
(PID.TID 0000.0001) %MON exf_sflux_mean               =  -2.5958894032494E-08
(PID.TID 0000.0001) %MON exf_sflux_sd                 =   3.0357858620323E-08
(PID.TID 0000.0001) %MON exf_sflux_del2               =   3.1625227055635E-09
(PID.TID 0000.0001) %MON exf_uwind_max                =   6.4669118044806E+00
(PID.TID 0000.0001) %MON exf_uwind_min                =  -6.8373719818605E+00
(PID.TID 0000.0001) %MON exf_uwind_mean               =   2.7703104953252E+00
(PID.TID 0000.0001) %MON exf_uwind_sd                 =   2.9914204817202E+00
(PID.TID 0000.0001) %MON exf_uwind_del2               =   3.1574946850541E-01
(PID.TID 0000.0001) %MON exf_vwind_max                =   3.9242191164871E+00
(PID.TID 0000.0001) %MON exf_vwind_min                =  -6.0151738390896E+00
(PID.TID 0000.0001) %MON exf_vwind_mean               =  -7.5780981579906E-01
(PID.TID 0000.0001) %MON exf_vwind_sd                 =   1.7298850990135E+00
(PID.TID 0000.0001) %MON exf_vwind_del2               =   1.9329828211469E-01
(PID.TID 0000.0001) %MON exf_wspeed_max               =   7.8834733013142E+00
(PID.TID 0000.0001) %MON exf_wspeed_min               =   4.5913801314248E-01
(PID.TID 0000.0001) %MON exf_wspeed_mean              =   4.1986352194932E+00
(PID.TID 0000.0001) %MON exf_wspeed_sd                =   1.6004553118739E+00
(PID.TID 0000.0001) %MON exf_wspeed_del2              =   3.7720325813743E-01
(PID.TID 0000.0001) %MON exf_atemp_max                =   2.8187425173567E+02
(PID.TID 0000.0001) %MON exf_atemp_min                =   2.3643944426573E+02
(PID.TID 0000.0001) %MON exf_atemp_mean               =   2.6392283648761E+02
(PID.TID 0000.0001) %MON exf_atemp_sd                 =   1.1990724610210E+01
(PID.TID 0000.0001) %MON exf_atemp_del2               =   6.4951975110530E-01
(PID.TID 0000.0001) %MON exf_aqh_max                  =   6.3196902393613E-03
(PID.TID 0000.0001) %MON exf_aqh_min                  =   1.6322223068205E-04
(PID.TID 0000.0001) %MON exf_aqh_mean                 =   2.4775611281656E-03
(PID.TID 0000.0001) %MON exf_aqh_sd                   =   1.4259923191659E-03
(PID.TID 0000.0001) %MON exf_aqh_del2                 =   6.8073442793907E-05
(PID.TID 0000.0001) %MON exf_lwflux_max               =   1.8156112611884E+02
(PID.TID 0000.0001) %MON exf_lwflux_min               =   2.7075633021225E+01
(PID.TID 0000.0001) %MON exf_lwflux_mean              =   7.5214628697917E+01
(PID.TID 0000.0001) %MON exf_lwflux_sd                =   4.2777642909891E+01
(PID.TID 0000.0001) %MON exf_lwflux_del2              =   3.2323847169128E+00
(PID.TID 0000.0001) %MON exf_precip_max               =   1.0499457022082E-07
(PID.TID 0000.0001) %MON exf_precip_min               =   2.7292535458031E-10
(PID.TID 0000.0001) %MON exf_precip_mean              =   3.6390026322913E-08
(PID.TID 0000.0001) %MON exf_precip_sd                =   2.0580406889746E-08
(PID.TID 0000.0001) %MON exf_precip_del2              =   2.5577934516916E-09
(PID.TID 0000.0001) %MON exf_snowprecip_max           =   0.0000000000000E+00
(PID.TID 0000.0001) %MON exf_snowprecip_min           =   0.0000000000000E+00
(PID.TID 0000.0001) %MON exf_snowprecip_mean          =   0.0000000000000E+00
(PID.TID 0000.0001) %MON exf_snowprecip_sd            =   0.0000000000000E+00
(PID.TID 0000.0001) %MON exf_snowprecip_del2          =   0.0000000000000E+00
(PID.TID 0000.0001) %MON exf_swflux_max               =  -8.1207169861090E-02
(PID.TID 0000.0001) %MON exf_swflux_min               =  -6.4067465766532E+01
(PID.TID 0000.0001) %MON exf_swflux_mean              =  -2.6505884102323E+01
(PID.TID 0000.0001) %MON exf_swflux_sd                =   1.9645085084315E+01
(PID.TID 0000.0001) %MON exf_swflux_del2              =   4.7954713528264E-01
(PID.TID 0000.0001) %MON exf_evap_max                 =   4.5348917925789E-08
(PID.TID 0000.0001) %MON exf_evap_min                 =  -4.2424751709925E-09
(PID.TID 0000.0001) %MON exf_evap_mean                =   1.0431132290419E-08
(PID.TID 0000.0001) %MON exf_evap_sd                  =   1.1081501329576E-08
(PID.TID 0000.0001) %MON exf_evap_del2                =   1.3323461200048E-09
(PID.TID 0000.0001) %MON exf_swdown_max               =   7.1186073073924E+01
(PID.TID 0000.0001) %MON exf_swdown_min               =   9.0230188734544E-02
(PID.TID 0000.0001) %MON exf_swdown_mean              =   2.9450982335914E+01
(PID.TID 0000.0001) %MON exf_swdown_sd                =   2.1827872315905E+01
(PID.TID 0000.0001) %MON exf_swdown_del2              =   5.3283015031405E-01
(PID.TID 0000.0001) %MON exf_lwdown_max               =   3.0563558759846E+02
(PID.TID 0000.0001) %MON exf_lwdown_min               =   1.1592215771493E+02
(PID.TID 0000.0001) %MON exf_lwdown_mean              =   2.2587078031381E+02
(PID.TID 0000.0001) %MON exf_lwdown_sd                =   4.6297287802066E+01
(PID.TID 0000.0001) %MON exf_lwdown_del2              =   3.2438794970556E+00
(PID.TID 0000.0001) %MON exf_apressure_max            =   0.0000000000000E+00
(PID.TID 0000.0001) %MON exf_apressure_min            =   0.0000000000000E+00
(PID.TID 0000.0001) %MON exf_apressure_mean           =   0.0000000000000E+00
(PID.TID 0000.0001) %MON exf_apressure_sd             =   0.0000000000000E+00
(PID.TID 0000.0001) %MON exf_apressure_del2           =   0.0000000000000E+00
(PID.TID 0000.0001) %MON exf_runoff_max               =   0.0000000000000E+00
(PID.TID 0000.0001) %MON exf_runoff_min               =   0.0000000000000E+00
(PID.TID 0000.0001) %MON exf_runoff_mean              =   0.0000000000000E+00
(PID.TID 0000.0001) %MON exf_runoff_sd                =   0.0000000000000E+00
(PID.TID 0000.0001) %MON exf_runoff_del2              =   0.0000000000000E+00
(PID.TID 0000.0001) %MON exf_climsst_max              =   0.0000000000000E+00
(PID.TID 0000.0001) %MON exf_climsst_min              =   0.0000000000000E+00
(PID.TID 0000.0001) %MON exf_climsst_mean             =   0.0000000000000E+00
(PID.TID 0000.0001) %MON exf_climsst_sd               =   0.0000000000000E+00
(PID.TID 0000.0001) %MON exf_climsst_del2             =   0.0000000000000E+00
(PID.TID 0000.0001) %MON exf_climsss_max              =   3.5041254622037E+01
(PID.TID 0000.0001) %MON exf_climsss_min              =   3.0670109811376E+01
(PID.TID 0000.0001) %MON exf_climsss_mean             =   3.3461926268386E+01
(PID.TID 0000.0001) %MON exf_climsss_sd               =   1.0315988331065E+00
(PID.TID 0000.0001) %MON exf_climsss_del2             =   1.0010781500943E-01
(PID.TID 0000.0001) // =======================================================
(PID.TID 0000.0001) // End MONITOR EXF statistics
(PID.TID 0000.0001) // =======================================================
 ph-ice B  5  0.  0.  0.
 ph-ice C  5  3.0628165E+11
 cg2d: Sum(rhs),rhsMax =   3.20074106073542E-08  1.19996672431471E+00
(PID.TID 0000.0001) // =======================================================
(PID.TID 0000.0001) // Begin MONITOR SEAICE statistics
(PID.TID 0000.0001) // =======================================================
(PID.TID 0000.0001) %MON seaice_tsnumber              =                     6
(PID.TID 0000.0001) %MON seaice_time_sec              =   2.1600000000000E+04
(PID.TID 0000.0001) %MON seaice_uice_max              =   2.3993535277789E-01
(PID.TID 0000.0001) %MON seaice_uice_min              =  -1.0534849502406E-01
(PID.TID 0000.0001) %MON seaice_uice_mean             =   8.0982930003378E-02
(PID.TID 0000.0001) %MON seaice_uice_sd               =   8.5695436154795E-02
(PID.TID 0000.0001) %MON seaice_uice_del2             =   1.0079189901105E-02
(PID.TID 0000.0001) %MON seaice_vice_max              =   9.8351447679853E-02
(PID.TID 0000.0001) %MON seaice_vice_min              =  -2.1228924530168E-01
(PID.TID 0000.0001) %MON seaice_vice_mean             =  -5.4937358800055E-02
(PID.TID 0000.0001) %MON seaice_vice_sd               =   7.2062228107973E-02
(PID.TID 0000.0001) %MON seaice_vice_del2             =   8.0226776019461E-03
(PID.TID 0000.0001) %MON seaice_area_max              =   1.0000000000000E+00
(PID.TID 0000.0001) %MON seaice_area_min              =   0.0000000000000E+00
(PID.TID 0000.0001) %MON seaice_area_mean             =   6.2417692624306E-01
(PID.TID 0000.0001) %MON seaice_area_sd               =   4.5808401747603E-01
(PID.TID 0000.0001) %MON seaice_area_del2             =   5.3631222080193E-02
(PID.TID 0000.0001) %MON seaice_heff_max              =   5.4790358803119E-01
(PID.TID 0000.0001) %MON seaice_heff_min              =   0.0000000000000E+00
(PID.TID 0000.0001) %MON seaice_heff_mean             =   1.4225452054656E-01
(PID.TID 0000.0001) %MON seaice_heff_sd               =   1.7422550980000E-01
(PID.TID 0000.0001) %MON seaice_heff_del2             =   1.3240942861440E-02
(PID.TID 0000.0001) %MON seaice_hsnow_max             =   2.0470995401277E-01
(PID.TID 0000.0001) %MON seaice_hsnow_min             =   0.0000000000000E+00
(PID.TID 0000.0001) %MON seaice_hsnow_mean            =   1.1841143347606E-01
(PID.TID 0000.0001) %MON seaice_hsnow_sd              =   9.7165681938451E-02
(PID.TID 0000.0001) %MON seaice_hsnow_del2            =   6.5148328821305E-03
(PID.TID 0000.0001) // =======================================================
(PID.TID 0000.0001) // End MONITOR SEAICE statistics
(PID.TID 0000.0001) // =======================================================
(PID.TID 0000.0001) // =======================================================
(PID.TID 0000.0001) // Begin MONITOR EXF statistics
(PID.TID 0000.0001) // =======================================================
(PID.TID 0000.0001) %MON exf_tsnumber                 =                     6
(PID.TID 0000.0001) %MON exf_time_sec                 =   2.1600000000000E+04
(PID.TID 0000.0001) %MON exf_ustress_max              =   5.2237984457747E-02
(PID.TID 0000.0001) %MON exf_ustress_min              =  -9.3794680426843E-02
(PID.TID 0000.0001) %MON exf_ustress_mean             =   1.7953013071897E-02
(PID.TID 0000.0001) %MON exf_ustress_sd               =   2.3720087043410E-02
(PID.TID 0000.0001) %MON exf_ustress_del2             =   2.8182312819917E-03
(PID.TID 0000.0001) %MON exf_vstress_max              =   5.3832418070363E-02
(PID.TID 0000.0001) %MON exf_vstress_min              =  -5.8451170700757E-02
(PID.TID 0000.0001) %MON exf_vstress_mean             =  -5.4433697425246E-03
(PID.TID 0000.0001) %MON exf_vstress_sd               =   1.4447187637807E-02
(PID.TID 0000.0001) %MON exf_vstress_del2             =   1.6932776905485E-03
(PID.TID 0000.0001) %MON exf_hflux_max                =   6.2507220073318E+02
(PID.TID 0000.0001) %MON exf_hflux_min                =  -5.1351197165169E+01
(PID.TID 0000.0001) %MON exf_hflux_mean               =   1.4630889590988E+02
(PID.TID 0000.0001) %MON exf_hflux_sd                 =   1.8003247697857E+02
(PID.TID 0000.0001) %MON exf_hflux_del2               =   1.6303845561664E+01
(PID.TID 0000.0001) %MON exf_sflux_max                =   3.9026275524026E-08
(PID.TID 0000.0001) %MON exf_sflux_min                =  -8.8868954898073E-08
(PID.TID 0000.0001) %MON exf_sflux_mean               =  -2.5950948415861E-08
(PID.TID 0000.0001) %MON exf_sflux_sd                 =   3.0354686551529E-08
(PID.TID 0000.0001) %MON exf_sflux_del2               =   3.1631158050947E-09
(PID.TID 0000.0001) %MON exf_uwind_max                =   6.4674192569295E+00
(PID.TID 0000.0001) %MON exf_uwind_min                =  -6.8373987635628E+00
(PID.TID 0000.0001) %MON exf_uwind_mean               =   2.7704180476696E+00
(PID.TID 0000.0001) %MON exf_uwind_sd                 =   2.9916966488382E+00
(PID.TID 0000.0001) %MON exf_uwind_del2               =   3.1575737272796E-01
(PID.TID 0000.0001) %MON exf_vwind_max                =   3.9242492972827E+00
(PID.TID 0000.0001) %MON exf_vwind_min                =  -6.0142679292648E+00
(PID.TID 0000.0001) %MON exf_vwind_mean               =  -7.5719204270894E-01
(PID.TID 0000.0001) %MON exf_vwind_sd                 =   1.7299937065642E+00
(PID.TID 0000.0001) %MON exf_vwind_del2               =   1.9329141077275E-01
(PID.TID 0000.0001) %MON exf_wspeed_max               =   7.8835115525503E+00
(PID.TID 0000.0001) %MON exf_wspeed_min               =   4.5889518386928E-01
(PID.TID 0000.0001) %MON exf_wspeed_mean              =   4.1987383082859E+00
(PID.TID 0000.0001) %MON exf_wspeed_sd                =   1.6007122259633E+00
(PID.TID 0000.0001) %MON exf_wspeed_del2              =   3.7725655435875E-01
(PID.TID 0000.0001) %MON exf_atemp_max                =   2.8187253958280E+02
(PID.TID 0000.0001) %MON exf_atemp_min                =   2.3643497929808E+02
(PID.TID 0000.0001) %MON exf_atemp_mean               =   2.6391819240620E+02
(PID.TID 0000.0001) %MON exf_atemp_sd                 =   1.1992187582136E+01
(PID.TID 0000.0001) %MON exf_atemp_del2               =   6.4953908265774E-01
(PID.TID 0000.0001) %MON exf_aqh_max                  =   6.3189936985002E-03
(PID.TID 0000.0001) %MON exf_aqh_min                  =   1.6312812718364E-04
(PID.TID 0000.0001) %MON exf_aqh_mean                 =   2.4770007717611E-03
(PID.TID 0000.0001) %MON exf_aqh_sd                   =   1.4258893952382E-03
(PID.TID 0000.0001) %MON exf_aqh_del2                 =   6.8059775232760E-05
(PID.TID 0000.0001) %MON exf_lwflux_max               =   1.8157457967830E+02
(PID.TID 0000.0001) %MON exf_lwflux_min               =   2.7062314434347E+01
(PID.TID 0000.0001) %MON exf_lwflux_mean              =   7.5238109088164E+01
(PID.TID 0000.0001) %MON exf_lwflux_sd                =   4.2774670428772E+01
(PID.TID 0000.0001) %MON exf_lwflux_del2              =   3.2322268735285E+00
(PID.TID 0000.0001) %MON exf_precip_max               =   1.0499595166344E-07
(PID.TID 0000.0001) %MON exf_precip_min               =   2.7279142810763E-10
(PID.TID 0000.0001) %MON exf_precip_mean              =   3.6390015478879E-08
(PID.TID 0000.0001) %MON exf_precip_sd                =   2.0580860600171E-08
(PID.TID 0000.0001) %MON exf_precip_del2              =   2.5583211448813E-09
(PID.TID 0000.0001) %MON exf_snowprecip_max           =   0.0000000000000E+00
(PID.TID 0000.0001) %MON exf_snowprecip_min           =   0.0000000000000E+00
(PID.TID 0000.0001) %MON exf_snowprecip_mean          =   0.0000000000000E+00
(PID.TID 0000.0001) %MON exf_snowprecip_sd            =   0.0000000000000E+00
(PID.TID 0000.0001) %MON exf_snowprecip_del2          =   0.0000000000000E+00
(PID.TID 0000.0001) %MON exf_swflux_max               =  -8.1207452738871E-02
(PID.TID 0000.0001) %MON exf_swflux_min               =  -6.4086336117103E+01
(PID.TID 0000.0001) %MON exf_swflux_mean              =  -2.6516416318198E+01
(PID.TID 0000.0001) %MON exf_swflux_sd                =   1.9648923659484E+01
(PID.TID 0000.0001) %MON exf_swflux_del2              =   4.7965400922860E-01
(PID.TID 0000.0001) %MON exf_evap_max                 =   4.5346507082536E-08
(PID.TID 0000.0001) %MON exf_evap_min                 =  -4.2210682126212E-09
(PID.TID 0000.0001) %MON exf_evap_mean                =   1.0439067063018E-08
(PID.TID 0000.0001) %MON exf_evap_sd                  =   1.1078854949320E-08
(PID.TID 0000.0001) %MON exf_evap_del2                =   1.3326467179555E-09
(PID.TID 0000.0001) %MON exf_swdown_max               =   7.1207040130115E+01
(PID.TID 0000.0001) %MON exf_swdown_min               =   9.0230503043190E-02
(PID.TID 0000.0001) %MON exf_swdown_mean              =   2.9462684797997E+01
(PID.TID 0000.0001) %MON exf_swdown_sd                =   2.1832137399427E+01
(PID.TID 0000.0001) %MON exf_swdown_del2              =   5.3294889914289E-01
(PID.TID 0000.0001) %MON exf_lwdown_max               =   3.0562676151463E+02
(PID.TID 0000.0001) %MON exf_lwdown_min               =   1.1590705083628E+02
(PID.TID 0000.0001) %MON exf_lwdown_mean              =   2.2585507298474E+02
(PID.TID 0000.0001) %MON exf_lwdown_sd                =   4.6301263017486E+01
(PID.TID 0000.0001) %MON exf_lwdown_del2              =   3.2438911371283E+00
(PID.TID 0000.0001) %MON exf_apressure_max            =   0.0000000000000E+00
(PID.TID 0000.0001) %MON exf_apressure_min            =   0.0000000000000E+00
(PID.TID 0000.0001) %MON exf_apressure_mean           =   0.0000000000000E+00
(PID.TID 0000.0001) %MON exf_apressure_sd             =   0.0000000000000E+00
(PID.TID 0000.0001) %MON exf_apressure_del2           =   0.0000000000000E+00
(PID.TID 0000.0001) %MON exf_runoff_max               =   0.0000000000000E+00
(PID.TID 0000.0001) %MON exf_runoff_min               =   0.0000000000000E+00
(PID.TID 0000.0001) %MON exf_runoff_mean              =   0.0000000000000E+00
(PID.TID 0000.0001) %MON exf_runoff_sd                =   0.0000000000000E+00
(PID.TID 0000.0001) %MON exf_runoff_del2              =   0.0000000000000E+00
(PID.TID 0000.0001) %MON exf_climsst_max              =   0.0000000000000E+00
(PID.TID 0000.0001) %MON exf_climsst_min              =   0.0000000000000E+00
(PID.TID 0000.0001) %MON exf_climsst_mean             =   0.0000000000000E+00
(PID.TID 0000.0001) %MON exf_climsst_sd               =   0.0000000000000E+00
(PID.TID 0000.0001) %MON exf_climsst_del2             =   0.0000000000000E+00
(PID.TID 0000.0001) %MON exf_climsss_max              =   3.5041439369077E+01
(PID.TID 0000.0001) %MON exf_climsss_min              =   3.0670869139374E+01
(PID.TID 0000.0001) %MON exf_climsss_mean             =   3.3462447601866E+01
(PID.TID 0000.0001) %MON exf_climsss_sd               =   1.0315283113566E+00
(PID.TID 0000.0001) %MON exf_climsss_del2             =   1.0009058571904E-01
(PID.TID 0000.0001) // =======================================================
(PID.TID 0000.0001) // End MONITOR EXF statistics
(PID.TID 0000.0001) // =======================================================
 ph-ice B  6  0.  0.  0.
 ph-ice C  6  3.56943217E+11
 cg2d: Sum(rhs),rhsMax =   3.26976223458120E-08  1.19247381815381E+00
(PID.TID 0000.0001) // =======================================================
(PID.TID 0000.0001) // Begin MONITOR SEAICE statistics
(PID.TID 0000.0001) // =======================================================
(PID.TID 0000.0001) %MON seaice_tsnumber              =                     7
(PID.TID 0000.0001) %MON seaice_time_sec              =   2.5200000000000E+04
(PID.TID 0000.0001) %MON seaice_uice_max              =   2.5686338579144E-01
(PID.TID 0000.0001) %MON seaice_uice_min              =  -9.7750591653208E-02
(PID.TID 0000.0001) %MON seaice_uice_mean             =   7.6056687180573E-02
(PID.TID 0000.0001) %MON seaice_uice_sd               =   8.5422802679765E-02
(PID.TID 0000.0001) %MON seaice_uice_del2             =   9.6584643523132E-03
(PID.TID 0000.0001) %MON seaice_vice_max              =   9.3826162070697E-02
(PID.TID 0000.0001) %MON seaice_vice_min              =  -2.2536421276284E-01
(PID.TID 0000.0001) %MON seaice_vice_mean             =  -6.0012253470116E-02
(PID.TID 0000.0001) %MON seaice_vice_sd               =   7.2853120480342E-02
(PID.TID 0000.0001) %MON seaice_vice_del2             =   8.1656292187281E-03
(PID.TID 0000.0001) %MON seaice_area_max              =   1.0000000000000E+00
(PID.TID 0000.0001) %MON seaice_area_min              =   0.0000000000000E+00
(PID.TID 0000.0001) %MON seaice_area_mean             =   6.2408692749300E-01
(PID.TID 0000.0001) %MON seaice_area_sd               =   4.5772393964569E-01
(PID.TID 0000.0001) %MON seaice_area_del2             =   5.3629443786031E-02
(PID.TID 0000.0001) %MON seaice_heff_max              =   5.4815057630953E-01
(PID.TID 0000.0001) %MON seaice_heff_min              =   0.0000000000000E+00
(PID.TID 0000.0001) %MON seaice_heff_mean             =   1.4221073572199E-01
(PID.TID 0000.0001) %MON seaice_heff_sd               =   1.7437174099330E-01
(PID.TID 0000.0001) %MON seaice_heff_del2             =   1.3220417744313E-02
(PID.TID 0000.0001) %MON seaice_hsnow_max             =   2.0549515084231E-01
(PID.TID 0000.0001) %MON seaice_hsnow_min             =   0.0000000000000E+00
(PID.TID 0000.0001) %MON seaice_hsnow_mean            =   1.1857184786601E-01
(PID.TID 0000.0001) %MON seaice_hsnow_sd              =   9.7287286135559E-02
(PID.TID 0000.0001) %MON seaice_hsnow_del2            =   6.5537586309532E-03
(PID.TID 0000.0001) // =======================================================
(PID.TID 0000.0001) // End MONITOR SEAICE statistics
(PID.TID 0000.0001) // =======================================================
(PID.TID 0000.0001) // =======================================================
(PID.TID 0000.0001) // Begin MONITOR EXF statistics
(PID.TID 0000.0001) // =======================================================
(PID.TID 0000.0001) %MON exf_tsnumber                 =                     7
(PID.TID 0000.0001) %MON exf_time_sec                 =   2.5200000000000E+04
(PID.TID 0000.0001) %MON exf_ustress_max              =   5.2243932821659E-02
(PID.TID 0000.0001) %MON exf_ustress_min              =  -9.3796695311271E-02
(PID.TID 0000.0001) %MON exf_ustress_mean             =   1.7960118165489E-02
(PID.TID 0000.0001) %MON exf_ustress_sd               =   2.3726167290871E-02
(PID.TID 0000.0001) %MON exf_ustress_del2             =   2.8191134972842E-03
(PID.TID 0000.0001) %MON exf_vstress_max              =   5.3833777652831E-02
(PID.TID 0000.0001) %MON exf_vstress_min              =  -5.8440994812684E-02
(PID.TID 0000.0001) %MON exf_vstress_mean             =  -5.4400586791203E-03
(PID.TID 0000.0001) %MON exf_vstress_sd               =   1.4449140448780E-02
(PID.TID 0000.0001) %MON exf_vstress_del2             =   1.6932577360048E-03
(PID.TID 0000.0001) %MON exf_hflux_max                =   6.2511249114524E+02
(PID.TID 0000.0001) %MON exf_hflux_min                =  -5.1292187875900E+01
(PID.TID 0000.0001) %MON exf_hflux_mean               =   1.4638053690740E+02
(PID.TID 0000.0001) %MON exf_hflux_sd                 =   1.8004882949729E+02
(PID.TID 0000.0001) %MON exf_hflux_del2               =   1.6307649057617E+01
(PID.TID 0000.0001) %MON exf_sflux_max                =   3.9024744508745E-08
(PID.TID 0000.0001) %MON exf_sflux_min                =  -8.8844029800835E-08
(PID.TID 0000.0001) %MON exf_sflux_mean               =  -2.5943668175004E-08
(PID.TID 0000.0001) %MON exf_sflux_sd                 =   3.0352933634197E-08
(PID.TID 0000.0001) %MON exf_sflux_del2               =   3.1638684468414E-09
(PID.TID 0000.0001) %MON exf_uwind_max                =   6.4679267093784E+00
(PID.TID 0000.0001) %MON exf_uwind_min                =  -6.8374255452651E+00
(PID.TID 0000.0001) %MON exf_uwind_mean               =   2.7705256000140E+00
(PID.TID 0000.0001) %MON exf_uwind_sd                 =   2.9919728561678E+00
(PID.TID 0000.0001) %MON exf_uwind_del2               =   3.1576527695052E-01
(PID.TID 0000.0001) %MON exf_vwind_max                =   3.9242794780783E+00
(PID.TID 0000.0001) %MON exf_vwind_min                =  -6.0133620194399E+00
(PID.TID 0000.0001) %MON exf_vwind_mean               =  -7.5657426961883E-01
(PID.TID 0000.0001) %MON exf_vwind_sd                 =   1.7301024272674E+00
(PID.TID 0000.0001) %MON exf_vwind_del2               =   1.9328456693798E-01
(PID.TID 0000.0001) %MON exf_wspeed_max               =   7.8835498038073E+00
(PID.TID 0000.0001) %MON exf_wspeed_min               =   4.5865235699732E-01
(PID.TID 0000.0001) %MON exf_wspeed_mean              =   4.1988415259832E+00
(PID.TID 0000.0001) %MON exf_wspeed_sd                =   1.6009692521540E+00
(PID.TID 0000.0001) %MON exf_wspeed_del2              =   3.7730984410389E-01
(PID.TID 0000.0001) %MON exf_atemp_max                =   2.8187082742993E+02
(PID.TID 0000.0001) %MON exf_atemp_min                =   2.3643051433042E+02
(PID.TID 0000.0001) %MON exf_atemp_mean               =   2.6391354832479E+02
(PID.TID 0000.0001) %MON exf_atemp_sd                 =   1.1993651040982E+01
(PID.TID 0000.0001) %MON exf_atemp_del2               =   6.4955841421018E-01
(PID.TID 0000.0001) %MON exf_aqh_max                  =   6.3182971576392E-03
(PID.TID 0000.0001) %MON exf_aqh_min                  =   1.6303402368524E-04
(PID.TID 0000.0001) %MON exf_aqh_mean                 =   2.4764404153565E-03
(PID.TID 0000.0001) %MON exf_aqh_sd                   =   1.4257865072101E-03
(PID.TID 0000.0001) %MON exf_aqh_del2                 =   6.8046107671613E-05
(PID.TID 0000.0001) %MON exf_lwflux_max               =   1.8159055041552E+02
(PID.TID 0000.0001) %MON exf_lwflux_min               =   2.7054912719689E+01
(PID.TID 0000.0001) %MON exf_lwflux_mean              =   7.5259466640761E+01
(PID.TID 0000.0001) %MON exf_lwflux_sd                =   4.2774127195533E+01
(PID.TID 0000.0001) %MON exf_lwflux_del2              =   3.2322843207476E+00
(PID.TID 0000.0001) %MON exf_precip_max               =   1.0499733310606E-07
(PID.TID 0000.0001) %MON exf_precip_min               =   2.7265750163496E-10
(PID.TID 0000.0001) %MON exf_precip_mean              =   3.6390004634845E-08
(PID.TID 0000.0001) %MON exf_precip_sd                =   2.0581314966068E-08
(PID.TID 0000.0001) %MON exf_precip_del2              =   2.5588488380710E-09
(PID.TID 0000.0001) %MON exf_snowprecip_max           =   0.0000000000000E+00
(PID.TID 0000.0001) %MON exf_snowprecip_min           =   0.0000000000000E+00
(PID.TID 0000.0001) %MON exf_snowprecip_mean          =   0.0000000000000E+00
(PID.TID 0000.0001) %MON exf_snowprecip_sd            =   0.0000000000000E+00
(PID.TID 0000.0001) %MON exf_snowprecip_del2          =   0.0000000000000E+00
(PID.TID 0000.0001) %MON exf_swflux_max               =  -8.1207735616653E-02
(PID.TID 0000.0001) %MON exf_swflux_min               =  -6.4105206467675E+01
(PID.TID 0000.0001) %MON exf_swflux_mean              =  -2.6526948534072E+01
(PID.TID 0000.0001) %MON exf_swflux_sd                =   1.9652762825246E+01
(PID.TID 0000.0001) %MON exf_swflux_del2              =   4.7976088317456E-01
(PID.TID 0000.0001) %MON exf_evap_max                 =   4.5344313356325E-08
(PID.TID 0000.0001) %MON exf_evap_min                 =  -4.2074595981962E-09
(PID.TID 0000.0001) %MON exf_evap_mean                =   1.0446336459840E-08
(PID.TID 0000.0001) %MON exf_evap_sd                  =   1.1077266178857E-08
(PID.TID 0000.0001) %MON exf_evap_del2                =   1.3331707286995E-09
(PID.TID 0000.0001) %MON exf_swdown_max               =   7.1228007186306E+01
(PID.TID 0000.0001) %MON exf_swdown_min               =   9.0230817351836E-02
(PID.TID 0000.0001) %MON exf_swdown_mean              =   2.9474387260081E+01
(PID.TID 0000.0001) %MON exf_swdown_sd                =   2.1836403139162E+01
(PID.TID 0000.0001) %MON exf_swdown_del2              =   5.3306764797174E-01
(PID.TID 0000.0001) %MON exf_lwdown_max               =   3.0561793543081E+02
(PID.TID 0000.0001) %MON exf_lwdown_min               =   1.1589194395764E+02
(PID.TID 0000.0001) %MON exf_lwdown_mean              =   2.2583936565568E+02
(PID.TID 0000.0001) %MON exf_lwdown_sd                =   4.6305239399294E+01
(PID.TID 0000.0001) %MON exf_lwdown_del2              =   3.2439027772011E+00
(PID.TID 0000.0001) %MON exf_apressure_max            =   0.0000000000000E+00
(PID.TID 0000.0001) %MON exf_apressure_min            =   0.0000000000000E+00
(PID.TID 0000.0001) %MON exf_apressure_mean           =   0.0000000000000E+00
(PID.TID 0000.0001) %MON exf_apressure_sd             =   0.0000000000000E+00
(PID.TID 0000.0001) %MON exf_apressure_del2           =   0.0000000000000E+00
(PID.TID 0000.0001) %MON exf_runoff_max               =   0.0000000000000E+00
(PID.TID 0000.0001) %MON exf_runoff_min               =   0.0000000000000E+00
(PID.TID 0000.0001) %MON exf_runoff_mean              =   0.0000000000000E+00
(PID.TID 0000.0001) %MON exf_runoff_sd                =   0.0000000000000E+00
(PID.TID 0000.0001) %MON exf_runoff_del2              =   0.0000000000000E+00
(PID.TID 0000.0001) %MON exf_climsst_max              =   0.0000000000000E+00
(PID.TID 0000.0001) %MON exf_climsst_min              =   0.0000000000000E+00
(PID.TID 0000.0001) %MON exf_climsst_mean             =   0.0000000000000E+00
(PID.TID 0000.0001) %MON exf_climsst_sd               =   0.0000000000000E+00
(PID.TID 0000.0001) %MON exf_climsst_del2             =   0.0000000000000E+00
(PID.TID 0000.0001) %MON exf_climsss_max              =   3.5041624116116E+01
(PID.TID 0000.0001) %MON exf_climsss_min              =   3.0671628467372E+01
(PID.TID 0000.0001) %MON exf_climsss_mean             =   3.3462968935345E+01
(PID.TID 0000.0001) %MON exf_climsss_sd               =   1.0314580197633E+00
(PID.TID 0000.0001) %MON exf_climsss_del2             =   1.0007335642865E-01
(PID.TID 0000.0001) // =======================================================
(PID.TID 0000.0001) // End MONITOR EXF statistics
(PID.TID 0000.0001) // =======================================================
 ph-ice B  7  0.  0.  0.
 ph-ice C  7  4.07568582E+11
 cg2d: Sum(rhs),rhsMax =   3.08545426118412E-08  1.18167591330511E+00
(PID.TID 0000.0001) // =======================================================
(PID.TID 0000.0001) // Begin MONITOR SEAICE statistics
(PID.TID 0000.0001) // =======================================================
(PID.TID 0000.0001) %MON seaice_tsnumber              =                     8
(PID.TID 0000.0001) %MON seaice_time_sec              =   2.8800000000000E+04
(PID.TID 0000.0001) %MON seaice_uice_max              =   2.6754116085428E-01
(PID.TID 0000.0001) %MON seaice_uice_min              =  -8.8502450662278E-02
(PID.TID 0000.0001) %MON seaice_uice_mean             =   6.9615764402883E-02
(PID.TID 0000.0001) %MON seaice_uice_sd               =   8.3093858076744E-02
(PID.TID 0000.0001) %MON seaice_uice_del2             =   8.8606937788815E-03
(PID.TID 0000.0001) %MON seaice_vice_max              =   8.6568020775778E-02
(PID.TID 0000.0001) %MON seaice_vice_min              =  -2.2434575850352E-01
(PID.TID 0000.0001) %MON seaice_vice_mean             =  -6.1223532319321E-02
(PID.TID 0000.0001) %MON seaice_vice_sd               =   7.0132528911138E-02
(PID.TID 0000.0001) %MON seaice_vice_del2             =   8.0006134768218E-03
(PID.TID 0000.0001) %MON seaice_area_max              =   1.0000000000000E+00
(PID.TID 0000.0001) %MON seaice_area_min              =   0.0000000000000E+00
(PID.TID 0000.0001) %MON seaice_area_mean             =   6.2402844799975E-01
(PID.TID 0000.0001) %MON seaice_area_sd               =   4.5740416242159E-01
(PID.TID 0000.0001) %MON seaice_area_del2             =   5.3616917318647E-02
(PID.TID 0000.0001) %MON seaice_heff_max              =   5.4845941034750E-01
(PID.TID 0000.0001) %MON seaice_heff_min              =   0.0000000000000E+00
(PID.TID 0000.0001) %MON seaice_heff_mean             =   1.4210911479214E-01
(PID.TID 0000.0001) %MON seaice_heff_sd               =   1.7454238736262E-01
(PID.TID 0000.0001) %MON seaice_heff_del2             =   1.3200074501903E-02
(PID.TID 0000.0001) %MON seaice_hsnow_max             =   2.0628031960974E-01
(PID.TID 0000.0001) %MON seaice_hsnow_min             =   0.0000000000000E+00
(PID.TID 0000.0001) %MON seaice_hsnow_mean            =   1.1873224113035E-01
(PID.TID 0000.0001) %MON seaice_hsnow_sd              =   9.7409172566671E-02
(PID.TID 0000.0001) %MON seaice_hsnow_del2            =   6.5932180692693E-03
(PID.TID 0000.0001) // =======================================================
(PID.TID 0000.0001) // End MONITOR SEAICE statistics
(PID.TID 0000.0001) // =======================================================
(PID.TID 0000.0001) // =======================================================
(PID.TID 0000.0001) // Begin MONITOR EXF statistics
(PID.TID 0000.0001) // =======================================================
(PID.TID 0000.0001) %MON exf_tsnumber                 =                     8
(PID.TID 0000.0001) %MON exf_time_sec                 =   2.8800000000000E+04
(PID.TID 0000.0001) %MON exf_ustress_max              =   5.2249214879432E-02
(PID.TID 0000.0001) %MON exf_ustress_min              =  -9.3798929022906E-02
(PID.TID 0000.0001) %MON exf_ustress_mean             =   1.7966528740054E-02
(PID.TID 0000.0001) %MON exf_ustress_sd               =   2.3731957504924E-02
(PID.TID 0000.0001) %MON exf_ustress_del2             =   2.8199340934302E-03
(PID.TID 0000.0001) %MON exf_vstress_max              =   5.3835262836835E-02
(PID.TID 0000.0001) %MON exf_vstress_min              =  -5.8423863255638E-02
(PID.TID 0000.0001) %MON exf_vstress_mean             =  -5.4366057983992E-03
(PID.TID 0000.0001) %MON exf_vstress_sd               =   1.4450710207937E-02
(PID.TID 0000.0001) %MON exf_vstress_del2             =   1.6932441340118E-03
(PID.TID 0000.0001) %MON exf_hflux_max                =   6.2516667571621E+02
(PID.TID 0000.0001) %MON exf_hflux_min                =  -5.1290005239712E+01
(PID.TID 0000.0001) %MON exf_hflux_mean               =   1.4644480858851E+02
(PID.TID 0000.0001) %MON exf_hflux_sd                 =   1.8007071396329E+02
(PID.TID 0000.0001) %MON exf_hflux_del2               =   1.6310906320179E+01
(PID.TID 0000.0001) %MON exf_sflux_max                =   3.9024984842062E-08
(PID.TID 0000.0001) %MON exf_sflux_min                =  -8.8852274142835E-08
(PID.TID 0000.0001) %MON exf_sflux_mean               =  -2.5937389133885E-08
(PID.TID 0000.0001) %MON exf_sflux_sd                 =   3.0352647481812E-08
(PID.TID 0000.0001) %MON exf_sflux_del2               =   3.1646002613586E-09
(PID.TID 0000.0001) %MON exf_uwind_max                =   6.4684341618272E+00
(PID.TID 0000.0001) %MON exf_uwind_min                =  -6.8374523269674E+00
(PID.TID 0000.0001) %MON exf_uwind_mean               =   2.7706331523584E+00
(PID.TID 0000.0001) %MON exf_uwind_sd                 =   2.9922491036980E+00
(PID.TID 0000.0001) %MON exf_uwind_del2               =   3.1577589455021E-01
(PID.TID 0000.0001) %MON exf_vwind_max                =   3.9243096588739E+00
(PID.TID 0000.0001) %MON exf_vwind_min                =  -6.0124561096150E+00
(PID.TID 0000.0001) %MON exf_vwind_mean               =  -7.5595649652871E-01
(PID.TID 0000.0001) %MON exf_vwind_sd                 =   1.7302112611019E+00
(PID.TID 0000.0001) %MON exf_vwind_del2               =   1.9327792057372E-01
(PID.TID 0000.0001) %MON exf_wspeed_max               =   7.8835880550853E+00
(PID.TID 0000.0001) %MON exf_wspeed_min               =   4.5840953253040E-01
(PID.TID 0000.0001) %MON exf_wspeed_mean              =   4.1989448725728E+00
(PID.TID 0000.0001) %MON exf_wspeed_sd                =   1.6012263903992E+00
(PID.TID 0000.0001) %MON exf_wspeed_del2              =   3.7736312737620E-01
(PID.TID 0000.0001) %MON exf_atemp_max                =   2.8186911527707E+02
(PID.TID 0000.0001) %MON exf_atemp_min                =   2.3642604936277E+02
(PID.TID 0000.0001) %MON exf_atemp_mean               =   2.6390890424337E+02
(PID.TID 0000.0001) %MON exf_atemp_sd                 =   1.1995114986569E+01
(PID.TID 0000.0001) %MON exf_atemp_del2               =   6.4957774576263E-01
(PID.TID 0000.0001) %MON exf_aqh_max                  =   6.3176006167781E-03
(PID.TID 0000.0001) %MON exf_aqh_min                  =   1.6293992018683E-04
(PID.TID 0000.0001) %MON exf_aqh_mean                 =   2.4758800589519E-03
(PID.TID 0000.0001) %MON exf_aqh_sd                   =   1.4256836550895E-03
(PID.TID 0000.0001) %MON exf_aqh_del2                 =   6.8032440110466E-05
(PID.TID 0000.0001) %MON exf_lwflux_max               =   1.8160657786433E+02
(PID.TID 0000.0001) %MON exf_lwflux_min               =   2.7042773781140E+01
(PID.TID 0000.0001) %MON exf_lwflux_mean              =   7.5278560788005E+01
(PID.TID 0000.0001) %MON exf_lwflux_sd                =   4.2775417338934E+01
(PID.TID 0000.0001) %MON exf_lwflux_del2              =   3.2322462451000E+00
(PID.TID 0000.0001) %MON exf_precip_max               =   1.0499871454869E-07
(PID.TID 0000.0001) %MON exf_precip_min               =   2.7252357516229E-10
(PID.TID 0000.0001) %MON exf_precip_mean              =   3.6389993790810E-08
(PID.TID 0000.0001) %MON exf_precip_sd                =   2.0581769987393E-08
(PID.TID 0000.0001) %MON exf_precip_del2              =   2.5593765312607E-09
(PID.TID 0000.0001) %MON exf_snowprecip_max           =   0.0000000000000E+00
(PID.TID 0000.0001) %MON exf_snowprecip_min           =   0.0000000000000E+00
(PID.TID 0000.0001) %MON exf_snowprecip_mean          =   0.0000000000000E+00
(PID.TID 0000.0001) %MON exf_snowprecip_sd            =   0.0000000000000E+00
(PID.TID 0000.0001) %MON exf_snowprecip_del2          =   0.0000000000000E+00
(PID.TID 0000.0001) %MON exf_swflux_max               =  -8.1208018494434E-02
(PID.TID 0000.0001) %MON exf_swflux_min               =  -6.4124076818247E+01
(PID.TID 0000.0001) %MON exf_swflux_mean              =  -2.6537480749947E+01
(PID.TID 0000.0001) %MON exf_swflux_sd                =   1.9656602581253E+01
(PID.TID 0000.0001) %MON exf_swflux_del2              =   4.7986775712052E-01
(PID.TID 0000.0001) %MON exf_evap_max                 =   4.5343890978711E-08
(PID.TID 0000.0001) %MON exf_evap_min                 =  -4.2045649052615E-09
(PID.TID 0000.0001) %MON exf_evap_mean                =   1.0452604656925E-08
(PID.TID 0000.0001) %MON exf_evap_sd                  =   1.1076424106151E-08
(PID.TID 0000.0001) %MON exf_evap_del2                =   1.3335937380009E-09
(PID.TID 0000.0001) %MON exf_swdown_max               =   7.1248974242497E+01
(PID.TID 0000.0001) %MON exf_swdown_min               =   9.0231131660482E-02
(PID.TID 0000.0001) %MON exf_swdown_mean              =   2.9486089722164E+01
(PID.TID 0000.0001) %MON exf_swdown_sd                =   2.1840669534725E+01
(PID.TID 0000.0001) %MON exf_swdown_del2              =   5.3318639680058E-01
(PID.TID 0000.0001) %MON exf_lwdown_max               =   3.0560910934698E+02
(PID.TID 0000.0001) %MON exf_lwdown_min               =   1.1587683707899E+02
(PID.TID 0000.0001) %MON exf_lwdown_mean              =   2.2582365832661E+02
(PID.TID 0000.0001) %MON exf_lwdown_sd                =   4.6309216947189E+01
(PID.TID 0000.0001) %MON exf_lwdown_del2              =   3.2439144172738E+00
(PID.TID 0000.0001) %MON exf_apressure_max            =   0.0000000000000E+00
(PID.TID 0000.0001) %MON exf_apressure_min            =   0.0000000000000E+00
(PID.TID 0000.0001) %MON exf_apressure_mean           =   0.0000000000000E+00
(PID.TID 0000.0001) %MON exf_apressure_sd             =   0.0000000000000E+00
(PID.TID 0000.0001) %MON exf_apressure_del2           =   0.0000000000000E+00
(PID.TID 0000.0001) %MON exf_runoff_max               =   0.0000000000000E+00
(PID.TID 0000.0001) %MON exf_runoff_min               =   0.0000000000000E+00
(PID.TID 0000.0001) %MON exf_runoff_mean              =   0.0000000000000E+00
(PID.TID 0000.0001) %MON exf_runoff_sd                =   0.0000000000000E+00
(PID.TID 0000.0001) %MON exf_runoff_del2              =   0.0000000000000E+00
(PID.TID 0000.0001) %MON exf_climsst_max              =   0.0000000000000E+00
(PID.TID 0000.0001) %MON exf_climsst_min              =   0.0000000000000E+00
(PID.TID 0000.0001) %MON exf_climsst_mean             =   0.0000000000000E+00
(PID.TID 0000.0001) %MON exf_climsst_sd               =   0.0000000000000E+00
(PID.TID 0000.0001) %MON exf_climsst_del2             =   0.0000000000000E+00
(PID.TID 0000.0001) %MON exf_climsss_max              =   3.5041808863155E+01
(PID.TID 0000.0001) %MON exf_climsss_min              =   3.0672387795370E+01
(PID.TID 0000.0001) %MON exf_climsss_mean             =   3.3463490268825E+01
(PID.TID 0000.0001) %MON exf_climsss_sd               =   1.0313879583737E+00
(PID.TID 0000.0001) %MON exf_climsss_del2             =   1.0005612713826E-01
(PID.TID 0000.0001) // =======================================================
(PID.TID 0000.0001) // End MONITOR EXF statistics
(PID.TID 0000.0001) // =======================================================
 ph-ice B  8  0.  0.  0.
 ph-ice C  8  4.58145237E+11
 cg2d: Sum(rhs),rhsMax =   2.95457906300534E-08  1.16732732438718E+00
(PID.TID 0000.0001) // =======================================================
(PID.TID 0000.0001) // Begin MONITOR SEAICE statistics
(PID.TID 0000.0001) // =======================================================
(PID.TID 0000.0001) %MON seaice_tsnumber              =                     9
(PID.TID 0000.0001) %MON seaice_time_sec              =   3.2400000000000E+04
(PID.TID 0000.0001) %MON seaice_uice_max              =   2.6897669000514E-01
(PID.TID 0000.0001) %MON seaice_uice_min              =  -8.0042763881599E-02
(PID.TID 0000.0001) %MON seaice_uice_mean             =   6.2855199107236E-02
(PID.TID 0000.0001) %MON seaice_uice_sd               =   7.9025301443203E-02
(PID.TID 0000.0001) %MON seaice_uice_del2             =   7.8428337574324E-03
(PID.TID 0000.0001) %MON seaice_vice_max              =   7.8808436825846E-02
(PID.TID 0000.0001) %MON seaice_vice_min              =  -2.0876036202746E-01
(PID.TID 0000.0001) %MON seaice_vice_mean             =  -5.8595767915380E-02
(PID.TID 0000.0001) %MON seaice_vice_sd               =   6.4348983523514E-02
(PID.TID 0000.0001) %MON seaice_vice_del2             =   7.5772022669736E-03
(PID.TID 0000.0001) %MON seaice_area_max              =   1.0000000000000E+00
(PID.TID 0000.0001) %MON seaice_area_min              =   0.0000000000000E+00
(PID.TID 0000.0001) %MON seaice_area_mean             =   6.2385273854163E-01
(PID.TID 0000.0001) %MON seaice_area_sd               =   4.5701597065782E-01
(PID.TID 0000.0001) %MON seaice_area_del2             =   5.3473220993186E-02
(PID.TID 0000.0001) %MON seaice_heff_max              =   5.4880172478590E-01
(PID.TID 0000.0001) %MON seaice_heff_min              =   0.0000000000000E+00
(PID.TID 0000.0001) %MON seaice_heff_mean             =   1.4197238188579E-01
(PID.TID 0000.0001) %MON seaice_heff_sd               =   1.7470054248308E-01
(PID.TID 0000.0001) %MON seaice_heff_del2             =   1.3179485314317E-02
(PID.TID 0000.0001) %MON seaice_hsnow_max             =   2.0706544703537E-01
(PID.TID 0000.0001) %MON seaice_hsnow_min             =   0.0000000000000E+00
(PID.TID 0000.0001) %MON seaice_hsnow_mean            =   1.1888097080076E-01
(PID.TID 0000.0001) %MON seaice_hsnow_sd              =   9.7521343278630E-02
(PID.TID 0000.0001) %MON seaice_hsnow_del2            =   6.6252286414737E-03
(PID.TID 0000.0001) // =======================================================
(PID.TID 0000.0001) // End MONITOR SEAICE statistics
(PID.TID 0000.0001) // =======================================================
(PID.TID 0000.0001) // =======================================================
(PID.TID 0000.0001) // Begin MONITOR EXF statistics
(PID.TID 0000.0001) // =======================================================
(PID.TID 0000.0001) %MON exf_tsnumber                 =                     9
(PID.TID 0000.0001) %MON exf_time_sec                 =   3.2400000000000E+04
(PID.TID 0000.0001) %MON exf_ustress_max              =   5.2253931426276E-02
(PID.TID 0000.0001) %MON exf_ustress_min              =  -9.3801402378656E-02
(PID.TID 0000.0001) %MON exf_ustress_mean             =   1.7972509314940E-02
(PID.TID 0000.0001) %MON exf_ustress_sd               =   2.3737460952836E-02
(PID.TID 0000.0001) %MON exf_ustress_del2             =   2.8207104197801E-03
(PID.TID 0000.0001) %MON exf_vstress_max              =   5.3836885571567E-02
(PID.TID 0000.0001) %MON exf_vstress_min              =  -5.8402245568630E-02
(PID.TID 0000.0001) %MON exf_vstress_mean             =  -5.4330596908294E-03
(PID.TID 0000.0001) %MON exf_vstress_sd               =   1.4451996191459E-02
(PID.TID 0000.0001) %MON exf_vstress_del2             =   1.6932500374758E-03
(PID.TID 0000.0001) %MON exf_hflux_max                =   6.2523607820834E+02
(PID.TID 0000.0001) %MON exf_hflux_min                =  -5.1341825203165E+01
(PID.TID 0000.0001) %MON exf_hflux_mean               =   1.4650257484937E+02
(PID.TID 0000.0001) %MON exf_hflux_sd                 =   1.8009644173228E+02
(PID.TID 0000.0001) %MON exf_hflux_del2               =   1.6313483118034E+01
(PID.TID 0000.0001) %MON exf_sflux_max                =   3.9027165063441E-08
(PID.TID 0000.0001) %MON exf_sflux_min                =  -8.8881916006107E-08
(PID.TID 0000.0001) %MON exf_sflux_mean               =  -2.5931981804969E-08
(PID.TID 0000.0001) %MON exf_sflux_sd                 =   3.0353383540010E-08
(PID.TID 0000.0001) %MON exf_sflux_del2               =   3.1652684304218E-09
(PID.TID 0000.0001) %MON exf_uwind_max                =   6.4689416142761E+00
(PID.TID 0000.0001) %MON exf_uwind_min                =  -6.8374791086697E+00
(PID.TID 0000.0001) %MON exf_uwind_mean               =   2.7707407047028E+00
(PID.TID 0000.0001) %MON exf_uwind_sd                 =   2.9925253914175E+00
(PID.TID 0000.0001) %MON exf_uwind_del2               =   3.1578823099586E-01
(PID.TID 0000.0001) %MON exf_vwind_max                =   3.9243398396695E+00
(PID.TID 0000.0001) %MON exf_vwind_min                =  -6.0115501997901E+00
(PID.TID 0000.0001) %MON exf_vwind_mean               =  -7.5533872343860E-01
(PID.TID 0000.0001) %MON exf_vwind_sd                 =   1.7303202080462E+00
(PID.TID 0000.0001) %MON exf_vwind_del2               =   1.9327127420947E-01
(PID.TID 0000.0001) %MON exf_wspeed_max               =   7.8836263063842E+00
(PID.TID 0000.0001) %MON exf_wspeed_min               =   4.5816671047235E-01
(PID.TID 0000.0001) %MON exf_wspeed_mean              =   4.1990483480424E+00
(PID.TID 0000.0001) %MON exf_wspeed_sd                =   1.6014836406520E+00
(PID.TID 0000.0001) %MON exf_wspeed_del2              =   3.7741640417905E-01
(PID.TID 0000.0001) %MON exf_atemp_max                =   2.8186740312420E+02
(PID.TID 0000.0001) %MON exf_atemp_min                =   2.3642158439511E+02
(PID.TID 0000.0001) %MON exf_atemp_mean               =   2.6390426016196E+02
(PID.TID 0000.0001) %MON exf_atemp_sd                 =   1.1996579418720E+01
(PID.TID 0000.0001) %MON exf_atemp_del2               =   6.4959707731507E-01
(PID.TID 0000.0001) %MON exf_aqh_max                  =   6.3169040759170E-03
(PID.TID 0000.0001) %MON exf_aqh_min                  =   1.6284581668843E-04
(PID.TID 0000.0001) %MON exf_aqh_mean                 =   2.4753197025473E-03
(PID.TID 0000.0001) %MON exf_aqh_sd                   =   1.4255808388841E-03
(PID.TID 0000.0001) %MON exf_aqh_del2                 =   6.8018772549319E-05
(PID.TID 0000.0001) %MON exf_lwflux_max               =   1.8162256096877E+02
(PID.TID 0000.0001) %MON exf_lwflux_min               =   2.7024547893407E+01
(PID.TID 0000.0001) %MON exf_lwflux_mean              =   7.5295901618401E+01
(PID.TID 0000.0001) %MON exf_lwflux_sd                =   4.2777923782583E+01
(PID.TID 0000.0001) %MON exf_lwflux_del2              =   3.2320811471049E+00
(PID.TID 0000.0001) %MON exf_precip_max               =   1.0500009599131E-07
(PID.TID 0000.0001) %MON exf_precip_min               =   2.7238964868961E-10
(PID.TID 0000.0001) %MON exf_precip_mean              =   3.6389982946776E-08
(PID.TID 0000.0001) %MON exf_precip_sd                =   2.0582225664103E-08
(PID.TID 0000.0001) %MON exf_precip_del2              =   2.5599042244504E-09
(PID.TID 0000.0001) %MON exf_snowprecip_max           =   0.0000000000000E+00
(PID.TID 0000.0001) %MON exf_snowprecip_min           =   0.0000000000000E+00
(PID.TID 0000.0001) %MON exf_snowprecip_mean          =   0.0000000000000E+00
(PID.TID 0000.0001) %MON exf_snowprecip_sd            =   0.0000000000000E+00
(PID.TID 0000.0001) %MON exf_snowprecip_del2          =   0.0000000000000E+00
(PID.TID 0000.0001) %MON exf_swflux_max               =  -8.1208301372215E-02
(PID.TID 0000.0001) %MON exf_swflux_min               =  -6.4142947168819E+01
(PID.TID 0000.0001) %MON exf_swflux_mean              =  -2.6548012965822E+01
(PID.TID 0000.0001) %MON exf_swflux_sd                =   1.9660442927159E+01
(PID.TID 0000.0001) %MON exf_swflux_del2              =   4.7997463106648E-01
(PID.TID 0000.0001) %MON exf_evap_max                 =   4.5345408489160E-08
(PID.TID 0000.0001) %MON exf_evap_min                 =  -4.2118523671921E-09
(PID.TID 0000.0001) %MON exf_evap_mean                =   1.0458001141807E-08
(PID.TID 0000.0001) %MON exf_evap_sd                  =   1.1076056770777E-08
(PID.TID 0000.0001) %MON exf_evap_del2                =   1.3338796492452E-09
(PID.TID 0000.0001) %MON exf_swdown_max               =   7.1269941298688E+01
(PID.TID 0000.0001) %MON exf_swdown_min               =   9.0231445969128E-02
(PID.TID 0000.0001) %MON exf_swdown_mean              =   2.9497792184247E+01
(PID.TID 0000.0001) %MON exf_swdown_sd                =   2.1844936585733E+01
(PID.TID 0000.0001) %MON exf_swdown_del2              =   5.3330514562942E-01
(PID.TID 0000.0001) %MON exf_lwdown_max               =   3.0560028326316E+02
(PID.TID 0000.0001) %MON exf_lwdown_min               =   1.1586173020035E+02
(PID.TID 0000.0001) %MON exf_lwdown_mean              =   2.2580795099755E+02
(PID.TID 0000.0001) %MON exf_lwdown_sd                =   4.6313195660870E+01
(PID.TID 0000.0001) %MON exf_lwdown_del2              =   3.2439260573465E+00
(PID.TID 0000.0001) %MON exf_apressure_max            =   0.0000000000000E+00
(PID.TID 0000.0001) %MON exf_apressure_min            =   0.0000000000000E+00
(PID.TID 0000.0001) %MON exf_apressure_mean           =   0.0000000000000E+00
(PID.TID 0000.0001) %MON exf_apressure_sd             =   0.0000000000000E+00
(PID.TID 0000.0001) %MON exf_apressure_del2           =   0.0000000000000E+00
(PID.TID 0000.0001) %MON exf_runoff_max               =   0.0000000000000E+00
(PID.TID 0000.0001) %MON exf_runoff_min               =   0.0000000000000E+00
(PID.TID 0000.0001) %MON exf_runoff_mean              =   0.0000000000000E+00
(PID.TID 0000.0001) %MON exf_runoff_sd                =   0.0000000000000E+00
(PID.TID 0000.0001) %MON exf_runoff_del2              =   0.0000000000000E+00
(PID.TID 0000.0001) %MON exf_climsst_max              =   0.0000000000000E+00
(PID.TID 0000.0001) %MON exf_climsst_min              =   0.0000000000000E+00
(PID.TID 0000.0001) %MON exf_climsst_mean             =   0.0000000000000E+00
(PID.TID 0000.0001) %MON exf_climsst_sd               =   0.0000000000000E+00
(PID.TID 0000.0001) %MON exf_climsst_del2             =   0.0000000000000E+00
(PID.TID 0000.0001) %MON exf_climsss_max              =   3.5041993610194E+01
(PID.TID 0000.0001) %MON exf_climsss_min              =   3.0673147123368E+01
(PID.TID 0000.0001) %MON exf_climsss_mean             =   3.3464011602304E+01
(PID.TID 0000.0001) %MON exf_climsss_sd               =   1.0313181272348E+00
(PID.TID 0000.0001) %MON exf_climsss_del2             =   1.0003889784787E-01
(PID.TID 0000.0001) // =======================================================
(PID.TID 0000.0001) // End MONITOR EXF statistics
(PID.TID 0000.0001) // =======================================================
 ph-ice B  9  0.  0.  0.
 ph-ice C  9  5.08667933E+11
 cg2d: Sum(rhs),rhsMax =   2.90788994515567E-08  1.15038865833447E+00
(PID.TID 0000.0001) // =======================================================
(PID.TID 0000.0001) // Begin MONITOR SEAICE statistics
(PID.TID 0000.0001) // =======================================================
(PID.TID 0000.0001) %MON seaice_tsnumber              =                    10
(PID.TID 0000.0001) %MON seaice_time_sec              =   3.6000000000000E+04
(PID.TID 0000.0001) %MON seaice_uice_max              =   2.6071439952078E-01
(PID.TID 0000.0001) %MON seaice_uice_min              =  -7.4569485544523E-02
(PID.TID 0000.0001) %MON seaice_uice_mean             =   5.6948728647844E-02
(PID.TID 0000.0001) %MON seaice_uice_sd               =   7.3695642408258E-02
(PID.TID 0000.0001) %MON seaice_uice_del2             =   6.9822441446674E-03
(PID.TID 0000.0001) %MON seaice_vice_max              =   7.2855153909126E-02
(PID.TID 0000.0001) %MON seaice_vice_min              =  -1.8167527171325E-01
(PID.TID 0000.0001) %MON seaice_vice_mean             =  -5.2953221363146E-02
(PID.TID 0000.0001) %MON seaice_vice_sd               =   5.6405800133429E-02
(PID.TID 0000.0001) %MON seaice_vice_del2             =   6.8591615656953E-03
(PID.TID 0000.0001) %MON seaice_area_max              =   1.0000000000000E+00
(PID.TID 0000.0001) %MON seaice_area_min              =   0.0000000000000E+00
(PID.TID 0000.0001) %MON seaice_area_mean             =   6.2310747726730E-01
(PID.TID 0000.0001) %MON seaice_area_sd               =   4.5675709806522E-01
(PID.TID 0000.0001) %MON seaice_area_del2             =   5.3102410883221E-02
(PID.TID 0000.0001) %MON seaice_heff_max              =   5.4914440243822E-01
(PID.TID 0000.0001) %MON seaice_heff_min              =   0.0000000000000E+00
(PID.TID 0000.0001) %MON seaice_heff_mean             =   1.4182091541832E-01
(PID.TID 0000.0001) %MON seaice_heff_sd               =   1.7482788642617E-01
(PID.TID 0000.0001) %MON seaice_heff_del2             =   1.3169917476473E-02
(PID.TID 0000.0001) %MON seaice_hsnow_max             =   2.0785054838239E-01
(PID.TID 0000.0001) %MON seaice_hsnow_min             =   0.0000000000000E+00
(PID.TID 0000.0001) %MON seaice_hsnow_mean            =   1.1901259286608E-01
(PID.TID 0000.0001) %MON seaice_hsnow_sd              =   9.7627028706831E-02
(PID.TID 0000.0001) %MON seaice_hsnow_del2            =   6.6467676938861E-03
(PID.TID 0000.0001) // =======================================================
(PID.TID 0000.0001) // End MONITOR SEAICE statistics
(PID.TID 0000.0001) // =======================================================
(PID.TID 0000.0001)  MDS_READ_FIELD: opening file: xx_atemp.0000000000.001.001.data
(PID.TID 0000.0001)  MDS_READ_FIELD: opening file: xx_atemp.0000000000.001.001.data
(PID.TID 0000.0001)  MDS_READ_FIELD: opening file: xx_atemp.0000000000.001.001.data
(PID.TID 0000.0001)  MDS_READ_FIELD: opening file: xx_atemp.0000000000.001.001.data
(PID.TID 0000.0001)  MDS_READ_FIELD: opening file: xx_aqh.0000000000.001.001.data
(PID.TID 0000.0001)  MDS_READ_FIELD: opening file: xx_aqh.0000000000.001.001.data
(PID.TID 0000.0001)  MDS_READ_FIELD: opening file: xx_aqh.0000000000.001.001.data
(PID.TID 0000.0001)  MDS_READ_FIELD: opening file: xx_aqh.0000000000.001.001.data
(PID.TID 0000.0001)  MDS_READ_FIELD: opening file: xx_uwind.0000000000.001.001.data
(PID.TID 0000.0001)  MDS_READ_FIELD: opening file: xx_uwind.0000000000.001.001.data
(PID.TID 0000.0001)  MDS_READ_FIELD: opening file: xx_uwind.0000000000.001.001.data
(PID.TID 0000.0001)  MDS_READ_FIELD: opening file: xx_uwind.0000000000.001.001.data
(PID.TID 0000.0001)  MDS_READ_FIELD: opening file: xx_vwind.0000000000.001.001.data
(PID.TID 0000.0001)  MDS_READ_FIELD: opening file: xx_vwind.0000000000.001.001.data
(PID.TID 0000.0001)  MDS_READ_FIELD: opening file: xx_vwind.0000000000.001.001.data
(PID.TID 0000.0001)  MDS_READ_FIELD: opening file: xx_vwind.0000000000.001.001.data
(PID.TID 0000.0001)  MDS_READ_FIELD: opening file: xx_precip.0000000000.001.001.data
(PID.TID 0000.0001)  MDS_READ_FIELD: opening file: xx_precip.0000000000.001.001.data
(PID.TID 0000.0001)  MDS_READ_FIELD: opening file: xx_precip.0000000000.001.001.data
(PID.TID 0000.0001)  MDS_READ_FIELD: opening file: xx_precip.0000000000.001.001.data
(PID.TID 0000.0001)  MDS_READ_FIELD: opening file: xx_swdown.0000000000.001.001.data
(PID.TID 0000.0001)  MDS_READ_FIELD: opening file: xx_swdown.0000000000.001.001.data
(PID.TID 0000.0001)  MDS_READ_FIELD: opening file: xx_swdown.0000000000.001.001.data
(PID.TID 0000.0001)  MDS_READ_FIELD: opening file: xx_swdown.0000000000.001.001.data
(PID.TID 0000.0001)  MDS_READ_FIELD: opening file: xx_lwdown.0000000000.001.001.data
(PID.TID 0000.0001)  MDS_READ_FIELD: opening file: xx_lwdown.0000000000.001.001.data
(PID.TID 0000.0001)  MDS_READ_FIELD: opening file: xx_lwdown.0000000000.001.001.data
(PID.TID 0000.0001)  MDS_READ_FIELD: opening file: xx_lwdown.0000000000.001.001.data
(PID.TID 0000.0001)  MDS_READ_FIELD: opening file: xx_snowprecip.0000000000.001.001.data
(PID.TID 0000.0001)  MDS_READ_FIELD: opening file: xx_snowprecip.0000000000.001.001.data
(PID.TID 0000.0001)  MDS_READ_FIELD: opening file: xx_snowprecip.0000000000.001.001.data
(PID.TID 0000.0001)  MDS_READ_FIELD: opening file: xx_snowprecip.0000000000.001.001.data
(PID.TID 0000.0001)  MDS_READ_FIELD: opening file: xx_apressure.0000000000.001.001.data
(PID.TID 0000.0001)  MDS_READ_FIELD: opening file: xx_apressure.0000000000.001.001.data
(PID.TID 0000.0001)  MDS_READ_FIELD: opening file: xx_apressure.0000000000.001.001.data
(PID.TID 0000.0001)  MDS_READ_FIELD: opening file: xx_apressure.0000000000.001.001.data
(PID.TID 0000.0001)  MDS_READ_FIELD: opening file: psbar.0000000000.001.001.data
(PID.TID 0000.0001)  cost_ssh: offset_sum =  0.710000000000000E+02
(PID.TID 0000.0001)  MDS_READ_FIELD: opening file: psbar.0000000000.001.001.data
(PID.TID 0000.0001) ph-cost call cost_sst
(PID.TID 0000.0001)  MDS_READ_FIELD: opening file: tbar.0000000000.001.001.data
(PID.TID 0000.0001) ph-cost call cost_theta
(PID.TID 0000.0001)  MDS_READ_FIELD: opening file: tbar.0000000000.001.001.data
(PID.TID 0000.0001) ph-cost call cost_salt
(PID.TID 0000.0001)  MDS_READ_FIELD: opening file: sbar.0000000000.001.001.data
(PID.TID 0000.0001) ph-cost call cost_smrarea
(PID.TID 0000.0001) ph-cost smrarea   0.0000000000E+00  0.0000000000E+00
 --> f_ice     = 0.508667933487798E+12
 --> f_smrarea = 0.000000000000000E+00
 --> f_temp    = 0.000000000000000E+00
 --> f_salt    = 0.000000000000000E+00
 --> f_temp0   = 0.000000000000000E+00
 --> f_salt0   = 0.000000000000000E+00
 --> f_temp0smoo = 0.000000000000000E+00
 --> f_salt0smoo = 0.000000000000000E+00
 --> f_sst     = 0.423905573734216E+04
 --> f_tmi     = 0.000000000000000E+00
 --> f_sss     = 0.000000000000000E+00
 --> f_ssh       = 0.000000000000000E+00
 --> f_tp        = 0.000000000000000E+00
 --> f_ers       = 0.000000000000000E+00
 --> f_gfo       = 0.000000000000000E+00
 --> f_tauu    = 0.000000000000000E+00
 --> f_tauum   = 0.000000000000000E+00
 --> f_tauusmoo = 0.000000000000000E+00
 --> f_tauv    = 0.000000000000000E+00
 --> f_tauvm   = 0.000000000000000E+00
 --> f_tauvsmoo = 0.000000000000000E+00
 --> f_hflux   = 0.000000000000000E+00
 --> f_hfluxm  = 0.000000000000000E+00
 --> f_hfluxmm = 0.000000000000000E+00
 --> f_hfluxsmoo = 0.000000000000000E+00
 --> f_sflux   = 0.000000000000000E+00
 --> f_sfluxm  = 0.000000000000000E+00
 --> f_sfluxmm = 0.000000000000000E+00
 --> f_sfluxsmoo = 0.000000000000000E+00
 --> f_uwind     = 0.000000000000000E+00
 --> f_vwind     = 0.000000000000000E+00
 --> f_atemp     = 0.200000000000000E-07
 --> f_aqh     = 0.000000000000000E+00
 --> f_precip  = 0.000000000000000E+00
 --> f_swflux  = 0.000000000000000E+00
 --> f_swdown  = 0.000000000000000E+00
 --> f_uwindm     = 0.000000000000000E+00
 --> f_vwindm     = 0.000000000000000E+00
 --> f_atempm     = 0.250000000000000E-08
 --> f_aqhm     = 0.000000000000000E+00
 --> f_precipm  = 0.000000000000000E+00
 --> f_swfluxm  = 0.000000000000000E+00
 --> f_swdownm  = 0.000000000000000E+00
 --> f_uwindsmoo     = 0.000000000000000E+00
 --> f_vwindsmoo     = 0.000000000000000E+00
 --> f_atempsmoo     = 0.000000000000000E+00
 --> f_aqhsmoo     = 0.000000000000000E+00
 --> f_precipsmoo  = 0.000000000000000E+00
 --> f_swfluxsmoo  = 0.000000000000000E+00
 --> f_swdownsmoo  = 0.000000000000000E+00
 --> f_atl     = 0.000000000000000E+00
 --> f_ctdt    = 0.000000000000000E+00
 --> f_ctds    = 0.000000000000000E+00
 --> f_ctdtclim= 0.000000000000000E+00
 --> f_ctdsclim= 0.000000000000000E+00
 --> f_xbt     = 0.000000000000000E+00
 --> f_argot   = 0.000000000000000E+00
 --> f_argos   = 0.000000000000000E+00
 --> f_drifter   = 0.000000000000000E+00
 --> f_tdrift  = 0.000000000000000E+00
 --> f_sdrift  = 0.000000000000000E+00
 --> f_wdrift  = 0.000000000000000E+00
 --> f_scatx   = 0.000000000000000E+00
 --> f_scaty   = 0.000000000000000E+00
 --> f_scatxm  = 0.000000000000000E+00
 --> f_scatym  = 0.000000000000000E+00
 --> f_obcsn   = 0.000000000000000E+00
 --> f_obcss   = 0.000000000000000E+00
 --> f_obcsw   = 0.000000000000000E+00
 --> f_obcse   = 0.000000000000000E+00
 --> f_ageos   = 0.000000000000000E+00
 --> f_curmtr  = 0.000000000000000E+00
 --> f_kapgm   = 0.000000000000000E+00
 --> f_diffkr  = 0.000000000000000E+00
 --> f_eddytau = 0.000000000000000E+00
 --> f_hfluxmm2           = 0.000000000000000E+00
 --> f_sfluxmm2           = 0.000000000000000E+00
 --> objf_hmean           = 0.920256455988932E-02
 --> fc               = 0.508667937726854E+12
(PID.TID 0000.0001)  MDS_READ_FIELD: opening file: xx_atemp.0000000000.001.001.data
 grad-res -------------------------------
 grad-res     0    2   13    1    1    1    1    1   0.508667309413E+12 0.508667592852E+12 0.508667937727E+12
 grad-res     0    2    2    5  150    1    1    1   0.987888237688E+05 -.172437352234E+10 0.174561478250E+05
(PID.TID 0000.0001)       precision_grdchk_result ADM     5.08667309412764E+11     9.87888237687817E+04
 ph-grd  ierr ---------------------------
 ph-grd  ierr =  0, icomp =  5, ichknum =  2
 ph-grd -->hit<--  14 1 1 1
(PID.TID 0000.0001)  MDS_READ_FIELD: opening file: adxx_atemp.0000000000.001.001.data
(PID.TID 0000.0001)  MDS_READ_FIELD: opening file: xx_atemp.0000000000.001.001.data
(PID.TID 0000.0001) 
(PID.TID 0000.0001)  cal_TimeStamp: iter =          0 time =  0.00000000E+00
(PID.TID 0000.0001)                 date =   19790101           0
(PID.TID 0000.0001) 
(PID.TID 0000.0001) // =======================================================
(PID.TID 0000.0001) // Field Model R_low (ini_masks_etc) at iteration          1
(PID.TID 0000.0001) // CMIN =         -4.200000000000000E+03
(PID.TID 0000.0001) // CMAX =         -5.500000000000000E+01
(PID.TID 0000.0001) // CINT =          1.535185185185185E+02
(PID.TID 0000.0001) // SYMBOLS (CMIN->CMAX): -abcdefghijklmnopqrstuvwxyz+
(PID.TID 0000.0001) //                  0.0: .
(PID.TID 0000.0001) // RANGE I (Lo:Hi:Step):(  -2:  23:   1)
(PID.TID 0000.0001) // RANGE J (Lo:Hi:Step):(  19:  -2:  -1)
(PID.TID 0000.0001) // RANGE K (Lo:Hi:Step):(   1:   1:   1)
(PID.TID 0000.0001) // =======================================================
(PID.TID 0000.0001) K =   1
(PID.TID 0000.0001) //                I=7       I=17
(PID.TID 0000.0001) // |--J--|210123456|890123456|890123
(PID.TID 0000.0001) //     19 cc-..........+.zzxmgcc-...
(PID.TID 0000.0001) //     18 jc-.......+zzz..zzsmjc-...
(PID.TID 0000.0001) //     17 wc-........++z+++z+wwc-...
(PID.TID 0000.0001) //     16 ....zyyz................zy
(PID.TID 0000.0001) //     15 ...yxwwuspxyxz.........yxw
(PID.TID 0000.0001) //     14 ....+wwspppsxzz.........+w
(PID.TID 0000.0001) //     13 .......zwsppsyz...........
(PID.TID 0000.0001) //     12 .........+ypswzz+.........
(PID.TID 0000.0001) //     11 ...........+wwy+..........
(PID.TID 0000.0001) //     10 ..........zzzywy+.........
(PID.TID 0000.0001) //      9 ..z.......+zxsmmm+....z...
(PID.TID 0000.0001) //      8 ..s.....zzzxumjjjjuz..s...
(PID.TID 0000.0001) //      7 pmj......z.+zmjggggjpmj...
(PID.TID 0000.0001) //      6 ggg.........zxmjggggggg...
(PID.TID 0000.0001) //      5 ggg..........zzsjgggggg...
(PID.TID 0000.0001) //      4 ccg............zzmgcccg...
(PID.TID 0000.0001) //      3 cc-..........+.zzxmgcc-...
(PID.TID 0000.0001) //      2 jc-.......+zzz..zzsmjc-...
(PID.TID 0000.0001) //      1 wc-........++z+++z+wwc-...
(PID.TID 0000.0001) //      0 ....zyyz................zy
(PID.TID 0000.0001) //     -1 ...yxwwuspxyxz.........yxw
(PID.TID 0000.0001) //     -2 ....+wwspppsxzz.........+w
(PID.TID 0000.0001) // =======================================================
(PID.TID 0000.0001) // END OF FIELD                                          =
(PID.TID 0000.0001) // =======================================================
(PID.TID 0000.0001) 
(PID.TID 0000.0001) // =======================================================
(PID.TID 0000.0001) // Field Model Ro_surf (ini_masks_etc) at iteration          1
(PID.TID 0000.0001) // CMIN =          1.000000000000000E+32
(PID.TID 0000.0001) // CMAX =         -1.000000000000000E+32
(PID.TID 0000.0001) // CINT =          0.000000000000000E+00
(PID.TID 0000.0001) // SYMBOLS (CMIN->CMAX): -abcdefghijklmnopqrstuvwxyz+
(PID.TID 0000.0001) //                  0.0: .
(PID.TID 0000.0001) // RANGE I (Lo:Hi:Step):(  -2:  23:   1)
(PID.TID 0000.0001) // RANGE J (Lo:Hi:Step):(  19:  -2:  -1)
(PID.TID 0000.0001) // RANGE K (Lo:Hi:Step):(   1:   1:   1)
(PID.TID 0000.0001) // =======================================================
(PID.TID 0000.0001) // =======================================================
(PID.TID 0000.0001) // END OF FIELD                                          =
(PID.TID 0000.0001) // =======================================================
(PID.TID 0000.0001) 
(PID.TID 0000.0001) // =======================================================
(PID.TID 0000.0001) // Field hFacC at iteration          1
(PID.TID 0000.0001) // CMIN =          1.000000000000000E+00
(PID.TID 0000.0001) // CMAX =          1.000000000000000E+00
(PID.TID 0000.0001) // CINT =          0.000000000000000E+00
(PID.TID 0000.0001) // SYMBOLS (CMIN->CMAX): -abcdefghijklmnopqrstuvwxyz+
(PID.TID 0000.0001) //                  0.0: .
(PID.TID 0000.0001) // RANGE I (Lo:Hi:Step):(  -2:  23:   1)
(PID.TID 0000.0001) // RANGE J (Lo:Hi:Step):(  19:  -2:  -1)
(PID.TID 0000.0001) // RANGE K (Lo:Hi:Step):(   1:   1:   1)
(PID.TID 0000.0001) // =======================================================
(PID.TID 0000.0001) // =======================================================
(PID.TID 0000.0001) // END OF FIELD                                          =
(PID.TID 0000.0001) // =======================================================
(PID.TID 0000.0001) 
(PID.TID 0000.0001) // =======================================================
(PID.TID 0000.0001) // Field hFacW at iteration          1
(PID.TID 0000.0001) // CMIN =          1.000000000000000E+00
(PID.TID 0000.0001) // CMAX =          1.000000000000000E+00
(PID.TID 0000.0001) // CINT =          0.000000000000000E+00
(PID.TID 0000.0001) // SYMBOLS (CMIN->CMAX): -abcdefghijklmnopqrstuvwxyz+
(PID.TID 0000.0001) //                  0.0: .
(PID.TID 0000.0001) // RANGE I (Lo:Hi:Step):(  -2:  23:   1)
(PID.TID 0000.0001) // RANGE J (Lo:Hi:Step):(  19:  -2:  -1)
(PID.TID 0000.0001) // RANGE K (Lo:Hi:Step):(   1:   1:   1)
(PID.TID 0000.0001) // =======================================================
(PID.TID 0000.0001) // =======================================================
(PID.TID 0000.0001) // END OF FIELD                                          =
(PID.TID 0000.0001) // =======================================================
(PID.TID 0000.0001) 
(PID.TID 0000.0001) // =======================================================
(PID.TID 0000.0001) // Field hFacS at iteration          1
(PID.TID 0000.0001) // CMIN =          1.000000000000000E+00
(PID.TID 0000.0001) // CMAX =          1.000000000000000E+00
(PID.TID 0000.0001) // CINT =          0.000000000000000E+00
(PID.TID 0000.0001) // SYMBOLS (CMIN->CMAX): -abcdefghijklmnopqrstuvwxyz+
(PID.TID 0000.0001) //                  0.0: .
(PID.TID 0000.0001) // RANGE I (Lo:Hi:Step):(  -2:  23:   1)
(PID.TID 0000.0001) // RANGE J (Lo:Hi:Step):(  19:  -2:  -1)
(PID.TID 0000.0001) // RANGE K (Lo:Hi:Step):(   1:   1:   1)
(PID.TID 0000.0001) // =======================================================
(PID.TID 0000.0001) // =======================================================
(PID.TID 0000.0001) // END OF FIELD                                          =
(PID.TID 0000.0001) // =======================================================
(PID.TID 0000.0001) 
(PID.TID 0000.0001) %MON seaicefCori_max              =   1.4210453727344E-04
(PID.TID 0000.0001) %MON seaicefCori_min              =   1.0666243053630E-04
(PID.TID 0000.0001) %MON seaicefCori_mean             =   1.2711058365303E-04
(PID.TID 0000.0001) %MON seaicefCori_sd               =   1.1031533875266E-05
(PID.TID 0000.0001) %MON seaicefCoriG_max             =   1.4151032568025E-04
(PID.TID 0000.0001) %MON seaicefCoriG_min             =   1.0491029349513E-04
(PID.TID 0000.0001) %MON seaicefCoriG_mean            =   1.2591168756569E-04
(PID.TID 0000.0001) %MON seaicefCoriG_sd              =   1.1383815633153E-05
(PID.TID 0000.0001) %MON seaicefCoriCos_max           =   9.9464325599212E-05
(PID.TID 0000.0001) %MON seaicefCoriCos_min           =   3.2807417471054E-05
(PID.TID 0000.0001) %MON seaicefCoriCos_mean          =   6.7585896192312E-05
(PID.TID 0000.0001) %MON seaicefCoriCos_sd            =   2.0576140902612E-05
(PID.TID 0000.0001) INI_CG2D: CG2D normalisation factor =  1.6094939840939192E-04
(PID.TID 0000.0001) 
(PID.TID 0000.0001) // =======================================================
(PID.TID 0000.0001) // Field Initial Temperature at iteration          1
(PID.TID 0000.0001) // CMIN =          9.205863475799561E-01
(PID.TID 0000.0001) // CMAX =          1.333307647705078E+01
(PID.TID 0000.0001) // CINT =          4.597218566470676E-01
(PID.TID 0000.0001) // SYMBOLS (CMIN->CMAX): -abcdefghijklmnopqrstuvwxyz+
(PID.TID 0000.0001) //                  0.0: .
(PID.TID 0000.0001) // RANGE I (Lo:Hi:Step):(   1:  20:   1)
(PID.TID 0000.0001) // RANGE J (Lo:Hi:Step):(  16:   1:  -1)
(PID.TID 0000.0001) // RANGE K (Lo:Hi:Step):(   1:   1:   1)
(PID.TID 0000.0001) // =======================================================
(PID.TID 0000.0001) K =   1
(PID.TID 0000.0001)                I=10      I=20
(PID.TID 0000.0001) |--J--|123456789|123456789|
(PID.TID 0000.0001)     16 .----...............
(PID.TID 0000.0001)     15 aabaaaaaaaa.........
(PID.TID 0000.0001)     14 .ccccccbbbbc........
(PID.TID 0000.0001)     13 ....dddddddd........
(PID.TID 0000.0001)     12 ......dcdddddd......
(PID.TID 0000.0001)     11 ........cccdd.......
(PID.TID 0000.0001)     10 .......bbcdddd......
(PID.TID 0000.0001)      9 .......cdeeffff....j
(PID.TID 0000.0001)      8 .....ccdefgghhggh..k
(PID.TID 0000.0001)      7 ......d.fghiiiiiijkl
(PID.TID 0000.0001)      6 .........ghhijjjkklm
(PID.TID 0000.0001)      5 ..........hhhijklmnn
(PID.TID 0000.0001)      4 ............ghikmopq
(PID.TID 0000.0001)      3 ..........k.hhiknqsu
(PID.TID 0000.0001)      2 .......oonm..ijknqux
(PID.TID 0000.0001)      1 ........qponlkklosw+
(PID.TID 0000.0001) // =======================================================
(PID.TID 0000.0001) // END OF FIELD                                          =
(PID.TID 0000.0001) // =======================================================
(PID.TID 0000.0001) 
(PID.TID 0000.0001) // =======================================================
(PID.TID 0000.0001) // Field Initial Salinity at iteration          1
(PID.TID 0000.0001) // CMIN =          3.012869834899902E+01
(PID.TID 0000.0001) // CMAX =          3.487366104125977E+01
(PID.TID 0000.0001) // CINT =          1.757393589726201E-01
(PID.TID 0000.0001) // SYMBOLS (CMIN->CMAX): -abcdefghijklmnopqrstuvwxyz+
(PID.TID 0000.0001) //                  0.0: .
(PID.TID 0000.0001) // RANGE I (Lo:Hi:Step):(   1:  20:   1)
(PID.TID 0000.0001) // RANGE J (Lo:Hi:Step):(  16:   1:  -1)
(PID.TID 0000.0001) // RANGE K (Lo:Hi:Step):(   1:   1:   1)
(PID.TID 0000.0001) // =======================================================
(PID.TID 0000.0001) K =   1
(PID.TID 0000.0001)                I=10      I=20
(PID.TID 0000.0001) |--J--|123456789|123456789|
(PID.TID 0000.0001)     16 .nnos...............
(PID.TID 0000.0001)     15 lnoppppppol.........
(PID.TID 0000.0001)     14 .nponmllllmn........
(PID.TID 0000.0001)     13 ....ljhijkmo........
(PID.TID 0000.0001)     12 ......ghjlmors......
(PID.TID 0000.0001)     11 ........jmnpr.......
(PID.TID 0000.0001)     10 .......jlnpqrq......
(PID.TID 0000.0001)      9 .......noqsttts....w
(PID.TID 0000.0001)      8 .....jlnpsuvwwutu..x
(PID.TID 0000.0001)      7 ......j.rruwxyxxwxxy
(PID.TID 0000.0001)      6 .........ppruxyyzzzz
(PID.TID 0000.0001)      5 ..........ijoswyzzzz
(PID.TID 0000.0001)      4 ............iotwyzzz
(PID.TID 0000.0001)      3 ..........g.imquwyzz
(PID.TID 0000.0001)      2 .......-bef..knqtvxz
(PID.TID 0000.0001)      1 ........-cegijlosvy+
(PID.TID 0000.0001) // =======================================================
(PID.TID 0000.0001) // END OF FIELD                                          =
(PID.TID 0000.0001) // =======================================================
(PID.TID 0000.0001) 
(PID.TID 0000.0001) Start initial hydrostatic pressure computation
(PID.TID 0000.0001) Pressure is predetermined for buoyancyRelation OCEANIC
(PID.TID 0000.0001) 
(PID.TID 0000.0001)  MDS_READ_FIELD: opening file: xx_theta.0000000000.001.001.data
 ph-ctrl theta0 a   0.
 ph-ctrl theta0 b   0.
(PID.TID 0000.0001)  MDS_READ_FIELD: opening file: xx_salt.0000000000.001.001.data
(PID.TID 0000.0001) // =======================================================
(PID.TID 0000.0001) // Model current state
(PID.TID 0000.0001) // =======================================================
(PID.TID 0000.0001) 
(PID.TID 0000.0001) // =======================================================
(PID.TID 0000.0001) // Begin MONITOR SEAICE statistics
(PID.TID 0000.0001) // =======================================================
(PID.TID 0000.0001) %MON seaice_tsnumber              =                     0
(PID.TID 0000.0001) %MON seaice_time_sec              =   0.0000000000000E+00
(PID.TID 0000.0001) %MON seaice_uice_max              =   0.0000000000000E+00
(PID.TID 0000.0001) %MON seaice_uice_min              =   0.0000000000000E+00
(PID.TID 0000.0001) %MON seaice_uice_mean             =   0.0000000000000E+00
(PID.TID 0000.0001) %MON seaice_uice_sd               =   0.0000000000000E+00
(PID.TID 0000.0001) %MON seaice_uice_del2             =   0.0000000000000E+00
(PID.TID 0000.0001) %MON seaice_vice_max              =   0.0000000000000E+00
(PID.TID 0000.0001) %MON seaice_vice_min              =   0.0000000000000E+00
(PID.TID 0000.0001) %MON seaice_vice_mean             =   0.0000000000000E+00
(PID.TID 0000.0001) %MON seaice_vice_sd               =   0.0000000000000E+00
(PID.TID 0000.0001) %MON seaice_vice_del2             =   0.0000000000000E+00
(PID.TID 0000.0001) %MON seaice_area_max              =   1.0000000000000E+00
(PID.TID 0000.0001) %MON seaice_area_min              =   1.0000000000000E+00
(PID.TID 0000.0001) %MON seaice_area_mean             =   1.0000000000000E+00
(PID.TID 0000.0001) %MON seaice_area_sd               =   0.0000000000000E+00
(PID.TID 0000.0001) %MON seaice_area_del2             =   0.0000000000000E+00
(PID.TID 0000.0001) %MON seaice_heff_max              =   1.0000000000000E+00
(PID.TID 0000.0001) %MON seaice_heff_min              =   1.0000000000000E+00
(PID.TID 0000.0001) %MON seaice_heff_mean             =   1.0000000000000E+00
(PID.TID 0000.0001) %MON seaice_heff_sd               =   0.0000000000000E+00
(PID.TID 0000.0001) %MON seaice_heff_del2             =   0.0000000000000E+00
(PID.TID 0000.0001) %MON seaice_hsnow_max             =   2.0000000298023E-01
(PID.TID 0000.0001) %MON seaice_hsnow_min             =   2.0000000298023E-01
(PID.TID 0000.0001) %MON seaice_hsnow_mean            =   2.0000000298023E-01
(PID.TID 0000.0001) %MON seaice_hsnow_sd              =   5.8286708792821E-16
(PID.TID 0000.0001) %MON seaice_hsnow_del2            =   0.0000000000000E+00
(PID.TID 0000.0001) // =======================================================
(PID.TID 0000.0001) // End MONITOR SEAICE statistics
(PID.TID 0000.0001) // =======================================================
(PID.TID 0000.0001)  MDS_READ_FIELD: opening file: xx_atemp.0000000000.001.001.data
(PID.TID 0000.0001)  MDS_READ_FIELD: opening file: xx_atemp.0000000000.001.001.data
(PID.TID 0000.0001)  MDS_READ_FIELD: opening file: xx_aqh.0000000000.001.001.data
(PID.TID 0000.0001)  MDS_READ_FIELD: opening file: xx_aqh.0000000000.001.001.data
(PID.TID 0000.0001)  MDS_READ_FIELD: opening file: xx_precip.0000000000.001.001.data
(PID.TID 0000.0001)  MDS_READ_FIELD: opening file: xx_precip.0000000000.001.001.data
(PID.TID 0000.0001)  MDS_READ_FIELD: opening file: xx_swdown.0000000000.001.001.data
(PID.TID 0000.0001)  MDS_READ_FIELD: opening file: xx_swdown.0000000000.001.001.data
(PID.TID 0000.0001)  MDS_READ_FIELD: opening file: xx_lwdown.0000000000.001.001.data
(PID.TID 0000.0001)  MDS_READ_FIELD: opening file: xx_lwdown.0000000000.001.001.data
(PID.TID 0000.0001)  MDS_READ_FIELD: opening file: xx_snowprecip.0000000000.001.001.data
(PID.TID 0000.0001)  MDS_READ_FIELD: opening file: xx_snowprecip.0000000000.001.001.data
(PID.TID 0000.0001)  MDS_READ_FIELD: opening file: xx_apressure.0000000000.001.001.data
(PID.TID 0000.0001)  MDS_READ_FIELD: opening file: xx_apressure.0000000000.001.001.data
(PID.TID 0000.0001)  MDS_READ_FIELD: opening file: xx_uwind.0000000000.001.001.data
(PID.TID 0000.0001)  MDS_READ_FIELD: opening file: xx_uwind.0000000000.001.001.data
(PID.TID 0000.0001)  MDS_READ_FIELD: opening file: xx_vwind.0000000000.001.001.data
(PID.TID 0000.0001)  MDS_READ_FIELD: opening file: xx_vwind.0000000000.001.001.data
(PID.TID 0000.0001) // =======================================================
(PID.TID 0000.0001) // Begin MONITOR EXF statistics
(PID.TID 0000.0001) // =======================================================
(PID.TID 0000.0001) %MON exf_tsnumber                 =                     0
(PID.TID 0000.0001) %MON exf_time_sec                 =   0.0000000000000E+00
(PID.TID 0000.0001) %MON exf_ustress_max              =   6.3903775845771E-02
(PID.TID 0000.0001) %MON exf_ustress_min              =  -9.5324050318348E-02
(PID.TID 0000.0001) %MON exf_ustress_mean             =   2.2585161576442E-02
(PID.TID 0000.0001) %MON exf_ustress_sd               =   2.7275779772123E-02
(PID.TID 0000.0001) %MON exf_ustress_del2             =   2.9464928316532E-03
(PID.TID 0000.0001) %MON exf_vstress_max              =   5.4708944127586E-02
(PID.TID 0000.0001) %MON exf_vstress_min              =  -6.2488440618747E-02
(PID.TID 0000.0001) %MON exf_vstress_mean             =  -5.6174744092497E-03
(PID.TID 0000.0001) %MON exf_vstress_sd               =   1.5596129679472E-02
(PID.TID 0000.0001) %MON exf_vstress_del2             =   1.7930353392504E-03
(PID.TID 0000.0001) %MON exf_hflux_max                =   7.3111020636161E+02
(PID.TID 0000.0001) %MON exf_hflux_min                =   1.0991726570245E+02
(PID.TID 0000.0001) %MON exf_hflux_mean               =   2.7655954074848E+02
(PID.TID 0000.0001) %MON exf_hflux_sd                 =   1.5872020279176E+02
(PID.TID 0000.0001) %MON exf_hflux_del2               =   1.9324683944853E+01
(PID.TID 0000.0001) %MON exf_sflux_max                =   5.3473262221640E-08
(PID.TID 0000.0001) %MON exf_sflux_min                =  -6.1385296755754E-08
(PID.TID 0000.0001) %MON exf_sflux_mean               =  -7.3062649590205E-09
(PID.TID 0000.0001) %MON exf_sflux_sd                 =   2.6562207698134E-08
(PID.TID 0000.0001) %MON exf_sflux_del2               =   3.6392857294589E-09
(PID.TID 0000.0001) %MON exf_uwind_max                =   6.4643745422363E+00
(PID.TID 0000.0001) %MON exf_uwind_min                =  -6.8372380733490E+00
(PID.TID 0000.0001) %MON exf_uwind_mean               =   2.7697727336031E+00
(PID.TID 0000.0001) %MON exf_uwind_sd                 =   2.9900402496951E+00
(PID.TID 0000.0001) %MON exf_uwind_del2               =   3.1570994739265E-01
(PID.TID 0000.0001) %MON exf_vwind_max                =   3.9240682125092E+00
(PID.TID 0000.0001) %MON exf_vwind_min                =  -6.0197033882141E+00
(PID.TID 0000.0001) %MON exf_vwind_mean               =  -7.6089868124963E-01
(PID.TID 0000.0001) %MON exf_vwind_sd                 =   1.7293437592941E+00
(PID.TID 0000.0001) %MON exf_vwind_del2               =   1.9333263882436E-01
(PID.TID 0000.0001) %MON exf_wspeed_max               =   7.8832820454477E+00
(PID.TID 0000.0001) %MON exf_wspeed_min               =   4.6035219539401E-01
(PID.TID 0000.0001) %MON exf_wspeed_mean              =   4.1981217095273E+00
(PID.TID 0000.0001) %MON exf_wspeed_sd                =   1.5991724245810E+00
(PID.TID 0000.0001) %MON exf_wspeed_del2              =   3.7693667977018E-01
(PID.TID 0000.0001) %MON exf_atemp_max                =   2.8188281250000E+02
(PID.TID 0000.0001) %MON exf_atemp_min                =   2.3646176910400E+02
(PID.TID 0000.0001) %MON exf_atemp_mean               =   2.6394605878816E+02
(PID.TID 0000.0001) %MON exf_atemp_sd                 =   1.1983418384145E+01
(PID.TID 0000.0001) %MON exf_atemp_del2               =   6.4942342667643E-01
(PID.TID 0000.0001) %MON exf_aqh_max                  =   6.3231729436666E-03
(PID.TID 0000.0001) %MON exf_aqh_min                  =   1.6369274817407E-04
(PID.TID 0000.0001) %MON exf_aqh_mean                 =   2.4803629101886E-03
(PID.TID 0000.0001) %MON exf_aqh_sd                   =   1.4265074770275E-03
(PID.TID 0000.0001) %MON exf_aqh_del2                 =   6.8141780599641E-05
(PID.TID 0000.0001) %MON exf_lwflux_max               =   1.9978966060501E+02
(PID.TID 0000.0001) %MON exf_lwflux_min               =   6.3304595803996E+01
(PID.TID 0000.0001) %MON exf_lwflux_mean              =   1.0410079899302E+02
(PID.TID 0000.0001) %MON exf_lwflux_sd                =   3.6519264181786E+01
(PID.TID 0000.0001) %MON exf_lwflux_del2              =   3.1286635970398E+00
(PID.TID 0000.0001) %MON exf_precip_max               =   1.0498766300771E-07
(PID.TID 0000.0001) %MON exf_precip_min               =   2.7359498694368E-10
(PID.TID 0000.0001) %MON exf_precip_mean              =   3.6390080543085E-08
(PID.TID 0000.0001) %MON exf_precip_sd                =   2.0578148171209E-08
(PID.TID 0000.0001) %MON exf_precip_del2              =   2.5551549857431E-09
(PID.TID 0000.0001) %MON exf_snowprecip_max           =   0.0000000000000E+00
(PID.TID 0000.0001) %MON exf_snowprecip_min           =   0.0000000000000E+00
(PID.TID 0000.0001) %MON exf_snowprecip_mean          =   0.0000000000000E+00
(PID.TID 0000.0001) %MON exf_snowprecip_sd            =   0.0000000000000E+00
(PID.TID 0000.0001) %MON exf_snowprecip_del2          =   0.0000000000000E+00
(PID.TID 0000.0001) %MON exf_swflux_max               =  -8.1205755472183E-02
(PID.TID 0000.0001) %MON exf_swflux_min               =  -6.3973114013672E+01
(PID.TID 0000.0001) %MON exf_swflux_mean              =  -2.6453223022948E+01
(PID.TID 0000.0001) %MON exf_swflux_sd                =   1.9625901079469E+01
(PID.TID 0000.0001) %MON exf_swflux_del2              =   4.7901276555285E-01
(PID.TID 0000.0001) %MON exf_evap_max                 =   5.9797470045733E-08
(PID.TID 0000.0001) %MON exf_evap_min                 =   1.0729148721654E-08
(PID.TID 0000.0001) %MON exf_evap_mean                =   2.9083815584064E-08
(PID.TID 0000.0001) %MON exf_evap_sd                  =   9.2938022973569E-09
(PID.TID 0000.0001) %MON exf_evap_del2                =   2.0154590676424E-09
(PID.TID 0000.0001) %MON exf_swdown_max               =   7.1081237792969E+01
(PID.TID 0000.0001) %MON exf_swdown_min               =   9.0228617191315E-02
(PID.TID 0000.0001) %MON exf_swdown_mean              =   2.9392470025498E+01
(PID.TID 0000.0001) %MON exf_swdown_sd                =   2.1806556754965E+01
(PID.TID 0000.0001) %MON exf_swdown_del2              =   5.3223640616983E-01
(PID.TID 0000.0001) %MON exf_lwdown_max               =   3.0567971801758E+02
(PID.TID 0000.0001) %MON exf_lwdown_min               =   1.1599769210815E+02
(PID.TID 0000.0001) %MON exf_lwdown_mean              =   2.2594931695913E+02
(PID.TID 0000.0001) %MON exf_lwdown_sd                =   4.6277429231296E+01
(PID.TID 0000.0001) %MON exf_lwdown_del2              =   3.2438212966919E+00
(PID.TID 0000.0001) %MON exf_apressure_max            =   0.0000000000000E+00
(PID.TID 0000.0001) %MON exf_apressure_min            =   0.0000000000000E+00
(PID.TID 0000.0001) %MON exf_apressure_mean           =   0.0000000000000E+00
(PID.TID 0000.0001) %MON exf_apressure_sd             =   0.0000000000000E+00
(PID.TID 0000.0001) %MON exf_apressure_del2           =   0.0000000000000E+00
(PID.TID 0000.0001) %MON exf_runoff_max               =   0.0000000000000E+00
(PID.TID 0000.0001) %MON exf_runoff_min               =   0.0000000000000E+00
(PID.TID 0000.0001) %MON exf_runoff_mean              =   0.0000000000000E+00
(PID.TID 0000.0001) %MON exf_runoff_sd                =   0.0000000000000E+00
(PID.TID 0000.0001) %MON exf_runoff_del2              =   0.0000000000000E+00
(PID.TID 0000.0001) %MON exf_climsst_max              =   0.0000000000000E+00
(PID.TID 0000.0001) %MON exf_climsst_min              =   0.0000000000000E+00
(PID.TID 0000.0001) %MON exf_climsst_mean             =   0.0000000000000E+00
(PID.TID 0000.0001) %MON exf_climsst_sd               =   0.0000000000000E+00
(PID.TID 0000.0001) %MON exf_climsst_del2             =   0.0000000000000E+00
(PID.TID 0000.0001) %MON exf_climsss_max              =   3.5040330886841E+01
(PID.TID 0000.0001) %MON exf_climsss_min              =   3.0666313171387E+01
(PID.TID 0000.0001) %MON exf_climsss_mean             =   3.3459319600989E+01
(PID.TID 0000.0001) %MON exf_climsss_sd               =   1.0319548925494E+00
(PID.TID 0000.0001) %MON exf_climsss_del2             =   1.0019396146139E-01
(PID.TID 0000.0001) // =======================================================
(PID.TID 0000.0001) // End MONITOR EXF statistics
(PID.TID 0000.0001) // =======================================================
 ph-ice B  0  0.  0.  0.
 ph-ice C  0  5.30354909E+10
 cg2d: Sum(rhs),rhsMax =   1.05818132034585E-15  9.93037467350620E-01
(PID.TID 0000.0001) // =======================================================
(PID.TID 0000.0001) // Begin MONITOR SEAICE statistics
(PID.TID 0000.0001) // =======================================================
(PID.TID 0000.0001) %MON seaice_tsnumber              =                     1
(PID.TID 0000.0001) %MON seaice_time_sec              =   3.6000000000000E+03
(PID.TID 0000.0001) %MON seaice_uice_max              =   1.1830188588838E-01
(PID.TID 0000.0001) %MON seaice_uice_min              =  -3.6947667601810E-02
(PID.TID 0000.0001) %MON seaice_uice_mean             =   4.6351011395841E-02
(PID.TID 0000.0001) %MON seaice_uice_sd               =   4.4551623876367E-02
(PID.TID 0000.0001) %MON seaice_uice_del2             =   2.6893939150909E-03
(PID.TID 0000.0001) %MON seaice_vice_max              =   3.8048078875392E-02
(PID.TID 0000.0001) %MON seaice_vice_min              =  -7.2208311040469E-02
(PID.TID 0000.0001) %MON seaice_vice_mean             =  -1.7212953413442E-02
(PID.TID 0000.0001) %MON seaice_vice_sd               =   2.7498420195410E-02
(PID.TID 0000.0001) %MON seaice_vice_del2             =   2.2712992187913E-03
(PID.TID 0000.0001) %MON seaice_area_max              =   1.0000000000000E+00
(PID.TID 0000.0001) %MON seaice_area_min              =   0.0000000000000E+00
(PID.TID 0000.0001) %MON seaice_area_mean             =   6.3240413315807E-01
(PID.TID 0000.0001) %MON seaice_area_sd               =   4.5166868471635E-01
(PID.TID 0000.0001) %MON seaice_area_del2             =   4.7454834464454E-02
(PID.TID 0000.0001) %MON seaice_heff_max              =   6.0076635272005E-01
(PID.TID 0000.0001) %MON seaice_heff_min              =   0.0000000000000E+00
(PID.TID 0000.0001) %MON seaice_heff_mean             =   1.4887451420705E-01
(PID.TID 0000.0001) %MON seaice_heff_sd               =   1.8287366827124E-01
(PID.TID 0000.0001) %MON seaice_heff_del2             =   1.0146605920259E-02
(PID.TID 0000.0001) %MON seaice_hsnow_max             =   2.0078474686707E-01
(PID.TID 0000.0001) %MON seaice_hsnow_min             =   0.0000000000000E+00
(PID.TID 0000.0001) %MON seaice_hsnow_mean            =   1.1848697056338E-01
(PID.TID 0000.0001) %MON seaice_hsnow_sd              =   9.6623972770983E-02
(PID.TID 0000.0001) %MON seaice_hsnow_del2            =   6.2688952170602E-03
(PID.TID 0000.0001) // =======================================================
(PID.TID 0000.0001) // End MONITOR SEAICE statistics
(PID.TID 0000.0001) // =======================================================
(PID.TID 0000.0001) // =======================================================
(PID.TID 0000.0001) // Begin MONITOR EXF statistics
(PID.TID 0000.0001) // =======================================================
(PID.TID 0000.0001) %MON exf_tsnumber                 =                     1
(PID.TID 0000.0001) %MON exf_time_sec                 =   3.6000000000000E+03
(PID.TID 0000.0001) %MON exf_ustress_max              =   5.2215336216899E-02
(PID.TID 0000.0001) %MON exf_ustress_min              =  -9.3781516255246E-02
(PID.TID 0000.0001) %MON exf_ustress_mean             =   1.7908662544517E-02
(PID.TID 0000.0001) %MON exf_ustress_sd               =   2.3677823669804E-02
(PID.TID 0000.0001) %MON exf_ustress_del2             =   2.8185945121624E-03
(PID.TID 0000.0001) %MON exf_vstress_max              =   5.3823846971061E-02
(PID.TID 0000.0001) %MON exf_vstress_min              =  -5.8521115502029E-02
(PID.TID 0000.0001) %MON exf_vstress_mean             =  -5.4709261667711E-03
(PID.TID 0000.0001) %MON exf_vstress_sd               =   1.4440701972093E-02
(PID.TID 0000.0001) %MON exf_vstress_del2             =   1.6942464820198E-03
(PID.TID 0000.0001) %MON exf_hflux_max                =   6.2467472133264E+02
(PID.TID 0000.0001) %MON exf_hflux_min                =  -5.4116825759641E+01
(PID.TID 0000.0001) %MON exf_hflux_mean               =   1.4693364523292E+02
(PID.TID 0000.0001) %MON exf_hflux_sd                 =   1.8156699166726E+02
(PID.TID 0000.0001) %MON exf_hflux_del2               =   1.6567549988309E+01
(PID.TID 0000.0001) %MON exf_sflux_max                =   3.9008935708334E-08
(PID.TID 0000.0001) %MON exf_sflux_min                =  -8.8902774357601E-08
(PID.TID 0000.0001) %MON exf_sflux_mean               =  -2.5876940733905E-08
(PID.TID 0000.0001) %MON exf_sflux_sd                 =   3.0537598429309E-08
(PID.TID 0000.0001) %MON exf_sflux_del2               =   3.1605976891189E-09
(PID.TID 0000.0001) %MON exf_uwind_max                =   6.4648819946852E+00
(PID.TID 0000.0001) %MON exf_uwind_min                =  -6.8372648550513E+00
(PID.TID 0000.0001) %MON exf_uwind_mean               =   2.7698802859476E+00
(PID.TID 0000.0001) %MON exf_uwind_sd                 =   2.9903162155877E+00
(PID.TID 0000.0001) %MON exf_uwind_del2               =   3.1571785161521E-01
(PID.TID 0000.0001) %MON exf_vwind_max                =   3.9240983933048E+00
(PID.TID 0000.0001) %MON exf_vwind_min                =  -6.0187974783892E+00
(PID.TID 0000.0001) %MON exf_vwind_mean               =  -7.6028090815952E-01
(PID.TID 0000.0001) %MON exf_vwind_sd                 =   1.7294518007626E+00
(PID.TID 0000.0001) %MON exf_vwind_del2               =   1.9332576748242E-01
(PID.TID 0000.0001) %MON exf_wspeed_max               =   7.8833202965791E+00
(PID.TID 0000.0001) %MON exf_wspeed_min               =   4.6010935417159E-01
(PID.TID 0000.0001) %MON exf_wspeed_mean              =   4.1982241536133E+00
(PID.TID 0000.0001) %MON exf_wspeed_sd                =   1.5994287774633E+00
(PID.TID 0000.0001) %MON exf_wspeed_del2              =   3.7699000842292E-01
(PID.TID 0000.0001) %MON exf_atemp_max                =   2.8188110034713E+02
(PID.TID 0000.0001) %MON exf_atemp_min                =   2.3645730413635E+02
(PID.TID 0000.0001) %MON exf_atemp_mean               =   2.6394141469886E+02
(PID.TID 0000.0001) %MON exf_atemp_sd                 =   1.1984878913314E+01
(PID.TID 0000.0001) %MON exf_atemp_del2               =   6.4944275683998E-01
(PID.TID 0000.0001) %MON exf_aqh_max                  =   6.3224764028055E-03
(PID.TID 0000.0001) %MON exf_aqh_min                  =   1.6359864467567E-04
(PID.TID 0000.0001) %MON exf_aqh_mean                 =   2.4798025537840E-03
(PID.TID 0000.0001) %MON exf_aqh_sd                   =   1.4264043737180E-03
(PID.TID 0000.0001) %MON exf_aqh_del2                 =   6.8128113038494E-05
(PID.TID 0000.0001) %MON exf_lwflux_max               =   1.8380784776361E+02
(PID.TID 0000.0001) %MON exf_lwflux_min               =   2.6472644798215E+01
(PID.TID 0000.0001) %MON exf_lwflux_mean              =   7.5350572632925E+01
(PID.TID 0000.0001) %MON exf_lwflux_sd                =   4.3134595524386E+01
(PID.TID 0000.0001) %MON exf_lwflux_del2              =   3.2390977067912E+00
(PID.TID 0000.0001) %MON exf_precip_max               =   1.0498904445033E-07
(PID.TID 0000.0001) %MON exf_precip_min               =   2.7346106047101E-10
(PID.TID 0000.0001) %MON exf_precip_mean              =   3.6390069699050E-08
(PID.TID 0000.0001) %MON exf_precip_sd                =   2.0578598603627E-08
(PID.TID 0000.0001) %MON exf_precip_del2              =   2.5556826789328E-09
(PID.TID 0000.0001) %MON exf_snowprecip_max           =   0.0000000000000E+00
(PID.TID 0000.0001) %MON exf_snowprecip_min           =   0.0000000000000E+00
(PID.TID 0000.0001) %MON exf_snowprecip_mean          =   0.0000000000000E+00
(PID.TID 0000.0001) %MON exf_snowprecip_sd            =   0.0000000000000E+00
(PID.TID 0000.0001) %MON exf_snowprecip_del2          =   0.0000000000000E+00
(PID.TID 0000.0001) %MON exf_swflux_max               =  -8.1206038349965E-02
(PID.TID 0000.0001) %MON exf_swflux_min               =  -6.3991984364244E+01
(PID.TID 0000.0001) %MON exf_swflux_mean              =  -2.6463755238823E+01
(PID.TID 0000.0001) %MON exf_swflux_sd                =   1.9629736696482E+01
(PID.TID 0000.0001) %MON exf_swflux_del2              =   4.7911963949881E-01
(PID.TID 0000.0001) %MON exf_evap_max                 =   4.5332480821497E-08
(PID.TID 0000.0001) %MON exf_evap_min                 =  -4.7524365011618E-09
(PID.TID 0000.0001) %MON exf_evap_mean                =   1.0513128965145E-08
(PID.TID 0000.0001) %MON exf_evap_sd                  =   1.1274583063208E-08
(PID.TID 0000.0001) %MON exf_evap_del2                =   1.3716110239754E-09
(PID.TID 0000.0001) %MON exf_swdown_max               =   7.1102204849160E+01
(PID.TID 0000.0001) %MON exf_swdown_min               =   9.0228931499961E-02
(PID.TID 0000.0001) %MON exf_swdown_mean              =   2.9404172487581E+01
(PID.TID 0000.0001) %MON exf_swdown_sd                =   2.1810818551646E+01
(PID.TID 0000.0001) %MON exf_swdown_del2              =   5.3235515499868E-01
(PID.TID 0000.0001) %MON exf_lwdown_max               =   3.0567089193375E+02
(PID.TID 0000.0001) %MON exf_lwdown_min               =   1.1598258522951E+02
(PID.TID 0000.0001) %MON exf_lwdown_mean              =   2.2593360963007E+02
(PID.TID 0000.0001) %MON exf_lwdown_sd                =   4.6281398610271E+01
(PID.TID 0000.0001) %MON exf_lwdown_del2              =   3.2438329367646E+00
(PID.TID 0000.0001) %MON exf_apressure_max            =   0.0000000000000E+00
(PID.TID 0000.0001) %MON exf_apressure_min            =   0.0000000000000E+00
(PID.TID 0000.0001) %MON exf_apressure_mean           =   0.0000000000000E+00
(PID.TID 0000.0001) %MON exf_apressure_sd             =   0.0000000000000E+00
(PID.TID 0000.0001) %MON exf_apressure_del2           =   0.0000000000000E+00
(PID.TID 0000.0001) %MON exf_runoff_max               =   0.0000000000000E+00
(PID.TID 0000.0001) %MON exf_runoff_min               =   0.0000000000000E+00
(PID.TID 0000.0001) %MON exf_runoff_mean              =   0.0000000000000E+00
(PID.TID 0000.0001) %MON exf_runoff_sd                =   0.0000000000000E+00
(PID.TID 0000.0001) %MON exf_runoff_del2              =   0.0000000000000E+00
(PID.TID 0000.0001) %MON exf_climsst_max              =   0.0000000000000E+00
(PID.TID 0000.0001) %MON exf_climsst_min              =   0.0000000000000E+00
(PID.TID 0000.0001) %MON exf_climsst_mean             =   0.0000000000000E+00
(PID.TID 0000.0001) %MON exf_climsst_sd               =   0.0000000000000E+00
(PID.TID 0000.0001) %MON exf_climsst_del2             =   0.0000000000000E+00
(PID.TID 0000.0001) %MON exf_climsss_max              =   3.5040515633880E+01
(PID.TID 0000.0001) %MON exf_climsss_min              =   3.0667072499385E+01
(PID.TID 0000.0001) %MON exf_climsss_mean             =   3.3459840934468E+01
(PID.TID 0000.0001) %MON exf_climsss_sd               =   1.0318832207269E+00
(PID.TID 0000.0001) %MON exf_climsss_del2             =   1.0017673217099E-01
(PID.TID 0000.0001) // =======================================================
(PID.TID 0000.0001) // End MONITOR EXF statistics
(PID.TID 0000.0001) // =======================================================
 ph-ice B  1  0.  0.  0.
 ph-ice C  1  1.03662085E+11
 cg2d: Sum(rhs),rhsMax =   9.71448088638027E-10  1.19254195625089E+00
(PID.TID 0000.0001) // =======================================================
(PID.TID 0000.0001) // Begin MONITOR SEAICE statistics
(PID.TID 0000.0001) // =======================================================
(PID.TID 0000.0001) %MON seaice_tsnumber              =                     2
(PID.TID 0000.0001) %MON seaice_time_sec              =   7.2000000000000E+03
(PID.TID 0000.0001) %MON seaice_uice_max              =   1.5575757093803E-01
(PID.TID 0000.0001) %MON seaice_uice_min              =  -8.0942741430966E-02
(PID.TID 0000.0001) %MON seaice_uice_mean             =   6.5168649618805E-02
(PID.TID 0000.0001) %MON seaice_uice_sd               =   6.1631642932372E-02
(PID.TID 0000.0001) %MON seaice_uice_del2             =   6.8706904513117E-03
(PID.TID 0000.0001) %MON seaice_vice_max              =   7.0616929105082E-02
(PID.TID 0000.0001) %MON seaice_vice_min              =  -1.3662299947234E-01
(PID.TID 0000.0001) %MON seaice_vice_mean             =  -2.1829812701474E-02
(PID.TID 0000.0001) %MON seaice_vice_sd               =   4.1312329503966E-02
(PID.TID 0000.0001) %MON seaice_vice_del2             =   5.3521934538168E-03
(PID.TID 0000.0001) %MON seaice_area_max              =   1.0000000000000E+00
(PID.TID 0000.0001) %MON seaice_area_min              =   0.0000000000000E+00
(PID.TID 0000.0001) %MON seaice_area_mean             =   6.2511450993834E-01
(PID.TID 0000.0001) %MON seaice_area_sd               =   4.5918079334496E-01
(PID.TID 0000.0001) %MON seaice_area_del2             =   5.3309180277076E-02
(PID.TID 0000.0001) %MON seaice_heff_max              =   5.5572638142240E-01
(PID.TID 0000.0001) %MON seaice_heff_min              =   0.0000000000000E+00
(PID.TID 0000.0001) %MON seaice_heff_mean             =   1.4211256278118E-01
(PID.TID 0000.0001) %MON seaice_heff_sd               =   1.7471336182141E-01
(PID.TID 0000.0001) %MON seaice_heff_del2             =   1.3300800072063E-02
(PID.TID 0000.0001) %MON seaice_hsnow_max             =   2.0156957952176E-01
(PID.TID 0000.0001) %MON seaice_hsnow_min             =   0.0000000000000E+00
(PID.TID 0000.0001) %MON seaice_hsnow_mean            =   1.1798259565184E-01
(PID.TID 0000.0001) %MON seaice_hsnow_sd              =   9.6675387962262E-02
(PID.TID 0000.0001) %MON seaice_hsnow_del2            =   6.3372971187477E-03
(PID.TID 0000.0001) // =======================================================
(PID.TID 0000.0001) // End MONITOR SEAICE statistics
(PID.TID 0000.0001) // =======================================================
(PID.TID 0000.0001) // =======================================================
(PID.TID 0000.0001) // Begin MONITOR EXF statistics
(PID.TID 0000.0001) // =======================================================
(PID.TID 0000.0001) %MON exf_tsnumber                 =                     2
(PID.TID 0000.0001) %MON exf_time_sec                 =   7.2000000000000E+03
(PID.TID 0000.0001) %MON exf_ustress_max              =   5.2234389551241E-02
(PID.TID 0000.0001) %MON exf_ustress_min              =  -9.3783873525021E-02
(PID.TID 0000.0001) %MON exf_ustress_mean             =   1.7912600573968E-02
(PID.TID 0000.0001) %MON exf_ustress_sd               =   2.3689565852331E-02
(PID.TID 0000.0001) %MON exf_ustress_del2             =   2.8175390184114E-03
(PID.TID 0000.0001) %MON exf_vstress_max              =   5.3825403016462E-02
(PID.TID 0000.0001) %MON exf_vstress_min              =  -5.8501907463670E-02
(PID.TID 0000.0001) %MON exf_vstress_mean             =  -5.4571899118138E-03
(PID.TID 0000.0001) %MON exf_vstress_sd               =   1.4439148462204E-02
(PID.TID 0000.0001) %MON exf_vstress_del2             =   1.6937324543412E-03
(PID.TID 0000.0001) %MON exf_hflux_max                =   6.2473671698450E+02
(PID.TID 0000.0001) %MON exf_hflux_min                =  -5.1856944043789E+01
(PID.TID 0000.0001) %MON exf_hflux_mean               =   1.4603891740892E+02
(PID.TID 0000.0001) %MON exf_hflux_sd                 =   1.8006278796943E+02
(PID.TID 0000.0001) %MON exf_hflux_del2               =   1.6304066874743E+01
(PID.TID 0000.0001) %MON exf_sflux_max                =   3.9010172880204E-08
(PID.TID 0000.0001) %MON exf_sflux_min                =  -8.8920778732677E-08
(PID.TID 0000.0001) %MON exf_sflux_mean               =  -2.5980919550964E-08
(PID.TID 0000.0001) %MON exf_sflux_sd                 =   3.0374070303821E-08
(PID.TID 0000.0001) %MON exf_sflux_del2               =   3.1602147075936E-09
(PID.TID 0000.0001) %MON exf_uwind_max                =   6.4653894471340E+00
(PID.TID 0000.0001) %MON exf_uwind_min                =  -6.8372916367536E+00
(PID.TID 0000.0001) %MON exf_uwind_mean               =   2.7699878382920E+00
(PID.TID 0000.0001) %MON exf_uwind_sd                 =   2.9905922217476E+00
(PID.TID 0000.0001) %MON exf_uwind_del2               =   3.1572575583776E-01
(PID.TID 0000.0001) %MON exf_vwind_max                =   3.9241285741003E+00
(PID.TID 0000.0001) %MON exf_vwind_min                =  -6.0178915685643E+00
(PID.TID 0000.0001) %MON exf_vwind_mean               =  -7.5966313506940E-01
(PID.TID 0000.0001) %MON exf_vwind_sd                 =   1.7295599554900E+00
(PID.TID 0000.0001) %MON exf_vwind_del2               =   1.9331889614049E-01
(PID.TID 0000.0001) %MON exf_wspeed_max               =   7.8833585477315E+00
(PID.TID 0000.0001) %MON exf_wspeed_min               =   4.5986651533145E-01
(PID.TID 0000.0001) %MON exf_wspeed_mean              =   4.1983267266652E+00
(PID.TID 0000.0001) %MON exf_wspeed_sd                =   1.5996852426804E+00
(PID.TID 0000.0001) %MON exf_wspeed_del2              =   3.7704333058266E-01
(PID.TID 0000.0001) %MON exf_atemp_max                =   2.8187938819427E+02
(PID.TID 0000.0001) %MON exf_atemp_min                =   2.3645283916869E+02
(PID.TID 0000.0001) %MON exf_atemp_mean               =   2.6393677060956E+02
(PID.TID 0000.0001) %MON exf_atemp_sd                 =   1.1986339930294E+01
(PID.TID 0000.0001) %MON exf_atemp_del2               =   6.4946208700353E-01
(PID.TID 0000.0001) %MON exf_aqh_max                  =   6.3217798619445E-03
(PID.TID 0000.0001) %MON exf_aqh_min                  =   1.6350454117726E-04
(PID.TID 0000.0001) %MON exf_aqh_mean                 =   2.4792421973794E-03
(PID.TID 0000.0001) %MON exf_aqh_sd                   =   1.4263013062694E-03
(PID.TID 0000.0001) %MON exf_aqh_del2                 =   6.8114445477348E-05
(PID.TID 0000.0001) %MON exf_lwflux_max               =   1.8153743597504E+02
(PID.TID 0000.0001) %MON exf_lwflux_min               =   2.6999313161451E+01
(PID.TID 0000.0001) %MON exf_lwflux_mean              =   7.5148003037330E+01
(PID.TID 0000.0001) %MON exf_lwflux_sd                =   4.2803183324381E+01
(PID.TID 0000.0001) %MON exf_lwflux_del2              =   3.2353096146611E+00
(PID.TID 0000.0001) %MON exf_precip_max               =   1.0499042589295E-07
(PID.TID 0000.0001) %MON exf_precip_min               =   2.7332713399833E-10
(PID.TID 0000.0001) %MON exf_precip_mean              =   3.6390058855016E-08
(PID.TID 0000.0001) %MON exf_precip_sd                =   2.0579049691733E-08
(PID.TID 0000.0001) %MON exf_precip_del2              =   2.5562103721225E-09
(PID.TID 0000.0001) %MON exf_snowprecip_max           =   0.0000000000000E+00
(PID.TID 0000.0001) %MON exf_snowprecip_min           =   0.0000000000000E+00
(PID.TID 0000.0001) %MON exf_snowprecip_mean          =   0.0000000000000E+00
(PID.TID 0000.0001) %MON exf_snowprecip_sd            =   0.0000000000000E+00
(PID.TID 0000.0001) %MON exf_snowprecip_del2          =   0.0000000000000E+00
(PID.TID 0000.0001) %MON exf_swflux_max               =  -8.1206321227746E-02
(PID.TID 0000.0001) %MON exf_swflux_min               =  -6.4010854714816E+01
(PID.TID 0000.0001) %MON exf_swflux_mean              =  -2.6474287454698E+01
(PID.TID 0000.0001) %MON exf_swflux_sd                =   1.9633572905820E+01
(PID.TID 0000.0001) %MON exf_swflux_del2              =   4.7922651344477E-01
(PID.TID 0000.0001) %MON exf_evap_max                 =   4.5333055282436E-08
(PID.TID 0000.0001) %MON exf_evap_min                 =  -4.3262573270113E-09
(PID.TID 0000.0001) %MON exf_evap_mean                =   1.0409139304052E-08
(PID.TID 0000.0001) %MON exf_evap_sd                  =   1.1101640299405E-08
(PID.TID 0000.0001) %MON exf_evap_del2                =   1.3339356802982E-09
(PID.TID 0000.0001) %MON exf_swdown_max               =   7.1123171905351E+01
(PID.TID 0000.0001) %MON exf_swdown_min               =   9.0229245808607E-02
(PID.TID 0000.0001) %MON exf_swdown_mean              =   2.9415874949665E+01
(PID.TID 0000.0001) %MON exf_swdown_sd                =   2.1815081006466E+01
(PID.TID 0000.0001) %MON exf_swdown_del2              =   5.3247390382752E-01
(PID.TID 0000.0001) %MON exf_lwdown_max               =   3.0566206584993E+02
(PID.TID 0000.0001) %MON exf_lwdown_min               =   1.1596747835086E+02
(PID.TID 0000.0001) %MON exf_lwdown_mean              =   2.2591790230100E+02
(PID.TID 0000.0001) %MON exf_lwdown_sd                =   4.6285369157136E+01
(PID.TID 0000.0001) %MON exf_lwdown_del2              =   3.2438445768374E+00
(PID.TID 0000.0001) %MON exf_apressure_max            =   0.0000000000000E+00
(PID.TID 0000.0001) %MON exf_apressure_min            =   0.0000000000000E+00
(PID.TID 0000.0001) %MON exf_apressure_mean           =   0.0000000000000E+00
(PID.TID 0000.0001) %MON exf_apressure_sd             =   0.0000000000000E+00
(PID.TID 0000.0001) %MON exf_apressure_del2           =   0.0000000000000E+00
(PID.TID 0000.0001) %MON exf_runoff_max               =   0.0000000000000E+00
(PID.TID 0000.0001) %MON exf_runoff_min               =   0.0000000000000E+00
(PID.TID 0000.0001) %MON exf_runoff_mean              =   0.0000000000000E+00
(PID.TID 0000.0001) %MON exf_runoff_sd                =   0.0000000000000E+00
(PID.TID 0000.0001) %MON exf_runoff_del2              =   0.0000000000000E+00
(PID.TID 0000.0001) %MON exf_climsst_max              =   0.0000000000000E+00
(PID.TID 0000.0001) %MON exf_climsst_min              =   0.0000000000000E+00
(PID.TID 0000.0001) %MON exf_climsst_mean             =   0.0000000000000E+00
(PID.TID 0000.0001) %MON exf_climsst_sd               =   0.0000000000000E+00
(PID.TID 0000.0001) %MON exf_climsst_del2             =   0.0000000000000E+00
(PID.TID 0000.0001) %MON exf_climsss_max              =   3.5040700380919E+01
(PID.TID 0000.0001) %MON exf_climsss_min              =   3.0667831827383E+01
(PID.TID 0000.0001) %MON exf_climsss_mean             =   3.3460362267948E+01
(PID.TID 0000.0001) %MON exf_climsss_sd               =   1.0318117788237E+00
(PID.TID 0000.0001) %MON exf_climsss_del2             =   1.0015950288060E-01
(PID.TID 0000.0001) // =======================================================
(PID.TID 0000.0001) // End MONITOR EXF statistics
(PID.TID 0000.0001) // =======================================================
 ph-ice B  2  0.  0.  0.
 ph-ice C  2  1.54286127E+11
 cg2d: Sum(rhs),rhsMax =  -4.69102090505658E-10  1.21345933309957E+00
(PID.TID 0000.0001) // =======================================================
(PID.TID 0000.0001) // Begin MONITOR SEAICE statistics
(PID.TID 0000.0001) // =======================================================
(PID.TID 0000.0001) %MON seaice_tsnumber              =                     3
(PID.TID 0000.0001) %MON seaice_time_sec              =   1.0800000000000E+04
(PID.TID 0000.0001) %MON seaice_uice_max              =   1.7677554873464E-01
(PID.TID 0000.0001) %MON seaice_uice_min              =  -9.9473388719801E-02
(PID.TID 0000.0001) %MON seaice_uice_mean             =   7.5385001316187E-02
(PID.TID 0000.0001) %MON seaice_uice_sd               =   7.1157133008359E-02
(PID.TID 0000.0001) %MON seaice_uice_del2             =   8.3170551067076E-03
(PID.TID 0000.0001) %MON seaice_vice_max              =   8.9019954952838E-02
(PID.TID 0000.0001) %MON seaice_vice_min              =  -1.7696029804101E-01
(PID.TID 0000.0001) %MON seaice_vice_mean             =  -2.9256776272973E-02
(PID.TID 0000.0001) %MON seaice_vice_sd               =   5.2264404393175E-02
(PID.TID 0000.0001) %MON seaice_vice_del2             =   6.1178194660714E-03
(PID.TID 0000.0001) %MON seaice_area_max              =   1.0000000000000E+00
(PID.TID 0000.0001) %MON seaice_area_min              =   0.0000000000000E+00
(PID.TID 0000.0001) %MON seaice_area_mean             =   6.2476891480963E-01
(PID.TID 0000.0001) %MON seaice_area_sd               =   4.5908380458979E-01
(PID.TID 0000.0001) %MON seaice_area_del2             =   5.3454422362554E-02
(PID.TID 0000.0001) %MON seaice_heff_max              =   5.5368221576291E-01
(PID.TID 0000.0001) %MON seaice_heff_min              =   0.0000000000000E+00
(PID.TID 0000.0001) %MON seaice_heff_mean             =   1.4210540236002E-01
(PID.TID 0000.0001) %MON seaice_heff_sd               =   1.7434508363520E-01
(PID.TID 0000.0001) %MON seaice_heff_del2             =   1.3231250044035E-02
(PID.TID 0000.0001) %MON seaice_hsnow_max             =   2.0235454638389E-01
(PID.TID 0000.0001) %MON seaice_hsnow_min             =   0.0000000000000E+00
(PID.TID 0000.0001) %MON seaice_hsnow_mean            =   1.1801725658723E-01
(PID.TID 0000.0001) %MON seaice_hsnow_sd              =   9.6786605530346E-02
(PID.TID 0000.0001) %MON seaice_hsnow_del2            =   6.3531464966956E-03
(PID.TID 0000.0001) // =======================================================
(PID.TID 0000.0001) // End MONITOR SEAICE statistics
(PID.TID 0000.0001) // =======================================================
(PID.TID 0000.0001) // =======================================================
(PID.TID 0000.0001) // Begin MONITOR EXF statistics
(PID.TID 0000.0001) // =======================================================
(PID.TID 0000.0001) %MON exf_tsnumber                 =                     3
(PID.TID 0000.0001) %MON exf_time_sec                 =   1.0800000000000E+04
(PID.TID 0000.0001) %MON exf_ustress_max              =   5.2220278364569E-02
(PID.TID 0000.0001) %MON exf_ustress_min              =  -9.3786644941843E-02
(PID.TID 0000.0001) %MON exf_ustress_mean             =   1.7925093421096E-02
(PID.TID 0000.0001) %MON exf_ustress_sd               =   2.3700142663344E-02
(PID.TID 0000.0001) %MON exf_ustress_del2             =   2.8158746956935E-03
(PID.TID 0000.0001) %MON exf_vstress_max              =   5.3827196762903E-02
(PID.TID 0000.0001) %MON exf_vstress_min              =  -5.8480358160302E-02
(PID.TID 0000.0001) %MON exf_vstress_mean             =  -5.4532186514062E-03
(PID.TID 0000.0001) %MON exf_vstress_sd               =   1.4440792204566E-02
(PID.TID 0000.0001) %MON exf_vstress_del2             =   1.6929391740096E-03
(PID.TID 0000.0001) %MON exf_hflux_max                =   6.2482499785037E+02
(PID.TID 0000.0001) %MON exf_hflux_min                =  -5.1652096230497E+01
(PID.TID 0000.0001) %MON exf_hflux_mean               =   1.4608870703554E+02
(PID.TID 0000.0001) %MON exf_hflux_sd                 =   1.8003233916184E+02
(PID.TID 0000.0001) %MON exf_hflux_del2               =   1.6307607843370E+01
(PID.TID 0000.0001) %MON exf_sflux_max                =   3.9014761130189E-08
(PID.TID 0000.0001) %MON exf_sflux_min                =  -8.8949891199078E-08
(PID.TID 0000.0001) %MON exf_sflux_mean               =  -2.5974537244145E-08
(PID.TID 0000.0001) %MON exf_sflux_sd                 =   3.0366721018334E-08
(PID.TID 0000.0001) %MON exf_sflux_del2               =   3.1622834462115E-09
(PID.TID 0000.0001) %MON exf_uwind_max                =   6.4658968995829E+00
(PID.TID 0000.0001) %MON exf_uwind_min                =  -6.8373184184559E+00
(PID.TID 0000.0001) %MON exf_uwind_mean               =   2.7700953906364E+00
(PID.TID 0000.0001) %MON exf_uwind_sd                 =   2.9908682681638E+00
(PID.TID 0000.0001) %MON exf_uwind_del2               =   3.1573366006031E-01
(PID.TID 0000.0001) %MON exf_vwind_max                =   3.9241587548959E+00
(PID.TID 0000.0001) %MON exf_vwind_min                =  -6.0169856587394E+00
(PID.TID 0000.0001) %MON exf_vwind_mean               =  -7.5904536197929E-01
(PID.TID 0000.0001) %MON exf_vwind_sd                 =   1.7296682234552E+00
(PID.TID 0000.0001) %MON exf_vwind_del2               =   1.9331202479855E-01
(PID.TID 0000.0001) %MON exf_wspeed_max               =   7.8833967989048E+00
(PID.TID 0000.0001) %MON exf_wspeed_min               =   4.5962367887737E-01
(PID.TID 0000.0001) %MON exf_wspeed_mean              =   4.1984294286706E+00
(PID.TID 0000.0001) %MON exf_wspeed_sd                =   1.5999418201857E+00
(PID.TID 0000.0001) %MON exf_wspeed_del2              =   3.7709664625274E-01
(PID.TID 0000.0001) %MON exf_atemp_max                =   2.8187767604140E+02
(PID.TID 0000.0001) %MON exf_atemp_min                =   2.3644837420104E+02
(PID.TID 0000.0001) %MON exf_atemp_mean               =   2.6393212652025E+02
(PID.TID 0000.0001) %MON exf_atemp_sd                 =   1.1987801434907E+01
(PID.TID 0000.0001) %MON exf_atemp_del2               =   6.4948141716709E-01
(PID.TID 0000.0001) %MON exf_aqh_max                  =   6.3210833210834E-03
(PID.TID 0000.0001) %MON exf_aqh_min                  =   1.6341043767886E-04
(PID.TID 0000.0001) %MON exf_aqh_mean                 =   2.4786818409748E-03
(PID.TID 0000.0001) %MON exf_aqh_sd                   =   1.4261982746893E-03
(PID.TID 0000.0001) %MON exf_aqh_del2                 =   6.8100777916201E-05
(PID.TID 0000.0001) %MON exf_lwflux_max               =   1.8153866759519E+02
(PID.TID 0000.0001) %MON exf_lwflux_min               =   2.7117659268638E+01
(PID.TID 0000.0001) %MON exf_lwflux_mean              =   7.5167336211947E+01
(PID.TID 0000.0001) %MON exf_lwflux_sd                =   4.2791334972581E+01
(PID.TID 0000.0001) %MON exf_lwflux_del2              =   3.2353470716342E+00
(PID.TID 0000.0001) %MON exf_precip_max               =   1.0499180733557E-07
(PID.TID 0000.0001) %MON exf_precip_min               =   2.7319320752566E-10
(PID.TID 0000.0001) %MON exf_precip_mean              =   3.6390048010982E-08
(PID.TID 0000.0001) %MON exf_precip_sd                =   2.0579501435483E-08
(PID.TID 0000.0001) %MON exf_precip_del2              =   2.5567380653122E-09
(PID.TID 0000.0001) %MON exf_snowprecip_max           =   0.0000000000000E+00
(PID.TID 0000.0001) %MON exf_snowprecip_min           =   0.0000000000000E+00
(PID.TID 0000.0001) %MON exf_snowprecip_mean          =   0.0000000000000E+00
(PID.TID 0000.0001) %MON exf_snowprecip_sd            =   0.0000000000000E+00
(PID.TID 0000.0001) %MON exf_snowprecip_del2          =   0.0000000000000E+00
(PID.TID 0000.0001) %MON exf_swflux_max               =  -8.1206604105527E-02
(PID.TID 0000.0001) %MON exf_swflux_min               =  -6.4029725065388E+01
(PID.TID 0000.0001) %MON exf_swflux_mean              =  -2.6484819670573E+01
(PID.TID 0000.0001) %MON exf_swflux_sd                =   1.9637409707136E+01
(PID.TID 0000.0001) %MON exf_swflux_del2              =   4.7933338739073E-01
(PID.TID 0000.0001) %MON exf_evap_max                 =   4.5336980821491E-08
(PID.TID 0000.0001) %MON exf_evap_min                 =  -4.2852111094861E-09
(PID.TID 0000.0001) %MON exf_evap_mean                =   1.0415510766837E-08
(PID.TID 0000.0001) %MON exf_evap_sd                  =   1.1091288953637E-08
(PID.TID 0000.0001) %MON exf_evap_del2                =   1.3330271586577E-09
(PID.TID 0000.0001) %MON exf_swdown_max               =   7.1144138961542E+01
(PID.TID 0000.0001) %MON exf_swdown_min               =   9.0229560117253E-02
(PID.TID 0000.0001) %MON exf_swdown_mean              =   2.9427577411748E+01
(PID.TID 0000.0001) %MON exf_swdown_sd                =   2.1819344119040E+01
(PID.TID 0000.0001) %MON exf_swdown_del2              =   5.3259265265636E-01
(PID.TID 0000.0001) %MON exf_lwdown_max               =   3.0565323976611E+02
(PID.TID 0000.0001) %MON exf_lwdown_min               =   1.1595237147222E+02
(PID.TID 0000.0001) %MON exf_lwdown_mean              =   2.2590219497194E+02
(PID.TID 0000.0001) %MON exf_lwdown_sd                =   4.6289340871590E+01
(PID.TID 0000.0001) %MON exf_lwdown_del2              =   3.2438562169101E+00
(PID.TID 0000.0001) %MON exf_apressure_max            =   0.0000000000000E+00
(PID.TID 0000.0001) %MON exf_apressure_min            =   0.0000000000000E+00
(PID.TID 0000.0001) %MON exf_apressure_mean           =   0.0000000000000E+00
(PID.TID 0000.0001) %MON exf_apressure_sd             =   0.0000000000000E+00
(PID.TID 0000.0001) %MON exf_apressure_del2           =   0.0000000000000E+00
(PID.TID 0000.0001) %MON exf_runoff_max               =   0.0000000000000E+00
(PID.TID 0000.0001) %MON exf_runoff_min               =   0.0000000000000E+00
(PID.TID 0000.0001) %MON exf_runoff_mean              =   0.0000000000000E+00
(PID.TID 0000.0001) %MON exf_runoff_sd                =   0.0000000000000E+00
(PID.TID 0000.0001) %MON exf_runoff_del2              =   0.0000000000000E+00
(PID.TID 0000.0001) %MON exf_climsst_max              =   0.0000000000000E+00
(PID.TID 0000.0001) %MON exf_climsst_min              =   0.0000000000000E+00
(PID.TID 0000.0001) %MON exf_climsst_mean             =   0.0000000000000E+00
(PID.TID 0000.0001) %MON exf_climsst_sd               =   0.0000000000000E+00
(PID.TID 0000.0001) %MON exf_climsst_del2             =   0.0000000000000E+00
(PID.TID 0000.0001) %MON exf_climsss_max              =   3.5040885127959E+01
(PID.TID 0000.0001) %MON exf_climsss_min              =   3.0668591155380E+01
(PID.TID 0000.0001) %MON exf_climsss_mean             =   3.3460883601427E+01
(PID.TID 0000.0001) %MON exf_climsss_sd               =   1.0317405668875E+00
(PID.TID 0000.0001) %MON exf_climsss_del2             =   1.0014227359021E-01
(PID.TID 0000.0001) // =======================================================
(PID.TID 0000.0001) // End MONITOR EXF statistics
(PID.TID 0000.0001) // =======================================================
 ph-ice B  3  0.  0.  0.
 ph-ice C  3  2.04933435E+11
 cg2d: Sum(rhs),rhsMax =   3.25073573441415E-08  1.21053584920750E+00
(PID.TID 0000.0001) // =======================================================
(PID.TID 0000.0001) // Begin MONITOR SEAICE statistics
(PID.TID 0000.0001) // =======================================================
(PID.TID 0000.0001) %MON seaice_tsnumber              =                     4
(PID.TID 0000.0001) %MON seaice_time_sec              =   1.4400000000000E+04
(PID.TID 0000.0001) %MON seaice_uice_max              =   2.0410589054947E-01
(PID.TID 0000.0001) %MON seaice_uice_min              =  -1.0820664027345E-01
(PID.TID 0000.0001) %MON seaice_uice_mean             =   8.1218981209257E-02
(PID.TID 0000.0001) %MON seaice_uice_sd               =   7.8521086963624E-02
(PID.TID 0000.0001) %MON seaice_uice_del2             =   9.4129447324628E-03
(PID.TID 0000.0001) %MON seaice_vice_max              =   9.9288507422566E-02
(PID.TID 0000.0001) %MON seaice_vice_min              =  -1.9612309365154E-01
(PID.TID 0000.0001) %MON seaice_vice_mean             =  -3.7794406584027E-02
(PID.TID 0000.0001) %MON seaice_vice_sd               =   6.1057450726566E-02
(PID.TID 0000.0001) %MON seaice_vice_del2             =   6.9481563139065E-03
(PID.TID 0000.0001) %MON seaice_area_max              =   1.0000000000000E+00
(PID.TID 0000.0001) %MON seaice_area_min              =   0.0000000000000E+00
(PID.TID 0000.0001) %MON seaice_area_mean             =   6.2450923504068E-01
(PID.TID 0000.0001) %MON seaice_area_sd               =   4.5881618509262E-01
(PID.TID 0000.0001) %MON seaice_area_del2             =   5.3553788831371E-02
(PID.TID 0000.0001) %MON seaice_heff_max              =   5.5146835059086E-01
(PID.TID 0000.0001) %MON seaice_heff_min              =   0.0000000000000E+00
(PID.TID 0000.0001) %MON seaice_heff_mean             =   1.4217070832461E-01
(PID.TID 0000.0001) %MON seaice_heff_sd               =   1.7418020673834E-01
(PID.TID 0000.0001) %MON seaice_heff_del2             =   1.3239985285642E-02
(PID.TID 0000.0001) %MON seaice_hsnow_max             =   2.0313961711978E-01
(PID.TID 0000.0001) %MON seaice_hsnow_min             =   0.0000000000000E+00
(PID.TID 0000.0001) %MON seaice_hsnow_mean            =   1.1810788894950E-01
(PID.TID 0000.0001) %MON seaice_hsnow_sd              =   9.6917239051582E-02
(PID.TID 0000.0001) %MON seaice_hsnow_del2            =   6.4249667966527E-03
(PID.TID 0000.0001) // =======================================================
(PID.TID 0000.0001) // End MONITOR SEAICE statistics
(PID.TID 0000.0001) // =======================================================
(PID.TID 0000.0001) // =======================================================
(PID.TID 0000.0001) // Begin MONITOR EXF statistics
(PID.TID 0000.0001) // =======================================================
(PID.TID 0000.0001) %MON exf_tsnumber                 =                     4
(PID.TID 0000.0001) %MON exf_time_sec                 =   1.4400000000000E+04
(PID.TID 0000.0001) %MON exf_ustress_max              =   5.2222749041034E-02
(PID.TID 0000.0001) %MON exf_ustress_min              =  -9.3790194486454E-02
(PID.TID 0000.0001) %MON exf_ustress_mean             =   1.7935661228612E-02
(PID.TID 0000.0001) %MON exf_ustress_sd               =   2.3707711307782E-02
(PID.TID 0000.0001) %MON exf_ustress_del2             =   2.8164274888383E-03
(PID.TID 0000.0001) %MON exf_vstress_max              =   5.3829437114216E-02
(PID.TID 0000.0001) %MON exf_vstress_min              =  -5.8464476572370E-02
(PID.TID 0000.0001) %MON exf_vstress_mean             =  -5.4495380494843E-03
(PID.TID 0000.0001) %MON exf_vstress_sd               =   1.4442680183293E-02
(PID.TID 0000.0001) %MON exf_vstress_del2             =   1.6931340433931E-03
(PID.TID 0000.0001) %MON exf_hflux_max                =   6.2496267398704E+02
(PID.TID 0000.0001) %MON exf_hflux_min                =  -5.1565362856509E+01
(PID.TID 0000.0001) %MON exf_hflux_mean               =   1.4615661512927E+02
(PID.TID 0000.0001) %MON exf_hflux_sd                 =   1.8002235360392E+02
(PID.TID 0000.0001) %MON exf_hflux_del2               =   1.6302004796974E+01
(PID.TID 0000.0001) %MON exf_sflux_max                =   3.9025647077273E-08
(PID.TID 0000.0001) %MON exf_sflux_min                =  -8.8952139752028E-08
(PID.TID 0000.0001) %MON exf_sflux_mean               =  -2.5966970366614E-08
(PID.TID 0000.0001) %MON exf_sflux_sd                 =   3.0361914813009E-08
(PID.TID 0000.0001) %MON exf_sflux_del2               =   3.1623401362127E-09
(PID.TID 0000.0001) %MON exf_uwind_max                =   6.4664043520318E+00
(PID.TID 0000.0001) %MON exf_uwind_min                =  -6.8373452001582E+00
(PID.TID 0000.0001) %MON exf_uwind_mean               =   2.7702029429808E+00
(PID.TID 0000.0001) %MON exf_uwind_sd                 =   2.9911443548250E+00
(PID.TID 0000.0001) %MON exf_uwind_del2               =   3.1574156428286E-01
(PID.TID 0000.0001) %MON exf_vwind_max                =   3.9241889356915E+00
(PID.TID 0000.0001) %MON exf_vwind_min                =  -6.0160797489145E+00
(PID.TID 0000.0001) %MON exf_vwind_mean               =  -7.5842758888917E-01
(PID.TID 0000.0001) %MON exf_vwind_sd                 =   1.7297766046368E+00
(PID.TID 0000.0001) %MON exf_vwind_del2               =   1.9330515345662E-01
(PID.TID 0000.0001) %MON exf_wspeed_max               =   7.8834350500991E+00
(PID.TID 0000.0001) %MON exf_wspeed_min               =   4.5938084481311E-01
(PID.TID 0000.0001) %MON exf_wspeed_mean              =   4.1985322596174E+00
(PID.TID 0000.0001) %MON exf_wspeed_sd                =   1.6001985099325E+00
(PID.TID 0000.0001) %MON exf_wspeed_del2              =   3.7714995543655E-01
(PID.TID 0000.0001) %MON exf_atemp_max                =   2.8187596388853E+02
(PID.TID 0000.0001) %MON exf_atemp_min                =   2.3644390923339E+02
(PID.TID 0000.0001) %MON exf_atemp_mean               =   2.6392748243095E+02
(PID.TID 0000.0001) %MON exf_atemp_sd                 =   1.1989263426974E+01
(PID.TID 0000.0001) %MON exf_atemp_del2               =   6.4950074733064E-01
(PID.TID 0000.0001) %MON exf_aqh_max                  =   6.3203867802223E-03
(PID.TID 0000.0001) %MON exf_aqh_min                  =   1.6331633418045E-04
(PID.TID 0000.0001) %MON exf_aqh_mean                 =   2.4781214845702E-03
(PID.TID 0000.0001) %MON exf_aqh_sd                   =   1.4260952789855E-03
(PID.TID 0000.0001) %MON exf_aqh_del2                 =   6.8087110355054E-05
(PID.TID 0000.0001) %MON exf_lwflux_max               =   1.8154800702574E+02
(PID.TID 0000.0001) %MON exf_lwflux_min               =   2.7104463753877E+01
(PID.TID 0000.0001) %MON exf_lwflux_mean              =   7.5190185704054E+01
(PID.TID 0000.0001) %MON exf_lwflux_sd                =   4.2783226306764E+01
(PID.TID 0000.0001) %MON exf_lwflux_del2              =   3.2333550558349E+00
(PID.TID 0000.0001) %MON exf_precip_max               =   1.0499318877820E-07
(PID.TID 0000.0001) %MON exf_precip_min               =   2.7305928105298E-10
(PID.TID 0000.0001) %MON exf_precip_mean              =   3.6390037166947E-08
(PID.TID 0000.0001) %MON exf_precip_sd                =   2.0579953834835E-08
(PID.TID 0000.0001) %MON exf_precip_del2              =   2.5572657585019E-09
(PID.TID 0000.0001) %MON exf_snowprecip_max           =   0.0000000000000E+00
(PID.TID 0000.0001) %MON exf_snowprecip_min           =   0.0000000000000E+00
(PID.TID 0000.0001) %MON exf_snowprecip_mean          =   0.0000000000000E+00
(PID.TID 0000.0001) %MON exf_snowprecip_sd            =   0.0000000000000E+00
(PID.TID 0000.0001) %MON exf_snowprecip_del2          =   0.0000000000000E+00
(PID.TID 0000.0001) %MON exf_swflux_max               =  -8.1206886983309E-02
(PID.TID 0000.0001) %MON exf_swflux_min               =  -6.4048595415960E+01
(PID.TID 0000.0001) %MON exf_swflux_mean              =  -2.6495351886448E+01
(PID.TID 0000.0001) %MON exf_swflux_sd                =   1.9641247100083E+01
(PID.TID 0000.0001) %MON exf_swflux_del2              =   4.7944026133668E-01
(PID.TID 0000.0001) %MON exf_evap_max                 =   4.5347204057645E-08
(PID.TID 0000.0001) %MON exf_evap_min                 =  -4.2663929313746E-09
(PID.TID 0000.0001) %MON exf_evap_mean                =   1.0423066800333E-08
(PID.TID 0000.0001) %MON exf_evap_sd                  =   1.1085437688777E-08
(PID.TID 0000.0001) %MON exf_evap_del2                =   1.3323751025433E-09
(PID.TID 0000.0001) %MON exf_swdown_max               =   7.1165106017733E+01
(PID.TID 0000.0001) %MON exf_swdown_min               =   9.0229874425898E-02
(PID.TID 0000.0001) %MON exf_swdown_mean              =   2.9439279873831E+01
(PID.TID 0000.0001) %MON exf_swdown_sd                =   2.1823607888981E+01
(PID.TID 0000.0001) %MON exf_swdown_del2              =   5.3271140148521E-01
(PID.TID 0000.0001) %MON exf_lwdown_max               =   3.0564441368228E+02
(PID.TID 0000.0001) %MON exf_lwdown_min               =   1.1593726459357E+02
(PID.TID 0000.0001) %MON exf_lwdown_mean              =   2.2588648764287E+02
(PID.TID 0000.0001) %MON exf_lwdown_sd                =   4.6293313753333E+01
(PID.TID 0000.0001) %MON exf_lwdown_del2              =   3.2438678569828E+00
(PID.TID 0000.0001) %MON exf_apressure_max            =   0.0000000000000E+00
(PID.TID 0000.0001) %MON exf_apressure_min            =   0.0000000000000E+00
(PID.TID 0000.0001) %MON exf_apressure_mean           =   0.0000000000000E+00
(PID.TID 0000.0001) %MON exf_apressure_sd             =   0.0000000000000E+00
(PID.TID 0000.0001) %MON exf_apressure_del2           =   0.0000000000000E+00
(PID.TID 0000.0001) %MON exf_runoff_max               =   0.0000000000000E+00
(PID.TID 0000.0001) %MON exf_runoff_min               =   0.0000000000000E+00
(PID.TID 0000.0001) %MON exf_runoff_mean              =   0.0000000000000E+00
(PID.TID 0000.0001) %MON exf_runoff_sd                =   0.0000000000000E+00
(PID.TID 0000.0001) %MON exf_runoff_del2              =   0.0000000000000E+00
(PID.TID 0000.0001) %MON exf_climsst_max              =   0.0000000000000E+00
(PID.TID 0000.0001) %MON exf_climsst_min              =   0.0000000000000E+00
(PID.TID 0000.0001) %MON exf_climsst_mean             =   0.0000000000000E+00
(PID.TID 0000.0001) %MON exf_climsst_sd               =   0.0000000000000E+00
(PID.TID 0000.0001) %MON exf_climsst_del2             =   0.0000000000000E+00
(PID.TID 0000.0001) %MON exf_climsss_max              =   3.5041069874998E+01
(PID.TID 0000.0001) %MON exf_climsss_min              =   3.0669350483378E+01
(PID.TID 0000.0001) %MON exf_climsss_mean             =   3.3461404934907E+01
(PID.TID 0000.0001) %MON exf_climsss_sd               =   1.0316695849659E+00
(PID.TID 0000.0001) %MON exf_climsss_del2             =   1.0012504429982E-01
(PID.TID 0000.0001) // =======================================================
(PID.TID 0000.0001) // End MONITOR EXF statistics
(PID.TID 0000.0001) // =======================================================
 ph-ice B  4  0.  0.  0.
 ph-ice C  4  2.5560425E+11
 cg2d: Sum(rhs),rhsMax =   3.22653883819135E-08  1.20538354790390E+00
(PID.TID 0000.0001) // =======================================================
(PID.TID 0000.0001) // Begin MONITOR SEAICE statistics
(PID.TID 0000.0001) // =======================================================
(PID.TID 0000.0001) %MON seaice_tsnumber              =                     5
(PID.TID 0000.0001) %MON seaice_time_sec              =   1.8000000000000E+04
(PID.TID 0000.0001) %MON seaice_uice_max              =   2.1945179796415E-01
(PID.TID 0000.0001) %MON seaice_uice_min              =  -1.0939009902185E-01
(PID.TID 0000.0001) %MON seaice_uice_mean             =   8.3079637449571E-02
(PID.TID 0000.0001) %MON seaice_uice_sd               =   8.3462255696835E-02
(PID.TID 0000.0001) %MON seaice_uice_del2             =   1.0024503258902E-02
(PID.TID 0000.0001) %MON seaice_vice_max              =   1.0086529090478E-01
(PID.TID 0000.0001) %MON seaice_vice_min              =  -1.9808188823576E-01
(PID.TID 0000.0001) %MON seaice_vice_mean             =  -4.6968589790237E-02
(PID.TID 0000.0001) %MON seaice_vice_sd               =   6.7920708405175E-02
(PID.TID 0000.0001) %MON seaice_vice_del2             =   7.5957043818222E-03
(PID.TID 0000.0001) %MON seaice_area_max              =   1.0000000000000E+00
(PID.TID 0000.0001) %MON seaice_area_min              =   0.0000000000000E+00
(PID.TID 0000.0001) %MON seaice_area_mean             =   6.2431544699615E-01
(PID.TID 0000.0001) %MON seaice_area_sd               =   4.5846161002461E-01
(PID.TID 0000.0001) %MON seaice_area_del2             =   5.3605157184815E-02
(PID.TID 0000.0001) %MON seaice_heff_max              =   5.4903937822397E-01
(PID.TID 0000.0001) %MON seaice_heff_min              =   0.0000000000000E+00
(PID.TID 0000.0001) %MON seaice_heff_mean             =   1.4223669590953E-01
(PID.TID 0000.0001) %MON seaice_heff_sd               =   1.7414945919111E-01
(PID.TID 0000.0001) %MON seaice_heff_del2             =   1.3251353076431E-02
(PID.TID 0000.0001) %MON seaice_hsnow_max             =   2.0392476353420E-01
(PID.TID 0000.0001) %MON seaice_hsnow_min             =   0.0000000000000E+00
(PID.TID 0000.0001) %MON seaice_hsnow_mean            =   1.1825099135213E-01
(PID.TID 0000.0001) %MON seaice_hsnow_sd              =   9.7044356048085E-02
(PID.TID 0000.0001) %MON seaice_hsnow_del2            =   6.4762509677519E-03
(PID.TID 0000.0001) // =======================================================
(PID.TID 0000.0001) // End MONITOR SEAICE statistics
(PID.TID 0000.0001) // =======================================================
(PID.TID 0000.0001) // =======================================================
(PID.TID 0000.0001) // Begin MONITOR EXF statistics
(PID.TID 0000.0001) // =======================================================
(PID.TID 0000.0001) %MON exf_tsnumber                 =                     5
(PID.TID 0000.0001) %MON exf_time_sec                 =   1.8000000000000E+04
(PID.TID 0000.0001) %MON exf_ustress_max              =   5.2230884118693E-02
(PID.TID 0000.0001) %MON exf_ustress_min              =  -9.3792692313510E-02
(PID.TID 0000.0001) %MON exf_ustress_mean             =   1.7944938428506E-02
(PID.TID 0000.0001) %MON exf_ustress_sd               =   2.3713962651533E-02
(PID.TID 0000.0001) %MON exf_ustress_del2             =   2.8173058178020E-03
(PID.TID 0000.0001) %MON exf_vstress_max              =   5.3831073859948E-02
(PID.TID 0000.0001) %MON exf_vstress_min              =  -5.8456785541466E-02
(PID.TID 0000.0001) %MON exf_vstress_mean             =  -5.4464521505958E-03
(PID.TID 0000.0001) %MON exf_vstress_sd               =   1.4444944577147E-02
(PID.TID 0000.0001) %MON exf_vstress_del2             =   1.6932730017089E-03
(PID.TID 0000.0001) %MON exf_hflux_max                =   6.2503361232611E+02
(PID.TID 0000.0001) %MON exf_hflux_min                =  -5.1451597193176E+01
(PID.TID 0000.0001) %MON exf_hflux_mean               =   1.4623266238500E+02
(PID.TID 0000.0001) %MON exf_hflux_sd                 =   1.8002327072578E+02
(PID.TID 0000.0001) %MON exf_hflux_del2               =   1.6301019861897E+01
(PID.TID 0000.0001) %MON exf_sflux_max                =   3.9028023656352E-08
(PID.TID 0000.0001) %MON exf_sflux_min                =  -8.8915527496166E-08
(PID.TID 0000.0001) %MON exf_sflux_mean               =  -2.5958886058359E-08
(PID.TID 0000.0001) %MON exf_sflux_sd                 =   3.0357856618859E-08
(PID.TID 0000.0001) %MON exf_sflux_del2               =   3.1625236811755E-09
(PID.TID 0000.0001) %MON exf_uwind_max                =   6.4669118044806E+00
(PID.TID 0000.0001) %MON exf_uwind_min                =  -6.8373719818605E+00
(PID.TID 0000.0001) %MON exf_uwind_mean               =   2.7703104953252E+00
(PID.TID 0000.0001) %MON exf_uwind_sd                 =   2.9914204817202E+00
(PID.TID 0000.0001) %MON exf_uwind_del2               =   3.1574946850541E-01
(PID.TID 0000.0001) %MON exf_vwind_max                =   3.9242191164871E+00
(PID.TID 0000.0001) %MON exf_vwind_min                =  -6.0151738390896E+00
(PID.TID 0000.0001) %MON exf_vwind_mean               =  -7.5780981579906E-01
(PID.TID 0000.0001) %MON exf_vwind_sd                 =   1.7298850990135E+00
(PID.TID 0000.0001) %MON exf_vwind_del2               =   1.9329828211469E-01
(PID.TID 0000.0001) %MON exf_wspeed_max               =   7.8834733013142E+00
(PID.TID 0000.0001) %MON exf_wspeed_min               =   4.5913801314248E-01
(PID.TID 0000.0001) %MON exf_wspeed_mean              =   4.1986352194932E+00
(PID.TID 0000.0001) %MON exf_wspeed_sd                =   1.6004553118739E+00
(PID.TID 0000.0001) %MON exf_wspeed_del2              =   3.7720325813743E-01
(PID.TID 0000.0001) %MON exf_atemp_max                =   2.8187425173567E+02
(PID.TID 0000.0001) %MON exf_atemp_min                =   2.3643944426573E+02
(PID.TID 0000.0001) %MON exf_atemp_mean               =   2.6392283834165E+02
(PID.TID 0000.0001) %MON exf_atemp_sd                 =   1.1990725906317E+01
(PID.TID 0000.0001) %MON exf_atemp_del2               =   6.4952007749419E-01
(PID.TID 0000.0001) %MON exf_aqh_max                  =   6.3196902393613E-03
(PID.TID 0000.0001) %MON exf_aqh_min                  =   1.6322223068205E-04
(PID.TID 0000.0001) %MON exf_aqh_mean                 =   2.4775611281656E-03
(PID.TID 0000.0001) %MON exf_aqh_sd                   =   1.4259923191659E-03
(PID.TID 0000.0001) %MON exf_aqh_del2                 =   6.8073442793907E-05
(PID.TID 0000.0001) %MON exf_lwflux_max               =   1.8156112611884E+02
(PID.TID 0000.0001) %MON exf_lwflux_min               =   2.7075633192252E+01
(PID.TID 0000.0001) %MON exf_lwflux_mean              =   7.5214647809688E+01
(PID.TID 0000.0001) %MON exf_lwflux_sd                =   4.2777638580770E+01
(PID.TID 0000.0001) %MON exf_lwflux_del2              =   3.2323904838965E+00
(PID.TID 0000.0001) %MON exf_precip_max               =   1.0499457022082E-07
(PID.TID 0000.0001) %MON exf_precip_min               =   2.7292535458031E-10
(PID.TID 0000.0001) %MON exf_precip_mean              =   3.6390026322913E-08
(PID.TID 0000.0001) %MON exf_precip_sd                =   2.0580406889746E-08
(PID.TID 0000.0001) %MON exf_precip_del2              =   2.5577934516916E-09
(PID.TID 0000.0001) %MON exf_snowprecip_max           =   0.0000000000000E+00
(PID.TID 0000.0001) %MON exf_snowprecip_min           =   0.0000000000000E+00
(PID.TID 0000.0001) %MON exf_snowprecip_mean          =   0.0000000000000E+00
(PID.TID 0000.0001) %MON exf_snowprecip_sd            =   0.0000000000000E+00
(PID.TID 0000.0001) %MON exf_snowprecip_del2          =   0.0000000000000E+00
(PID.TID 0000.0001) %MON exf_swflux_max               =  -8.1207169861090E-02
(PID.TID 0000.0001) %MON exf_swflux_min               =  -6.4067465766532E+01
(PID.TID 0000.0001) %MON exf_swflux_mean              =  -2.6505884102323E+01
(PID.TID 0000.0001) %MON exf_swflux_sd                =   1.9645085084315E+01
(PID.TID 0000.0001) %MON exf_swflux_del2              =   4.7954713528264E-01
(PID.TID 0000.0001) %MON exf_evap_max                 =   4.5348917925793E-08
(PID.TID 0000.0001) %MON exf_evap_min                 =  -4.2424751089270E-09
(PID.TID 0000.0001) %MON exf_evap_mean                =   1.0431140264554E-08
(PID.TID 0000.0001) %MON exf_evap_sd                  =   1.1081499745153E-08
(PID.TID 0000.0001) %MON exf_evap_del2                =   1.3323467589591E-09
(PID.TID 0000.0001) %MON exf_swdown_max               =   7.1186073073924E+01
(PID.TID 0000.0001) %MON exf_swdown_min               =   9.0230188734544E-02
(PID.TID 0000.0001) %MON exf_swdown_mean              =   2.9450982335914E+01
(PID.TID 0000.0001) %MON exf_swdown_sd                =   2.1827872315905E+01
(PID.TID 0000.0001) %MON exf_swdown_del2              =   5.3283015031405E-01
(PID.TID 0000.0001) %MON exf_lwdown_max               =   3.0563558759846E+02
(PID.TID 0000.0001) %MON exf_lwdown_min               =   1.1592215771493E+02
(PID.TID 0000.0001) %MON exf_lwdown_mean              =   2.2587078031381E+02
(PID.TID 0000.0001) %MON exf_lwdown_sd                =   4.6297287802066E+01
(PID.TID 0000.0001) %MON exf_lwdown_del2              =   3.2438794970556E+00
(PID.TID 0000.0001) %MON exf_apressure_max            =   0.0000000000000E+00
(PID.TID 0000.0001) %MON exf_apressure_min            =   0.0000000000000E+00
(PID.TID 0000.0001) %MON exf_apressure_mean           =   0.0000000000000E+00
(PID.TID 0000.0001) %MON exf_apressure_sd             =   0.0000000000000E+00
(PID.TID 0000.0001) %MON exf_apressure_del2           =   0.0000000000000E+00
(PID.TID 0000.0001) %MON exf_runoff_max               =   0.0000000000000E+00
(PID.TID 0000.0001) %MON exf_runoff_min               =   0.0000000000000E+00
(PID.TID 0000.0001) %MON exf_runoff_mean              =   0.0000000000000E+00
(PID.TID 0000.0001) %MON exf_runoff_sd                =   0.0000000000000E+00
(PID.TID 0000.0001) %MON exf_runoff_del2              =   0.0000000000000E+00
(PID.TID 0000.0001) %MON exf_climsst_max              =   0.0000000000000E+00
(PID.TID 0000.0001) %MON exf_climsst_min              =   0.0000000000000E+00
(PID.TID 0000.0001) %MON exf_climsst_mean             =   0.0000000000000E+00
(PID.TID 0000.0001) %MON exf_climsst_sd               =   0.0000000000000E+00
(PID.TID 0000.0001) %MON exf_climsst_del2             =   0.0000000000000E+00
(PID.TID 0000.0001) %MON exf_climsss_max              =   3.5041254622037E+01
(PID.TID 0000.0001) %MON exf_climsss_min              =   3.0670109811376E+01
(PID.TID 0000.0001) %MON exf_climsss_mean             =   3.3461926268386E+01
(PID.TID 0000.0001) %MON exf_climsss_sd               =   1.0315988331065E+00
(PID.TID 0000.0001) %MON exf_climsss_del2             =   1.0010781500943E-01
(PID.TID 0000.0001) // =======================================================
(PID.TID 0000.0001) // End MONITOR EXF statistics
(PID.TID 0000.0001) // =======================================================
 ph-ice B  5  0.  0.  0.
 ph-ice C  5  3.06281138E+11
 cg2d: Sum(rhs),rhsMax =   3.20071445944481E-08  1.19996685141285E+00
(PID.TID 0000.0001) // =======================================================
(PID.TID 0000.0001) // Begin MONITOR SEAICE statistics
(PID.TID 0000.0001) // =======================================================
(PID.TID 0000.0001) %MON seaice_tsnumber              =                     6
(PID.TID 0000.0001) %MON seaice_time_sec              =   2.1600000000000E+04
(PID.TID 0000.0001) %MON seaice_uice_max              =   2.3992298577057E-01
(PID.TID 0000.0001) %MON seaice_uice_min              =  -1.0534849502401E-01
(PID.TID 0000.0001) %MON seaice_uice_mean             =   8.0980367057692E-02
(PID.TID 0000.0001) %MON seaice_uice_sd               =   8.5693378959244E-02
(PID.TID 0000.0001) %MON seaice_uice_del2             =   1.0079156266965E-02
(PID.TID 0000.0001) %MON seaice_vice_max              =   9.8351447692099E-02
(PID.TID 0000.0001) %MON seaice_vice_min              =  -2.1228924466837E-01
(PID.TID 0000.0001) %MON seaice_vice_mean             =  -5.4937776690349E-02
(PID.TID 0000.0001) %MON seaice_vice_sd               =   7.2061751598876E-02
(PID.TID 0000.0001) %MON seaice_vice_del2             =   8.0226262115656E-03
(PID.TID 0000.0001) %MON seaice_area_max              =   1.0000000000000E+00
(PID.TID 0000.0001) %MON seaice_area_min              =   0.0000000000000E+00
(PID.TID 0000.0001) %MON seaice_area_mean             =   6.2418434391558E-01
(PID.TID 0000.0001) %MON seaice_area_sd               =   4.5807391272905E-01
(PID.TID 0000.0001) %MON seaice_area_del2             =   5.3625910393804E-02
(PID.TID 0000.0001) %MON seaice_heff_max              =   5.4790358803107E-01
(PID.TID 0000.0001) %MON seaice_heff_min              =   0.0000000000000E+00
(PID.TID 0000.0001) %MON seaice_heff_mean             =   1.4225374281650E-01
(PID.TID 0000.0001) %MON seaice_heff_sd               =   1.7422614106860E-01
(PID.TID 0000.0001) %MON seaice_heff_del2             =   1.3241207949921E-02
(PID.TID 0000.0001) %MON seaice_hsnow_max             =   2.0470995401277E-01
(PID.TID 0000.0001) %MON seaice_hsnow_min             =   0.0000000000000E+00
(PID.TID 0000.0001) %MON seaice_hsnow_mean            =   1.1841143348245E-01
(PID.TID 0000.0001) %MON seaice_hsnow_sd              =   9.7165681940267E-02
(PID.TID 0000.0001) %MON seaice_hsnow_del2            =   6.5148328824666E-03
(PID.TID 0000.0001) // =======================================================
(PID.TID 0000.0001) // End MONITOR SEAICE statistics
(PID.TID 0000.0001) // =======================================================
(PID.TID 0000.0001) // =======================================================
(PID.TID 0000.0001) // Begin MONITOR EXF statistics
(PID.TID 0000.0001) // =======================================================
(PID.TID 0000.0001) %MON exf_tsnumber                 =                     6
(PID.TID 0000.0001) %MON exf_time_sec                 =   2.1600000000000E+04
(PID.TID 0000.0001) %MON exf_ustress_max              =   5.2237984461473E-02
(PID.TID 0000.0001) %MON exf_ustress_min              =  -9.3794680426848E-02
(PID.TID 0000.0001) %MON exf_ustress_mean             =   1.7953011398495E-02
(PID.TID 0000.0001) %MON exf_ustress_sd               =   2.3720085657587E-02
(PID.TID 0000.0001) %MON exf_ustress_del2             =   2.8182311542022E-03
(PID.TID 0000.0001) %MON exf_vstress_max              =   5.3832418070366E-02
(PID.TID 0000.0001) %MON exf_vstress_min              =  -5.8451170705355E-02
(PID.TID 0000.0001) %MON exf_vstress_mean             =  -5.4433716598712E-03
(PID.TID 0000.0001) %MON exf_vstress_sd               =   1.4447187053834E-02
(PID.TID 0000.0001) %MON exf_vstress_del2             =   1.6932780678405E-03
(PID.TID 0000.0001) %MON exf_hflux_max                =   6.2507220073353E+02
(PID.TID 0000.0001) %MON exf_hflux_min                =  -5.1351195968959E+01
(PID.TID 0000.0001) %MON exf_hflux_mean               =   1.4630901281855E+02
(PID.TID 0000.0001) %MON exf_hflux_sd                 =   1.8003245126539E+02
(PID.TID 0000.0001) %MON exf_hflux_del2               =   1.6303874409898E+01
(PID.TID 0000.0001) %MON exf_sflux_max                =   3.9026275524071E-08
(PID.TID 0000.0001) %MON exf_sflux_min                =  -8.8868954876171E-08
(PID.TID 0000.0001) %MON exf_sflux_mean               =  -2.5950933688754E-08
(PID.TID 0000.0001) %MON exf_sflux_sd                 =   3.0354685969411E-08
(PID.TID 0000.0001) %MON exf_sflux_del2               =   3.1631207100813E-09
(PID.TID 0000.0001) %MON exf_uwind_max                =   6.4674192569295E+00
(PID.TID 0000.0001) %MON exf_uwind_min                =  -6.8373987635628E+00
(PID.TID 0000.0001) %MON exf_uwind_mean               =   2.7704180476696E+00
(PID.TID 0000.0001) %MON exf_uwind_sd                 =   2.9916966488382E+00
(PID.TID 0000.0001) %MON exf_uwind_del2               =   3.1575737272796E-01
(PID.TID 0000.0001) %MON exf_vwind_max                =   3.9242492972827E+00
(PID.TID 0000.0001) %MON exf_vwind_min                =  -6.0142679292648E+00
(PID.TID 0000.0001) %MON exf_vwind_mean               =  -7.5719204270894E-01
(PID.TID 0000.0001) %MON exf_vwind_sd                 =   1.7299937065642E+00
(PID.TID 0000.0001) %MON exf_vwind_del2               =   1.9329141077275E-01
(PID.TID 0000.0001) %MON exf_wspeed_max               =   7.8835115525503E+00
(PID.TID 0000.0001) %MON exf_wspeed_min               =   4.5889518386928E-01
(PID.TID 0000.0001) %MON exf_wspeed_mean              =   4.1987383082859E+00
(PID.TID 0000.0001) %MON exf_wspeed_sd                =   1.6007122259633E+00
(PID.TID 0000.0001) %MON exf_wspeed_del2              =   3.7725655435875E-01
(PID.TID 0000.0001) %MON exf_atemp_max                =   2.8187253958280E+02
(PID.TID 0000.0001) %MON exf_atemp_min                =   2.3643497929808E+02
(PID.TID 0000.0001) %MON exf_atemp_mean               =   2.6391819425235E+02
(PID.TID 0000.0001) %MON exf_atemp_sd                 =   1.1992188872758E+01
(PID.TID 0000.0001) %MON exf_atemp_del2               =   6.4953940765774E-01
(PID.TID 0000.0001) %MON exf_aqh_max                  =   6.3189936985002E-03
(PID.TID 0000.0001) %MON exf_aqh_min                  =   1.6312812718364E-04
(PID.TID 0000.0001) %MON exf_aqh_mean                 =   2.4770007717611E-03
(PID.TID 0000.0001) %MON exf_aqh_sd                   =   1.4258893952382E-03
(PID.TID 0000.0001) %MON exf_aqh_del2                 =   6.8059775232760E-05
(PID.TID 0000.0001) %MON exf_lwflux_max               =   1.8157457967835E+02
(PID.TID 0000.0001) %MON exf_lwflux_min               =   2.7062314959472E+01
(PID.TID 0000.0001) %MON exf_lwflux_mean              =   7.5238144148163E+01
(PID.TID 0000.0001) %MON exf_lwflux_sd                =   4.2774675295247E+01
(PID.TID 0000.0001) %MON exf_lwflux_del2              =   3.2322365809892E+00
(PID.TID 0000.0001) %MON exf_precip_max               =   1.0499595166344E-07
(PID.TID 0000.0001) %MON exf_precip_min               =   2.7279142810763E-10
(PID.TID 0000.0001) %MON exf_precip_mean              =   3.6390015478879E-08
(PID.TID 0000.0001) %MON exf_precip_sd                =   2.0580860600171E-08
(PID.TID 0000.0001) %MON exf_precip_del2              =   2.5583211448813E-09
(PID.TID 0000.0001) %MON exf_snowprecip_max           =   0.0000000000000E+00
(PID.TID 0000.0001) %MON exf_snowprecip_min           =   0.0000000000000E+00
(PID.TID 0000.0001) %MON exf_snowprecip_mean          =   0.0000000000000E+00
(PID.TID 0000.0001) %MON exf_snowprecip_sd            =   0.0000000000000E+00
(PID.TID 0000.0001) %MON exf_snowprecip_del2          =   0.0000000000000E+00
(PID.TID 0000.0001) %MON exf_swflux_max               =  -8.1207452738871E-02
(PID.TID 0000.0001) %MON exf_swflux_min               =  -6.4086336117103E+01
(PID.TID 0000.0001) %MON exf_swflux_mean              =  -2.6516416318198E+01
(PID.TID 0000.0001) %MON exf_swflux_sd                =   1.9648923659484E+01
(PID.TID 0000.0001) %MON exf_swflux_del2              =   4.7965400922860E-01
(PID.TID 0000.0001) %MON exf_evap_max                 =   4.5346507082581E-08
(PID.TID 0000.0001) %MON exf_evap_min                 =  -4.2210679871068E-09
(PID.TID 0000.0001) %MON exf_evap_mean                =   1.0439081790125E-08
(PID.TID 0000.0001) %MON exf_evap_sd                  =   1.1078855740507E-08
(PID.TID 0000.0001) %MON exf_evap_del2                =   1.3326511999319E-09
(PID.TID 0000.0001) %MON exf_swdown_max               =   7.1207040130115E+01
(PID.TID 0000.0001) %MON exf_swdown_min               =   9.0230503043190E-02
(PID.TID 0000.0001) %MON exf_swdown_mean              =   2.9462684797997E+01
(PID.TID 0000.0001) %MON exf_swdown_sd                =   2.1832137399427E+01
(PID.TID 0000.0001) %MON exf_swdown_del2              =   5.3294889914289E-01
(PID.TID 0000.0001) %MON exf_lwdown_max               =   3.0562676151463E+02
(PID.TID 0000.0001) %MON exf_lwdown_min               =   1.1590705083628E+02
(PID.TID 0000.0001) %MON exf_lwdown_mean              =   2.2585507298474E+02
(PID.TID 0000.0001) %MON exf_lwdown_sd                =   4.6301263017486E+01
(PID.TID 0000.0001) %MON exf_lwdown_del2              =   3.2438911371283E+00
(PID.TID 0000.0001) %MON exf_apressure_max            =   0.0000000000000E+00
(PID.TID 0000.0001) %MON exf_apressure_min            =   0.0000000000000E+00
(PID.TID 0000.0001) %MON exf_apressure_mean           =   0.0000000000000E+00
(PID.TID 0000.0001) %MON exf_apressure_sd             =   0.0000000000000E+00
(PID.TID 0000.0001) %MON exf_apressure_del2           =   0.0000000000000E+00
(PID.TID 0000.0001) %MON exf_runoff_max               =   0.0000000000000E+00
(PID.TID 0000.0001) %MON exf_runoff_min               =   0.0000000000000E+00
(PID.TID 0000.0001) %MON exf_runoff_mean              =   0.0000000000000E+00
(PID.TID 0000.0001) %MON exf_runoff_sd                =   0.0000000000000E+00
(PID.TID 0000.0001) %MON exf_runoff_del2              =   0.0000000000000E+00
(PID.TID 0000.0001) %MON exf_climsst_max              =   0.0000000000000E+00
(PID.TID 0000.0001) %MON exf_climsst_min              =   0.0000000000000E+00
(PID.TID 0000.0001) %MON exf_climsst_mean             =   0.0000000000000E+00
(PID.TID 0000.0001) %MON exf_climsst_sd               =   0.0000000000000E+00
(PID.TID 0000.0001) %MON exf_climsst_del2             =   0.0000000000000E+00
(PID.TID 0000.0001) %MON exf_climsss_max              =   3.5041439369077E+01
(PID.TID 0000.0001) %MON exf_climsss_min              =   3.0670869139374E+01
(PID.TID 0000.0001) %MON exf_climsss_mean             =   3.3462447601866E+01
(PID.TID 0000.0001) %MON exf_climsss_sd               =   1.0315283113566E+00
(PID.TID 0000.0001) %MON exf_climsss_del2             =   1.0009058571904E-01
(PID.TID 0000.0001) // =======================================================
(PID.TID 0000.0001) // End MONITOR EXF statistics
(PID.TID 0000.0001) // =======================================================
 ph-ice B  6  0.  0.  0.
 ph-ice C  6  3.56942652E+11
 cg2d: Sum(rhs),rhsMax =   3.26973964050181E-08  1.19247404930089E+00
(PID.TID 0000.0001) // =======================================================
(PID.TID 0000.0001) // Begin MONITOR SEAICE statistics
(PID.TID 0000.0001) // =======================================================
(PID.TID 0000.0001) %MON seaice_tsnumber              =                     7
(PID.TID 0000.0001) %MON seaice_time_sec              =   2.5200000000000E+04
(PID.TID 0000.0001) %MON seaice_uice_max              =   2.5685051804415E-01
(PID.TID 0000.0001) %MON seaice_uice_min              =  -9.7750591652970E-02
(PID.TID 0000.0001) %MON seaice_uice_mean             =   7.6053531577175E-02
(PID.TID 0000.0001) %MON seaice_uice_sd               =   8.5420308577238E-02
(PID.TID 0000.0001) %MON seaice_uice_del2             =   9.6582587930972E-03
(PID.TID 0000.0001) %MON seaice_vice_max              =   9.3826162131343E-02
(PID.TID 0000.0001) %MON seaice_vice_min              =  -2.2536421121057E-01
(PID.TID 0000.0001) %MON seaice_vice_mean             =  -6.0012644111266E-02
(PID.TID 0000.0001) %MON seaice_vice_sd               =   7.2852673393598E-02
(PID.TID 0000.0001) %MON seaice_vice_del2             =   8.1655031399811E-03
(PID.TID 0000.0001) %MON seaice_area_max              =   1.0000000000000E+00
(PID.TID 0000.0001) %MON seaice_area_min              =   0.0000000000000E+00
(PID.TID 0000.0001) %MON seaice_area_mean             =   6.2409090230354E-01
(PID.TID 0000.0001) %MON seaice_area_sd               =   4.5771851957773E-01
(PID.TID 0000.0001) %MON seaice_area_del2             =   5.3626551642827E-02
(PID.TID 0000.0001) %MON seaice_heff_max              =   5.4815057630782E-01
(PID.TID 0000.0001) %MON seaice_heff_min              =   0.0000000000000E+00
(PID.TID 0000.0001) %MON seaice_heff_mean             =   1.4221058609843E-01
(PID.TID 0000.0001) %MON seaice_heff_sd               =   1.7437186232557E-01
(PID.TID 0000.0001) %MON seaice_heff_del2             =   1.3220294044037E-02
(PID.TID 0000.0001) %MON seaice_hsnow_max             =   2.0549515084231E-01
(PID.TID 0000.0001) %MON seaice_hsnow_min             =   0.0000000000000E+00
(PID.TID 0000.0001) %MON seaice_hsnow_mean            =   1.1857184787352E-01
(PID.TID 0000.0001) %MON seaice_hsnow_sd              =   9.7287286139224E-02
(PID.TID 0000.0001) %MON seaice_hsnow_del2            =   6.5537586331564E-03
(PID.TID 0000.0001) // =======================================================
(PID.TID 0000.0001) // End MONITOR SEAICE statistics
(PID.TID 0000.0001) // =======================================================
(PID.TID 0000.0001) // =======================================================
(PID.TID 0000.0001) // Begin MONITOR EXF statistics
(PID.TID 0000.0001) // =======================================================
(PID.TID 0000.0001) %MON exf_tsnumber                 =                     7
(PID.TID 0000.0001) %MON exf_time_sec                 =   2.5200000000000E+04
(PID.TID 0000.0001) %MON exf_ustress_max              =   5.2243932828224E-02
(PID.TID 0000.0001) %MON exf_ustress_min              =  -9.3796695311298E-02
(PID.TID 0000.0001) %MON exf_ustress_mean             =   1.7960117511389E-02
(PID.TID 0000.0001) %MON exf_ustress_sd               =   2.3726165963938E-02
(PID.TID 0000.0001) %MON exf_ustress_del2             =   2.8191133796932E-03
(PID.TID 0000.0001) %MON exf_vstress_max              =   5.3833777652846E-02
(PID.TID 0000.0001) %MON exf_vstress_min              =  -5.8440994827039E-02
(PID.TID 0000.0001) %MON exf_vstress_mean             =  -5.4400613263802E-03
(PID.TID 0000.0001) %MON exf_vstress_sd               =   1.4449140004193E-02
(PID.TID 0000.0001) %MON exf_vstress_del2             =   1.6932580573909E-03
(PID.TID 0000.0001) %MON exf_hflux_max                =   6.2511249114696E+02
(PID.TID 0000.0001) %MON exf_hflux_min                =  -5.1292185754158E+01
(PID.TID 0000.0001) %MON exf_hflux_mean               =   1.4638075269828E+02
(PID.TID 0000.0001) %MON exf_hflux_sd                 =   1.8004877613045E+02
(PID.TID 0000.0001) %MON exf_hflux_del2               =   1.6307670357620E+01
(PID.TID 0000.0001) %MON exf_sflux_max                =   3.9024744508964E-08
(PID.TID 0000.0001) %MON exf_sflux_min                =  -8.8844029732362E-08
(PID.TID 0000.0001) %MON exf_sflux_mean               =  -2.5943641672069E-08
(PID.TID 0000.0001) %MON exf_sflux_sd                 =   3.0352932495353E-08
(PID.TID 0000.0001) %MON exf_sflux_del2               =   3.1638746800682E-09
(PID.TID 0000.0001) %MON exf_uwind_max                =   6.4679267093784E+00
(PID.TID 0000.0001) %MON exf_uwind_min                =  -6.8374255452651E+00
(PID.TID 0000.0001) %MON exf_uwind_mean               =   2.7705256000140E+00
(PID.TID 0000.0001) %MON exf_uwind_sd                 =   2.9919728561678E+00
(PID.TID 0000.0001) %MON exf_uwind_del2               =   3.1576527695052E-01
(PID.TID 0000.0001) %MON exf_vwind_max                =   3.9242794780783E+00
(PID.TID 0000.0001) %MON exf_vwind_min                =  -6.0133620194399E+00
(PID.TID 0000.0001) %MON exf_vwind_mean               =  -7.5657426961883E-01
(PID.TID 0000.0001) %MON exf_vwind_sd                 =   1.7301024272674E+00
(PID.TID 0000.0001) %MON exf_vwind_del2               =   1.9328456693798E-01
(PID.TID 0000.0001) %MON exf_wspeed_max               =   7.8835498038073E+00
(PID.TID 0000.0001) %MON exf_wspeed_min               =   4.5865235699732E-01
(PID.TID 0000.0001) %MON exf_wspeed_mean              =   4.1988415259832E+00
(PID.TID 0000.0001) %MON exf_wspeed_sd                =   1.6009692521540E+00
(PID.TID 0000.0001) %MON exf_wspeed_del2              =   3.7730984410389E-01
(PID.TID 0000.0001) %MON exf_atemp_max                =   2.8187082742993E+02
(PID.TID 0000.0001) %MON exf_atemp_min                =   2.3643051433042E+02
(PID.TID 0000.0001) %MON exf_atemp_mean               =   2.6391355016305E+02
(PID.TID 0000.0001) %MON exf_atemp_sd                 =   1.1993652326118E+01
(PID.TID 0000.0001) %MON exf_atemp_del2               =   6.4955873782129E-01
(PID.TID 0000.0001) %MON exf_aqh_max                  =   6.3182971576392E-03
(PID.TID 0000.0001) %MON exf_aqh_min                  =   1.6303402368524E-04
(PID.TID 0000.0001) %MON exf_aqh_mean                 =   2.4764404153565E-03
(PID.TID 0000.0001) %MON exf_aqh_sd                   =   1.4257865072101E-03
(PID.TID 0000.0001) %MON exf_aqh_del2                 =   6.8046107671613E-05
(PID.TID 0000.0001) %MON exf_lwflux_max               =   1.8159055041576E+02
(PID.TID 0000.0001) %MON exf_lwflux_min               =   2.7054913512319E+01
(PID.TID 0000.0001) %MON exf_lwflux_mean              =   7.5259528289585E+01
(PID.TID 0000.0001) %MON exf_lwflux_sd                =   4.2774134878516E+01
(PID.TID 0000.0001) %MON exf_lwflux_del2              =   3.2322910668020E+00
(PID.TID 0000.0001) %MON exf_precip_max               =   1.0499733310606E-07
(PID.TID 0000.0001) %MON exf_precip_min               =   2.7265750163496E-10
(PID.TID 0000.0001) %MON exf_precip_mean              =   3.6390004634845E-08
(PID.TID 0000.0001) %MON exf_precip_sd                =   2.0581314966068E-08
(PID.TID 0000.0001) %MON exf_precip_del2              =   2.5588488380710E-09
(PID.TID 0000.0001) %MON exf_snowprecip_max           =   0.0000000000000E+00
(PID.TID 0000.0001) %MON exf_snowprecip_min           =   0.0000000000000E+00
(PID.TID 0000.0001) %MON exf_snowprecip_mean          =   0.0000000000000E+00
(PID.TID 0000.0001) %MON exf_snowprecip_sd            =   0.0000000000000E+00
(PID.TID 0000.0001) %MON exf_snowprecip_del2          =   0.0000000000000E+00
(PID.TID 0000.0001) %MON exf_swflux_max               =  -8.1207735616653E-02
(PID.TID 0000.0001) %MON exf_swflux_min               =  -6.4105206467675E+01
(PID.TID 0000.0001) %MON exf_swflux_mean              =  -2.6526948534072E+01
(PID.TID 0000.0001) %MON exf_swflux_sd                =   1.9652762825246E+01
(PID.TID 0000.0001) %MON exf_swflux_del2              =   4.7976088317456E-01
(PID.TID 0000.0001) %MON exf_evap_max                 =   4.5344313356544E-08
(PID.TID 0000.0001) %MON exf_evap_min                 =  -4.2074591981136E-09
(PID.TID 0000.0001) %MON exf_evap_mean                =   1.0446362962776E-08
(PID.TID 0000.0001) %MON exf_evap_sd                  =   1.1077267538569E-08
(PID.TID 0000.0001) %MON exf_evap_del2                =   1.3331785443453E-09
(PID.TID 0000.0001) %MON exf_swdown_max               =   7.1228007186306E+01
(PID.TID 0000.0001) %MON exf_swdown_min               =   9.0230817351836E-02
(PID.TID 0000.0001) %MON exf_swdown_mean              =   2.9474387260081E+01
(PID.TID 0000.0001) %MON exf_swdown_sd                =   2.1836403139162E+01
(PID.TID 0000.0001) %MON exf_swdown_del2              =   5.3306764797174E-01
(PID.TID 0000.0001) %MON exf_lwdown_max               =   3.0561793543081E+02
(PID.TID 0000.0001) %MON exf_lwdown_min               =   1.1589194395764E+02
(PID.TID 0000.0001) %MON exf_lwdown_mean              =   2.2583936565568E+02
(PID.TID 0000.0001) %MON exf_lwdown_sd                =   4.6305239399294E+01
(PID.TID 0000.0001) %MON exf_lwdown_del2              =   3.2439027772011E+00
(PID.TID 0000.0001) %MON exf_apressure_max            =   0.0000000000000E+00
(PID.TID 0000.0001) %MON exf_apressure_min            =   0.0000000000000E+00
(PID.TID 0000.0001) %MON exf_apressure_mean           =   0.0000000000000E+00
(PID.TID 0000.0001) %MON exf_apressure_sd             =   0.0000000000000E+00
(PID.TID 0000.0001) %MON exf_apressure_del2           =   0.0000000000000E+00
(PID.TID 0000.0001) %MON exf_runoff_max               =   0.0000000000000E+00
(PID.TID 0000.0001) %MON exf_runoff_min               =   0.0000000000000E+00
(PID.TID 0000.0001) %MON exf_runoff_mean              =   0.0000000000000E+00
(PID.TID 0000.0001) %MON exf_runoff_sd                =   0.0000000000000E+00
(PID.TID 0000.0001) %MON exf_runoff_del2              =   0.0000000000000E+00
(PID.TID 0000.0001) %MON exf_climsst_max              =   0.0000000000000E+00
(PID.TID 0000.0001) %MON exf_climsst_min              =   0.0000000000000E+00
(PID.TID 0000.0001) %MON exf_climsst_mean             =   0.0000000000000E+00
(PID.TID 0000.0001) %MON exf_climsst_sd               =   0.0000000000000E+00
(PID.TID 0000.0001) %MON exf_climsst_del2             =   0.0000000000000E+00
(PID.TID 0000.0001) %MON exf_climsss_max              =   3.5041624116116E+01
(PID.TID 0000.0001) %MON exf_climsss_min              =   3.0671628467372E+01
(PID.TID 0000.0001) %MON exf_climsss_mean             =   3.3462968935345E+01
(PID.TID 0000.0001) %MON exf_climsss_sd               =   1.0314580197633E+00
(PID.TID 0000.0001) %MON exf_climsss_del2             =   1.0007335642865E-01
(PID.TID 0000.0001) // =======================================================
(PID.TID 0000.0001) // End MONITOR EXF statistics
(PID.TID 0000.0001) // =======================================================
 ph-ice B  7  0.  0.  0.
 ph-ice C  7  4.07568174E+11
 cg2d: Sum(rhs),rhsMax =   3.08542742744056E-08  1.18167618004890E+00
(PID.TID 0000.0001) // =======================================================
(PID.TID 0000.0001) // Begin MONITOR SEAICE statistics
(PID.TID 0000.0001) // =======================================================
(PID.TID 0000.0001) %MON seaice_tsnumber              =                     8
(PID.TID 0000.0001) %MON seaice_time_sec              =   2.8800000000000E+04
(PID.TID 0000.0001) %MON seaice_uice_max              =   2.6753108171747E-01
(PID.TID 0000.0001) %MON seaice_uice_min              =  -8.8502450659219E-02
(PID.TID 0000.0001) %MON seaice_uice_mean             =   6.9614512262950E-02
(PID.TID 0000.0001) %MON seaice_uice_sd               =   8.3092127489898E-02
(PID.TID 0000.0001) %MON seaice_uice_del2             =   8.8606303218580E-03
(PID.TID 0000.0001) %MON seaice_vice_max              =   8.6568020980345E-02
(PID.TID 0000.0001) %MON seaice_vice_min              =  -2.2434575615813E-01
(PID.TID 0000.0001) %MON seaice_vice_mean             =  -6.1224081095508E-02
(PID.TID 0000.0001) %MON seaice_vice_sd               =   7.0132142868121E-02
(PID.TID 0000.0001) %MON seaice_vice_del2             =   8.0004823057246E-03
(PID.TID 0000.0001) %MON seaice_area_max              =   1.0000000000000E+00
(PID.TID 0000.0001) %MON seaice_area_min              =   0.0000000000000E+00
(PID.TID 0000.0001) %MON seaice_area_mean             =   6.2403057788857E-01
(PID.TID 0000.0001) %MON seaice_area_sd               =   4.5740125369898E-01
(PID.TID 0000.0001) %MON seaice_area_del2             =   5.3615320672513E-02
(PID.TID 0000.0001) %MON seaice_heff_max              =   5.4845941033802E-01
(PID.TID 0000.0001) %MON seaice_heff_min              =   0.0000000000000E+00
(PID.TID 0000.0001) %MON seaice_heff_mean             =   1.4210955568778E-01
(PID.TID 0000.0001) %MON seaice_heff_sd               =   1.7454203006604E-01
(PID.TID 0000.0001) %MON seaice_heff_del2             =   1.3200140831549E-02
(PID.TID 0000.0001) %MON seaice_hsnow_max             =   2.0628031960972E-01
(PID.TID 0000.0001) %MON seaice_hsnow_min             =   0.0000000000000E+00
(PID.TID 0000.0001) %MON seaice_hsnow_mean            =   1.1873224113829E-01
(PID.TID 0000.0001) %MON seaice_hsnow_sd              =   9.7409172572389E-02
(PID.TID 0000.0001) %MON seaice_hsnow_del2            =   6.5932180737734E-03
(PID.TID 0000.0001) // =======================================================
(PID.TID 0000.0001) // End MONITOR SEAICE statistics
(PID.TID 0000.0001) // =======================================================
(PID.TID 0000.0001) // =======================================================
(PID.TID 0000.0001) // Begin MONITOR EXF statistics
(PID.TID 0000.0001) // =======================================================
(PID.TID 0000.0001) %MON exf_tsnumber                 =                     8
(PID.TID 0000.0001) %MON exf_time_sec                 =   2.8800000000000E+04
(PID.TID 0000.0001) %MON exf_ustress_max              =   5.2249214888467E-02
(PID.TID 0000.0001) %MON exf_ustress_min              =  -9.3798929022994E-02
(PID.TID 0000.0001) %MON exf_ustress_mean             =   1.7966527341286E-02
(PID.TID 0000.0001) %MON exf_ustress_sd               =   2.3731955876526E-02
(PID.TID 0000.0001) %MON exf_ustress_del2             =   2.8199338255484E-03
(PID.TID 0000.0001) %MON exf_vstress_max              =   5.3835262836886E-02
(PID.TID 0000.0001) %MON exf_vstress_min              =  -5.8423863266075E-02
(PID.TID 0000.0001) %MON exf_vstress_mean             =  -5.4366084944795E-03
(PID.TID 0000.0001) %MON exf_vstress_sd               =   1.4450709418259E-02
(PID.TID 0000.0001) %MON exf_vstress_del2             =   1.6932446323046E-03
(PID.TID 0000.0001) %MON exf_hflux_max                =   6.2516667572182E+02
(PID.TID 0000.0001) %MON exf_hflux_min                =  -5.1290002876314E+01
(PID.TID 0000.0001) %MON exf_hflux_mean               =   1.4644502236786E+02
(PID.TID 0000.0001) %MON exf_hflux_sd                 =   1.8007066124215E+02
(PID.TID 0000.0001) %MON exf_hflux_del2               =   1.6310936573446E+01
(PID.TID 0000.0001) %MON exf_sflux_max                =   3.9024984842777E-08
(PID.TID 0000.0001) %MON exf_sflux_min                =  -8.8852274093053E-08
(PID.TID 0000.0001) %MON exf_sflux_mean               =  -2.5937363009091E-08
(PID.TID 0000.0001) %MON exf_sflux_sd                 =   3.0352645612823E-08
(PID.TID 0000.0001) %MON exf_sflux_del2               =   3.1646051233402E-09
(PID.TID 0000.0001) %MON exf_uwind_max                =   6.4684341618272E+00
(PID.TID 0000.0001) %MON exf_uwind_min                =  -6.8374523269674E+00
(PID.TID 0000.0001) %MON exf_uwind_mean               =   2.7706331523584E+00
(PID.TID 0000.0001) %MON exf_uwind_sd                 =   2.9922491036980E+00
(PID.TID 0000.0001) %MON exf_uwind_del2               =   3.1577589455021E-01
(PID.TID 0000.0001) %MON exf_vwind_max                =   3.9243096588739E+00
(PID.TID 0000.0001) %MON exf_vwind_min                =  -6.0124561096150E+00
(PID.TID 0000.0001) %MON exf_vwind_mean               =  -7.5595649652871E-01
(PID.TID 0000.0001) %MON exf_vwind_sd                 =   1.7302112611019E+00
(PID.TID 0000.0001) %MON exf_vwind_del2               =   1.9327792057372E-01
(PID.TID 0000.0001) %MON exf_wspeed_max               =   7.8835880550853E+00
(PID.TID 0000.0001) %MON exf_wspeed_min               =   4.5840953253040E-01
(PID.TID 0000.0001) %MON exf_wspeed_mean              =   4.1989448725728E+00
(PID.TID 0000.0001) %MON exf_wspeed_sd                =   1.6012263903992E+00
(PID.TID 0000.0001) %MON exf_wspeed_del2              =   3.7736312737620E-01
(PID.TID 0000.0001) %MON exf_atemp_max                =   2.8186911527707E+02
(PID.TID 0000.0001) %MON exf_atemp_min                =   2.3642604936277E+02
(PID.TID 0000.0001) %MON exf_atemp_mean               =   2.6390890607375E+02
(PID.TID 0000.0001) %MON exf_atemp_sd                 =   1.1995116266220E+01
(PID.TID 0000.0001) %MON exf_atemp_del2               =   6.4957806798485E-01
(PID.TID 0000.0001) %MON exf_aqh_max                  =   6.3176006167781E-03
(PID.TID 0000.0001) %MON exf_aqh_min                  =   1.6293992018683E-04
(PID.TID 0000.0001) %MON exf_aqh_mean                 =   2.4758800589519E-03
(PID.TID 0000.0001) %MON exf_aqh_sd                   =   1.4256836550895E-03
(PID.TID 0000.0001) %MON exf_aqh_del2                 =   6.8032440110466E-05
(PID.TID 0000.0001) %MON exf_lwflux_max               =   1.8160657786508E+02
(PID.TID 0000.0001) %MON exf_lwflux_min               =   2.7042774513284E+01
(PID.TID 0000.0001) %MON exf_lwflux_mean              =   7.5278622644416E+01
(PID.TID 0000.0001) %MON exf_lwflux_sd                =   4.2775425219960E+01
(PID.TID 0000.0001) %MON exf_lwflux_del2              =   3.2322552723009E+00
(PID.TID 0000.0001) %MON exf_precip_max               =   1.0499871454869E-07
(PID.TID 0000.0001) %MON exf_precip_min               =   2.7252357516229E-10
(PID.TID 0000.0001) %MON exf_precip_mean              =   3.6389993790810E-08
(PID.TID 0000.0001) %MON exf_precip_sd                =   2.0581769987393E-08
(PID.TID 0000.0001) %MON exf_precip_del2              =   2.5593765312607E-09
(PID.TID 0000.0001) %MON exf_snowprecip_max           =   0.0000000000000E+00
(PID.TID 0000.0001) %MON exf_snowprecip_min           =   0.0000000000000E+00
(PID.TID 0000.0001) %MON exf_snowprecip_mean          =   0.0000000000000E+00
(PID.TID 0000.0001) %MON exf_snowprecip_sd            =   0.0000000000000E+00
(PID.TID 0000.0001) %MON exf_snowprecip_del2          =   0.0000000000000E+00
(PID.TID 0000.0001) %MON exf_swflux_max               =  -8.1208018494434E-02
(PID.TID 0000.0001) %MON exf_swflux_min               =  -6.4124076818247E+01
(PID.TID 0000.0001) %MON exf_swflux_mean              =  -2.6537480749947E+01
(PID.TID 0000.0001) %MON exf_swflux_sd                =   1.9656602581253E+01
(PID.TID 0000.0001) %MON exf_swflux_del2              =   4.7986775712052E-01
(PID.TID 0000.0001) %MON exf_evap_max                 =   4.5343890979426E-08
(PID.TID 0000.0001) %MON exf_evap_min                 =  -4.2045644596024E-09
(PID.TID 0000.0001) %MON exf_evap_mean                =   1.0452630781719E-08
(PID.TID 0000.0001) %MON exf_evap_sd                  =   1.1076425512733E-08
(PID.TID 0000.0001) %MON exf_evap_del2                =   1.3336005233121E-09
(PID.TID 0000.0001) %MON exf_swdown_max               =   7.1248974242497E+01
(PID.TID 0000.0001) %MON exf_swdown_min               =   9.0231131660482E-02
(PID.TID 0000.0001) %MON exf_swdown_mean              =   2.9486089722164E+01
(PID.TID 0000.0001) %MON exf_swdown_sd                =   2.1840669534725E+01
(PID.TID 0000.0001) %MON exf_swdown_del2              =   5.3318639680058E-01
(PID.TID 0000.0001) %MON exf_lwdown_max               =   3.0560910934698E+02
(PID.TID 0000.0001) %MON exf_lwdown_min               =   1.1587683707899E+02
(PID.TID 0000.0001) %MON exf_lwdown_mean              =   2.2582365832661E+02
(PID.TID 0000.0001) %MON exf_lwdown_sd                =   4.6309216947189E+01
(PID.TID 0000.0001) %MON exf_lwdown_del2              =   3.2439144172738E+00
(PID.TID 0000.0001) %MON exf_apressure_max            =   0.0000000000000E+00
(PID.TID 0000.0001) %MON exf_apressure_min            =   0.0000000000000E+00
(PID.TID 0000.0001) %MON exf_apressure_mean           =   0.0000000000000E+00
(PID.TID 0000.0001) %MON exf_apressure_sd             =   0.0000000000000E+00
(PID.TID 0000.0001) %MON exf_apressure_del2           =   0.0000000000000E+00
(PID.TID 0000.0001) %MON exf_runoff_max               =   0.0000000000000E+00
(PID.TID 0000.0001) %MON exf_runoff_min               =   0.0000000000000E+00
(PID.TID 0000.0001) %MON exf_runoff_mean              =   0.0000000000000E+00
(PID.TID 0000.0001) %MON exf_runoff_sd                =   0.0000000000000E+00
(PID.TID 0000.0001) %MON exf_runoff_del2              =   0.0000000000000E+00
(PID.TID 0000.0001) %MON exf_climsst_max              =   0.0000000000000E+00
(PID.TID 0000.0001) %MON exf_climsst_min              =   0.0000000000000E+00
(PID.TID 0000.0001) %MON exf_climsst_mean             =   0.0000000000000E+00
(PID.TID 0000.0001) %MON exf_climsst_sd               =   0.0000000000000E+00
(PID.TID 0000.0001) %MON exf_climsst_del2             =   0.0000000000000E+00
(PID.TID 0000.0001) %MON exf_climsss_max              =   3.5041808863155E+01
(PID.TID 0000.0001) %MON exf_climsss_min              =   3.0672387795370E+01
(PID.TID 0000.0001) %MON exf_climsss_mean             =   3.3463490268825E+01
(PID.TID 0000.0001) %MON exf_climsss_sd               =   1.0313879583737E+00
(PID.TID 0000.0001) %MON exf_climsss_del2             =   1.0005612713826E-01
(PID.TID 0000.0001) // =======================================================
(PID.TID 0000.0001) // End MONITOR EXF statistics
(PID.TID 0000.0001) // =======================================================
 ph-ice B  8  0.  0.  0.
 ph-ice C  8  4.5814477E+11
 cg2d: Sum(rhs),rhsMax =   2.95454838927789E-08  1.16732752240152E+00
(PID.TID 0000.0001) // =======================================================
(PID.TID 0000.0001) // Begin MONITOR SEAICE statistics
(PID.TID 0000.0001) // =======================================================
(PID.TID 0000.0001) %MON seaice_tsnumber              =                     9
(PID.TID 0000.0001) %MON seaice_time_sec              =   3.2400000000000E+04
(PID.TID 0000.0001) %MON seaice_uice_max              =   2.6897091972547E-01
(PID.TID 0000.0001) %MON seaice_uice_min              =  -8.0042763870661E-02
(PID.TID 0000.0001) %MON seaice_uice_mean             =   6.2854160497795E-02
(PID.TID 0000.0001) %MON seaice_uice_sd               =   7.9024050789396E-02
(PID.TID 0000.0001) %MON seaice_uice_del2             =   7.8428337381730E-03
(PID.TID 0000.0001) %MON seaice_vice_max              =   7.8808437350958E-02
(PID.TID 0000.0001) %MON seaice_vice_min              =  -2.0876035903713E-01
(PID.TID 0000.0001) %MON seaice_vice_mean             =  -5.8596271149848E-02
(PID.TID 0000.0001) %MON seaice_vice_sd               =   6.4348722876766E-02
(PID.TID 0000.0001) %MON seaice_vice_del2             =   7.5770653046252E-03
(PID.TID 0000.0001) %MON seaice_area_max              =   1.0000000000000E+00
(PID.TID 0000.0001) %MON seaice_area_min              =   0.0000000000000E+00
(PID.TID 0000.0001) %MON seaice_area_mean             =   6.2385397854463E-01
(PID.TID 0000.0001) %MON seaice_area_sd               =   4.5701427319582E-01
(PID.TID 0000.0001) %MON seaice_area_del2             =   5.3472248498649E-02
(PID.TID 0000.0001) %MON seaice_heff_max              =   5.4880172475155E-01
(PID.TID 0000.0001) %MON seaice_heff_min              =   0.0000000000000E+00
(PID.TID 0000.0001) %MON seaice_heff_mean             =   1.4197221546689E-01
(PID.TID 0000.0001) %MON seaice_heff_sd               =   1.7470067653879E-01
(PID.TID 0000.0001) %MON seaice_heff_del2             =   1.3179543823438E-02
(PID.TID 0000.0001) %MON seaice_hsnow_max             =   2.0706544703532E-01
(PID.TID 0000.0001) %MON seaice_hsnow_min             =   0.0000000000000E+00
(PID.TID 0000.0001) %MON seaice_hsnow_mean            =   1.1888097060839E-01
(PID.TID 0000.0001) %MON seaice_hsnow_sd              =   9.7521343116165E-02
(PID.TID 0000.0001) %MON seaice_hsnow_del2            =   6.6252285550663E-03
(PID.TID 0000.0001) // =======================================================
(PID.TID 0000.0001) // End MONITOR SEAICE statistics
(PID.TID 0000.0001) // =======================================================
(PID.TID 0000.0001) // =======================================================
(PID.TID 0000.0001) // Begin MONITOR EXF statistics
(PID.TID 0000.0001) // =======================================================
(PID.TID 0000.0001) %MON exf_tsnumber                 =                     9
(PID.TID 0000.0001) %MON exf_time_sec                 =   3.2400000000000E+04
(PID.TID 0000.0001) %MON exf_ustress_max              =   5.2253931434036E-02
(PID.TID 0000.0001) %MON exf_ustress_min              =  -9.3801402378874E-02
(PID.TID 0000.0001) %MON exf_ustress_mean             =   1.7972507237956E-02
(PID.TID 0000.0001) %MON exf_ustress_sd               =   2.3737459165023E-02
(PID.TID 0000.0001) %MON exf_ustress_del2             =   2.8207098484201E-03
(PID.TID 0000.0001) %MON exf_vstress_max              =   5.3836885571692E-02
(PID.TID 0000.0001) %MON exf_vstress_min              =  -5.8402245593215E-02
(PID.TID 0000.0001) %MON exf_vstress_mean             =  -5.4330625286823E-03
(PID.TID 0000.0001) %MON exf_vstress_sd               =   1.4451995747006E-02
(PID.TID 0000.0001) %MON exf_vstress_del2             =   1.6932503084832E-03
(PID.TID 0000.0001) %MON exf_hflux_max                =   6.2523607822218E+02
(PID.TID 0000.0001) %MON exf_hflux_min                =  -5.1341823607267E+01
(PID.TID 0000.0001) %MON exf_hflux_mean               =   1.4650273871617E+02
(PID.TID 0000.0001) %MON exf_hflux_sd                 =   1.8009640350783E+02
(PID.TID 0000.0001) %MON exf_hflux_del2               =   1.6313488565693E+01
(PID.TID 0000.0001) %MON exf_sflux_max                =   3.9027165065205E-08
(PID.TID 0000.0001) %MON exf_sflux_min                =  -8.8881915888979E-08
(PID.TID 0000.0001) %MON exf_sflux_mean               =  -2.5931961582049E-08
(PID.TID 0000.0001) %MON exf_sflux_sd                 =   3.0353380685415E-08
(PID.TID 0000.0001) %MON exf_sflux_del2               =   3.1652707324990E-09
(PID.TID 0000.0001) %MON exf_uwind_max                =   6.4689416142761E+00
(PID.TID 0000.0001) %MON exf_uwind_min                =  -6.8374791086697E+00
(PID.TID 0000.0001) %MON exf_uwind_mean               =   2.7707407047028E+00
(PID.TID 0000.0001) %MON exf_uwind_sd                 =   2.9925253914175E+00
(PID.TID 0000.0001) %MON exf_uwind_del2               =   3.1578823099586E-01
(PID.TID 0000.0001) %MON exf_vwind_max                =   3.9243398396695E+00
(PID.TID 0000.0001) %MON exf_vwind_min                =  -6.0115501997901E+00
(PID.TID 0000.0001) %MON exf_vwind_mean               =  -7.5533872343860E-01
(PID.TID 0000.0001) %MON exf_vwind_sd                 =   1.7303202080462E+00
(PID.TID 0000.0001) %MON exf_vwind_del2               =   1.9327127420947E-01
(PID.TID 0000.0001) %MON exf_wspeed_max               =   7.8836263063842E+00
(PID.TID 0000.0001) %MON exf_wspeed_min               =   4.5816671047235E-01
(PID.TID 0000.0001) %MON exf_wspeed_mean              =   4.1990483480424E+00
(PID.TID 0000.0001) %MON exf_wspeed_sd                =   1.6014836406520E+00
(PID.TID 0000.0001) %MON exf_wspeed_del2              =   3.7741640417905E-01
(PID.TID 0000.0001) %MON exf_atemp_max                =   2.8186740312420E+02
(PID.TID 0000.0001) %MON exf_atemp_min                =   2.3642158439511E+02
(PID.TID 0000.0001) %MON exf_atemp_mean               =   2.6390426198445E+02
(PID.TID 0000.0001) %MON exf_atemp_sd                 =   1.1996580692884E+01
(PID.TID 0000.0001) %MON exf_atemp_del2               =   6.4959739814840E-01
(PID.TID 0000.0001) %MON exf_aqh_max                  =   6.3169040759170E-03
(PID.TID 0000.0001) %MON exf_aqh_min                  =   1.6284581668843E-04
(PID.TID 0000.0001) %MON exf_aqh_mean                 =   2.4753197025473E-03
(PID.TID 0000.0001) %MON exf_aqh_sd                   =   1.4255808388841E-03
(PID.TID 0000.0001) %MON exf_aqh_del2                 =   6.8018772549319E-05
(PID.TID 0000.0001) %MON exf_lwflux_max               =   1.8162256097058E+02
(PID.TID 0000.0001) %MON exf_lwflux_min               =   2.7024548243163E+01
(PID.TID 0000.0001) %MON exf_lwflux_mean              =   7.5295950550247E+01
(PID.TID 0000.0001) %MON exf_lwflux_sd                =   4.2777931827667E+01
(PID.TID 0000.0001) %MON exf_lwflux_del2              =   3.2320835004226E+00
(PID.TID 0000.0001) %MON exf_precip_max               =   1.0500009599131E-07
(PID.TID 0000.0001) %MON exf_precip_min               =   2.7238964868961E-10
(PID.TID 0000.0001) %MON exf_precip_mean              =   3.6389982946776E-08
(PID.TID 0000.0001) %MON exf_precip_sd                =   2.0582225664103E-08
(PID.TID 0000.0001) %MON exf_precip_del2              =   2.5599042244504E-09
(PID.TID 0000.0001) %MON exf_snowprecip_max           =   0.0000000000000E+00
(PID.TID 0000.0001) %MON exf_snowprecip_min           =   0.0000000000000E+00
(PID.TID 0000.0001) %MON exf_snowprecip_mean          =   0.0000000000000E+00
(PID.TID 0000.0001) %MON exf_snowprecip_sd            =   0.0000000000000E+00
(PID.TID 0000.0001) %MON exf_snowprecip_del2          =   0.0000000000000E+00
(PID.TID 0000.0001) %MON exf_swflux_max               =  -8.1208301372215E-02
(PID.TID 0000.0001) %MON exf_swflux_min               =  -6.4142947168819E+01
(PID.TID 0000.0001) %MON exf_swflux_mean              =  -2.6548012965822E+01
(PID.TID 0000.0001) %MON exf_swflux_sd                =   1.9660442927159E+01
(PID.TID 0000.0001) %MON exf_swflux_del2              =   4.7997463106648E-01
(PID.TID 0000.0001) %MON exf_evap_max                 =   4.5345408490924E-08
(PID.TID 0000.0001) %MON exf_evap_min                 =  -4.2118520663052E-09
(PID.TID 0000.0001) %MON exf_evap_mean                =   1.0458021364727E-08
(PID.TID 0000.0001) %MON exf_evap_sd                  =   1.1076057847329E-08
(PID.TID 0000.0001) %MON exf_evap_del2                =   1.3338824673871E-09
(PID.TID 0000.0001) %MON exf_swdown_max               =   7.1269941298688E+01
(PID.TID 0000.0001) %MON exf_swdown_min               =   9.0231445969128E-02
(PID.TID 0000.0001) %MON exf_swdown_mean              =   2.9497792184247E+01
(PID.TID 0000.0001) %MON exf_swdown_sd                =   2.1844936585733E+01
(PID.TID 0000.0001) %MON exf_swdown_del2              =   5.3330514562942E-01
(PID.TID 0000.0001) %MON exf_lwdown_max               =   3.0560028326316E+02
(PID.TID 0000.0001) %MON exf_lwdown_min               =   1.1586173020035E+02
(PID.TID 0000.0001) %MON exf_lwdown_mean              =   2.2580795099755E+02
(PID.TID 0000.0001) %MON exf_lwdown_sd                =   4.6313195660870E+01
(PID.TID 0000.0001) %MON exf_lwdown_del2              =   3.2439260573465E+00
(PID.TID 0000.0001) %MON exf_apressure_max            =   0.0000000000000E+00
(PID.TID 0000.0001) %MON exf_apressure_min            =   0.0000000000000E+00
(PID.TID 0000.0001) %MON exf_apressure_mean           =   0.0000000000000E+00
(PID.TID 0000.0001) %MON exf_apressure_sd             =   0.0000000000000E+00
(PID.TID 0000.0001) %MON exf_apressure_del2           =   0.0000000000000E+00
(PID.TID 0000.0001) %MON exf_runoff_max               =   0.0000000000000E+00
(PID.TID 0000.0001) %MON exf_runoff_min               =   0.0000000000000E+00
(PID.TID 0000.0001) %MON exf_runoff_mean              =   0.0000000000000E+00
(PID.TID 0000.0001) %MON exf_runoff_sd                =   0.0000000000000E+00
(PID.TID 0000.0001) %MON exf_runoff_del2              =   0.0000000000000E+00
(PID.TID 0000.0001) %MON exf_climsst_max              =   0.0000000000000E+00
(PID.TID 0000.0001) %MON exf_climsst_min              =   0.0000000000000E+00
(PID.TID 0000.0001) %MON exf_climsst_mean             =   0.0000000000000E+00
(PID.TID 0000.0001) %MON exf_climsst_sd               =   0.0000000000000E+00
(PID.TID 0000.0001) %MON exf_climsst_del2             =   0.0000000000000E+00
(PID.TID 0000.0001) %MON exf_climsss_max              =   3.5041993610194E+01
(PID.TID 0000.0001) %MON exf_climsss_min              =   3.0673147123368E+01
(PID.TID 0000.0001) %MON exf_climsss_mean             =   3.3464011602304E+01
(PID.TID 0000.0001) %MON exf_climsss_sd               =   1.0313181272348E+00
(PID.TID 0000.0001) %MON exf_climsss_del2             =   1.0003889784787E-01
(PID.TID 0000.0001) // =======================================================
(PID.TID 0000.0001) // End MONITOR EXF statistics
(PID.TID 0000.0001) // =======================================================
 ph-ice B  9  0.  0.  0.
 ph-ice C  9  5.08667447E+11
 cg2d: Sum(rhs),rhsMax =   2.90785846721042E-08  1.15038871724988E+00
(PID.TID 0000.0001) // =======================================================
(PID.TID 0000.0001) // Begin MONITOR SEAICE statistics
(PID.TID 0000.0001) // =======================================================
(PID.TID 0000.0001) %MON seaice_tsnumber              =                    10
(PID.TID 0000.0001) %MON seaice_time_sec              =   3.6000000000000E+04
(PID.TID 0000.0001) %MON seaice_uice_max              =   2.6071249660760E-01
(PID.TID 0000.0001) %MON seaice_uice_min              =  -7.4569485593770E-02
(PID.TID 0000.0001) %MON seaice_uice_mean             =   5.6949542281910E-02
(PID.TID 0000.0001) %MON seaice_uice_sd               =   7.3695805275456E-02
(PID.TID 0000.0001) %MON seaice_uice_del2             =   6.9823782803637E-03
(PID.TID 0000.0001) %MON seaice_vice_max              =   7.2855155020877E-02
(PID.TID 0000.0001) %MON seaice_vice_min              =  -1.8167526869995E-01
(PID.TID 0000.0001) %MON seaice_vice_mean             =  -5.2953691109578E-02
(PID.TID 0000.0001) %MON seaice_vice_sd               =   5.6405653416334E-02
(PID.TID 0000.0001) %MON seaice_vice_del2             =   6.8590434186613E-03
(PID.TID 0000.0001) %MON seaice_area_max              =   1.0000000000000E+00
(PID.TID 0000.0001) %MON seaice_area_min              =   0.0000000000000E+00
(PID.TID 0000.0001) %MON seaice_area_mean             =   6.2310812476659E-01
(PID.TID 0000.0001) %MON seaice_area_sd               =   4.5675620753775E-01
(PID.TID 0000.0001) %MON seaice_area_del2             =   5.3101854332460E-02
(PID.TID 0000.0001) %MON seaice_heff_max              =   5.4914440233961E-01
(PID.TID 0000.0001) %MON seaice_heff_min              =   0.0000000000000E+00
(PID.TID 0000.0001) %MON seaice_heff_mean             =   1.4182086176764E-01
(PID.TID 0000.0001) %MON seaice_heff_sd               =   1.7482792814051E-01
(PID.TID 0000.0001) %MON seaice_heff_del2             =   1.3169931907421E-02
(PID.TID 0000.0001) %MON seaice_hsnow_max             =   2.0785054838231E-01
(PID.TID 0000.0001) %MON seaice_hsnow_min             =   0.0000000000000E+00
(PID.TID 0000.0001) %MON seaice_hsnow_mean            =   1.1901259211761E-01
(PID.TID 0000.0001) %MON seaice_hsnow_sd              =   9.7627028591697E-02
(PID.TID 0000.0001) %MON seaice_hsnow_del2            =   6.6467670990640E-03
(PID.TID 0000.0001) // =======================================================
(PID.TID 0000.0001) // End MONITOR SEAICE statistics
(PID.TID 0000.0001) // =======================================================
(PID.TID 0000.0001)  MDS_READ_FIELD: opening file: xx_atemp.0000000000.001.001.data
(PID.TID 0000.0001)  MDS_READ_FIELD: opening file: xx_atemp.0000000000.001.001.data
(PID.TID 0000.0001)  MDS_READ_FIELD: opening file: xx_atemp.0000000000.001.001.data
(PID.TID 0000.0001)  MDS_READ_FIELD: opening file: xx_atemp.0000000000.001.001.data
(PID.TID 0000.0001)  MDS_READ_FIELD: opening file: xx_aqh.0000000000.001.001.data
(PID.TID 0000.0001)  MDS_READ_FIELD: opening file: xx_aqh.0000000000.001.001.data
(PID.TID 0000.0001)  MDS_READ_FIELD: opening file: xx_aqh.0000000000.001.001.data
(PID.TID 0000.0001)  MDS_READ_FIELD: opening file: xx_aqh.0000000000.001.001.data
(PID.TID 0000.0001)  MDS_READ_FIELD: opening file: xx_uwind.0000000000.001.001.data
(PID.TID 0000.0001)  MDS_READ_FIELD: opening file: xx_uwind.0000000000.001.001.data
(PID.TID 0000.0001)  MDS_READ_FIELD: opening file: xx_uwind.0000000000.001.001.data
(PID.TID 0000.0001)  MDS_READ_FIELD: opening file: xx_uwind.0000000000.001.001.data
(PID.TID 0000.0001)  MDS_READ_FIELD: opening file: xx_vwind.0000000000.001.001.data
(PID.TID 0000.0001)  MDS_READ_FIELD: opening file: xx_vwind.0000000000.001.001.data
(PID.TID 0000.0001)  MDS_READ_FIELD: opening file: xx_vwind.0000000000.001.001.data
(PID.TID 0000.0001)  MDS_READ_FIELD: opening file: xx_vwind.0000000000.001.001.data
(PID.TID 0000.0001)  MDS_READ_FIELD: opening file: xx_precip.0000000000.001.001.data
(PID.TID 0000.0001)  MDS_READ_FIELD: opening file: xx_precip.0000000000.001.001.data
(PID.TID 0000.0001)  MDS_READ_FIELD: opening file: xx_precip.0000000000.001.001.data
(PID.TID 0000.0001)  MDS_READ_FIELD: opening file: xx_precip.0000000000.001.001.data
(PID.TID 0000.0001)  MDS_READ_FIELD: opening file: xx_swdown.0000000000.001.001.data
(PID.TID 0000.0001)  MDS_READ_FIELD: opening file: xx_swdown.0000000000.001.001.data
(PID.TID 0000.0001)  MDS_READ_FIELD: opening file: xx_swdown.0000000000.001.001.data
(PID.TID 0000.0001)  MDS_READ_FIELD: opening file: xx_swdown.0000000000.001.001.data
(PID.TID 0000.0001)  MDS_READ_FIELD: opening file: xx_lwdown.0000000000.001.001.data
(PID.TID 0000.0001)  MDS_READ_FIELD: opening file: xx_lwdown.0000000000.001.001.data
(PID.TID 0000.0001)  MDS_READ_FIELD: opening file: xx_lwdown.0000000000.001.001.data
(PID.TID 0000.0001)  MDS_READ_FIELD: opening file: xx_lwdown.0000000000.001.001.data
(PID.TID 0000.0001)  MDS_READ_FIELD: opening file: xx_snowprecip.0000000000.001.001.data
(PID.TID 0000.0001)  MDS_READ_FIELD: opening file: xx_snowprecip.0000000000.001.001.data
(PID.TID 0000.0001)  MDS_READ_FIELD: opening file: xx_snowprecip.0000000000.001.001.data
(PID.TID 0000.0001)  MDS_READ_FIELD: opening file: xx_snowprecip.0000000000.001.001.data
(PID.TID 0000.0001)  MDS_READ_FIELD: opening file: xx_apressure.0000000000.001.001.data
(PID.TID 0000.0001)  MDS_READ_FIELD: opening file: xx_apressure.0000000000.001.001.data
(PID.TID 0000.0001)  MDS_READ_FIELD: opening file: xx_apressure.0000000000.001.001.data
(PID.TID 0000.0001)  MDS_READ_FIELD: opening file: xx_apressure.0000000000.001.001.data
(PID.TID 0000.0001)  MDS_READ_FIELD: opening file: psbar.0000000000.001.001.data
(PID.TID 0000.0001)  cost_ssh: offset_sum =  0.710000000000000E+02
(PID.TID 0000.0001)  MDS_READ_FIELD: opening file: psbar.0000000000.001.001.data
(PID.TID 0000.0001) ph-cost call cost_sst
(PID.TID 0000.0001)  MDS_READ_FIELD: opening file: tbar.0000000000.001.001.data
(PID.TID 0000.0001) ph-cost call cost_theta
(PID.TID 0000.0001)  MDS_READ_FIELD: opening file: tbar.0000000000.001.001.data
(PID.TID 0000.0001) ph-cost call cost_salt
(PID.TID 0000.0001)  MDS_READ_FIELD: opening file: sbar.0000000000.001.001.data
(PID.TID 0000.0001) ph-cost call cost_smrarea
(PID.TID 0000.0001) ph-cost smrarea   0.0000000000E+00  0.0000000000E+00
 --> f_ice     = 0.508667447092741E+12
 --> f_smrarea = 0.000000000000000E+00
 --> f_temp    = 0.000000000000000E+00
 --> f_salt    = 0.000000000000000E+00
 --> f_temp0   = 0.000000000000000E+00
 --> f_salt0   = 0.000000000000000E+00
 --> f_temp0smoo = 0.000000000000000E+00
 --> f_salt0smoo = 0.000000000000000E+00
 --> f_sst     = 0.423904741801869E+04
 --> f_tmi     = 0.000000000000000E+00
 --> f_sss     = 0.000000000000000E+00
 --> f_ssh       = 0.000000000000000E+00
 --> f_tp        = 0.000000000000000E+00
 --> f_ers       = 0.000000000000000E+00
 --> f_gfo       = 0.000000000000000E+00
 --> f_tauu    = 0.000000000000000E+00
 --> f_tauum   = 0.000000000000000E+00
 --> f_tauusmoo = 0.000000000000000E+00
 --> f_tauv    = 0.000000000000000E+00
 --> f_tauvm   = 0.000000000000000E+00
 --> f_tauvsmoo = 0.000000000000000E+00
 --> f_hflux   = 0.000000000000000E+00
 --> f_hfluxm  = 0.000000000000000E+00
 --> f_hfluxmm = 0.000000000000000E+00
 --> f_hfluxsmoo = 0.000000000000000E+00
 --> f_sflux   = 0.000000000000000E+00
 --> f_sfluxm  = 0.000000000000000E+00
 --> f_sfluxmm = 0.000000000000000E+00
 --> f_sfluxsmoo = 0.000000000000000E+00
 --> f_uwind     = 0.000000000000000E+00
 --> f_vwind     = 0.000000000000000E+00
 --> f_atemp     = 0.200000000000000E-07
 --> f_aqh     = 0.000000000000000E+00
 --> f_precip  = 0.000000000000000E+00
 --> f_swflux  = 0.000000000000000E+00
 --> f_swdown  = 0.000000000000000E+00
 --> f_uwindm     = 0.000000000000000E+00
 --> f_vwindm     = 0.000000000000000E+00
 --> f_atempm     = 0.250000000000000E-08
 --> f_aqhm     = 0.000000000000000E+00
 --> f_precipm  = 0.000000000000000E+00
 --> f_swfluxm  = 0.000000000000000E+00
 --> f_swdownm  = 0.000000000000000E+00
 --> f_uwindsmoo     = 0.000000000000000E+00
 --> f_vwindsmoo     = 0.000000000000000E+00
 --> f_atempsmoo     = 0.000000000000000E+00
 --> f_aqhsmoo     = 0.000000000000000E+00
 --> f_precipsmoo  = 0.000000000000000E+00
 --> f_swfluxsmoo  = 0.000000000000000E+00
 --> f_swdownsmoo  = 0.000000000000000E+00
 --> f_atl     = 0.000000000000000E+00
 --> f_ctdt    = 0.000000000000000E+00
 --> f_ctds    = 0.000000000000000E+00
 --> f_ctdtclim= 0.000000000000000E+00
 --> f_ctdsclim= 0.000000000000000E+00
 --> f_xbt     = 0.000000000000000E+00
 --> f_argot   = 0.000000000000000E+00
 --> f_argos   = 0.000000000000000E+00
 --> f_drifter   = 0.000000000000000E+00
 --> f_tdrift  = 0.000000000000000E+00
 --> f_sdrift  = 0.000000000000000E+00
 --> f_wdrift  = 0.000000000000000E+00
 --> f_scatx   = 0.000000000000000E+00
 --> f_scaty   = 0.000000000000000E+00
 --> f_scatxm  = 0.000000000000000E+00
 --> f_scatym  = 0.000000000000000E+00
 --> f_obcsn   = 0.000000000000000E+00
 --> f_obcss   = 0.000000000000000E+00
 --> f_obcsw   = 0.000000000000000E+00
 --> f_obcse   = 0.000000000000000E+00
 --> f_ageos   = 0.000000000000000E+00
 --> f_curmtr  = 0.000000000000000E+00
 --> f_kapgm   = 0.000000000000000E+00
 --> f_diffkr  = 0.000000000000000E+00
 --> f_eddytau = 0.000000000000000E+00
 --> f_hfluxmm2           = 0.000000000000000E+00
 --> f_sfluxmm2           = 0.000000000000000E+00
 --> objf_hmean           = 0.920255345213506E-02
 --> fc               = 0.508667451331789E+12
 ph-check fcpertplus =   5.08667451E+11
(PID.TID 0000.0001)  MDS_READ_FIELD: opening file: xx_atemp.0000000000.001.001.data
 ph-check fcpertminus =   5.08667309E+11
(PID.TID 0000.0001)  MDS_READ_FIELD: opening file: xx_atemp.0000000000.001.001.data
(PID.TID 0000.0001) 
(PID.TID 0000.0001)  cal_TimeStamp: iter =          0 time =  0.00000000E+00
(PID.TID 0000.0001)                 date =   19790101           0
(PID.TID 0000.0001) 
(PID.TID 0000.0001) // =======================================================
(PID.TID 0000.0001) // Field Model R_low (ini_masks_etc) at iteration          1
(PID.TID 0000.0001) // CMIN =         -4.200000000000000E+03
(PID.TID 0000.0001) // CMAX =         -5.500000000000000E+01
(PID.TID 0000.0001) // CINT =          1.535185185185185E+02
(PID.TID 0000.0001) // SYMBOLS (CMIN->CMAX): -abcdefghijklmnopqrstuvwxyz+
(PID.TID 0000.0001) //                  0.0: .
(PID.TID 0000.0001) // RANGE I (Lo:Hi:Step):(  -2:  23:   1)
(PID.TID 0000.0001) // RANGE J (Lo:Hi:Step):(  19:  -2:  -1)
(PID.TID 0000.0001) // RANGE K (Lo:Hi:Step):(   1:   1:   1)
(PID.TID 0000.0001) // =======================================================
(PID.TID 0000.0001) K =   1
(PID.TID 0000.0001) //                I=7       I=17
(PID.TID 0000.0001) // |--J--|210123456|890123456|890123
(PID.TID 0000.0001) //     19 cc-..........+.zzxmgcc-...
(PID.TID 0000.0001) //     18 jc-.......+zzz..zzsmjc-...
(PID.TID 0000.0001) //     17 wc-........++z+++z+wwc-...
(PID.TID 0000.0001) //     16 ....zyyz................zy
(PID.TID 0000.0001) //     15 ...yxwwuspxyxz.........yxw
(PID.TID 0000.0001) //     14 ....+wwspppsxzz.........+w
(PID.TID 0000.0001) //     13 .......zwsppsyz...........
(PID.TID 0000.0001) //     12 .........+ypswzz+.........
(PID.TID 0000.0001) //     11 ...........+wwy+..........
(PID.TID 0000.0001) //     10 ..........zzzywy+.........
(PID.TID 0000.0001) //      9 ..z.......+zxsmmm+....z...
(PID.TID 0000.0001) //      8 ..s.....zzzxumjjjjuz..s...
(PID.TID 0000.0001) //      7 pmj......z.+zmjggggjpmj...
(PID.TID 0000.0001) //      6 ggg.........zxmjggggggg...
(PID.TID 0000.0001) //      5 ggg..........zzsjgggggg...
(PID.TID 0000.0001) //      4 ccg............zzmgcccg...
(PID.TID 0000.0001) //      3 cc-..........+.zzxmgcc-...
(PID.TID 0000.0001) //      2 jc-.......+zzz..zzsmjc-...
(PID.TID 0000.0001) //      1 wc-........++z+++z+wwc-...
(PID.TID 0000.0001) //      0 ....zyyz................zy
(PID.TID 0000.0001) //     -1 ...yxwwuspxyxz.........yxw
(PID.TID 0000.0001) //     -2 ....+wwspppsxzz.........+w
(PID.TID 0000.0001) // =======================================================
(PID.TID 0000.0001) // END OF FIELD                                          =
(PID.TID 0000.0001) // =======================================================
(PID.TID 0000.0001) 
(PID.TID 0000.0001) // =======================================================
(PID.TID 0000.0001) // Field Model Ro_surf (ini_masks_etc) at iteration          1
(PID.TID 0000.0001) // CMIN =          1.000000000000000E+32
(PID.TID 0000.0001) // CMAX =         -1.000000000000000E+32
(PID.TID 0000.0001) // CINT =          0.000000000000000E+00
(PID.TID 0000.0001) // SYMBOLS (CMIN->CMAX): -abcdefghijklmnopqrstuvwxyz+
(PID.TID 0000.0001) //                  0.0: .
(PID.TID 0000.0001) // RANGE I (Lo:Hi:Step):(  -2:  23:   1)
(PID.TID 0000.0001) // RANGE J (Lo:Hi:Step):(  19:  -2:  -1)
(PID.TID 0000.0001) // RANGE K (Lo:Hi:Step):(   1:   1:   1)
(PID.TID 0000.0001) // =======================================================
(PID.TID 0000.0001) // =======================================================
(PID.TID 0000.0001) // END OF FIELD                                          =
(PID.TID 0000.0001) // =======================================================
(PID.TID 0000.0001) 
(PID.TID 0000.0001) // =======================================================
(PID.TID 0000.0001) // Field hFacC at iteration          1
(PID.TID 0000.0001) // CMIN =          1.000000000000000E+00
(PID.TID 0000.0001) // CMAX =          1.000000000000000E+00
(PID.TID 0000.0001) // CINT =          0.000000000000000E+00
(PID.TID 0000.0001) // SYMBOLS (CMIN->CMAX): -abcdefghijklmnopqrstuvwxyz+
(PID.TID 0000.0001) //                  0.0: .
(PID.TID 0000.0001) // RANGE I (Lo:Hi:Step):(  -2:  23:   1)
(PID.TID 0000.0001) // RANGE J (Lo:Hi:Step):(  19:  -2:  -1)
(PID.TID 0000.0001) // RANGE K (Lo:Hi:Step):(   1:   1:   1)
(PID.TID 0000.0001) // =======================================================
(PID.TID 0000.0001) // =======================================================
(PID.TID 0000.0001) // END OF FIELD                                          =
(PID.TID 0000.0001) // =======================================================
(PID.TID 0000.0001) 
(PID.TID 0000.0001) // =======================================================
(PID.TID 0000.0001) // Field hFacW at iteration          1
(PID.TID 0000.0001) // CMIN =          1.000000000000000E+00
(PID.TID 0000.0001) // CMAX =          1.000000000000000E+00
(PID.TID 0000.0001) // CINT =          0.000000000000000E+00
(PID.TID 0000.0001) // SYMBOLS (CMIN->CMAX): -abcdefghijklmnopqrstuvwxyz+
(PID.TID 0000.0001) //                  0.0: .
(PID.TID 0000.0001) // RANGE I (Lo:Hi:Step):(  -2:  23:   1)
(PID.TID 0000.0001) // RANGE J (Lo:Hi:Step):(  19:  -2:  -1)
(PID.TID 0000.0001) // RANGE K (Lo:Hi:Step):(   1:   1:   1)
(PID.TID 0000.0001) // =======================================================
(PID.TID 0000.0001) // =======================================================
(PID.TID 0000.0001) // END OF FIELD                                          =
(PID.TID 0000.0001) // =======================================================
(PID.TID 0000.0001) 
(PID.TID 0000.0001) // =======================================================
(PID.TID 0000.0001) // Field hFacS at iteration          1
(PID.TID 0000.0001) // CMIN =          1.000000000000000E+00
(PID.TID 0000.0001) // CMAX =          1.000000000000000E+00
(PID.TID 0000.0001) // CINT =          0.000000000000000E+00
(PID.TID 0000.0001) // SYMBOLS (CMIN->CMAX): -abcdefghijklmnopqrstuvwxyz+
(PID.TID 0000.0001) //                  0.0: .
(PID.TID 0000.0001) // RANGE I (Lo:Hi:Step):(  -2:  23:   1)
(PID.TID 0000.0001) // RANGE J (Lo:Hi:Step):(  19:  -2:  -1)
(PID.TID 0000.0001) // RANGE K (Lo:Hi:Step):(   1:   1:   1)
(PID.TID 0000.0001) // =======================================================
(PID.TID 0000.0001) // =======================================================
(PID.TID 0000.0001) // END OF FIELD                                          =
(PID.TID 0000.0001) // =======================================================
(PID.TID 0000.0001) 
(PID.TID 0000.0001) %MON seaicefCori_max              =   1.4210453727344E-04
(PID.TID 0000.0001) %MON seaicefCori_min              =   1.0666243053630E-04
(PID.TID 0000.0001) %MON seaicefCori_mean             =   1.2711058365303E-04
(PID.TID 0000.0001) %MON seaicefCori_sd               =   1.1031533875266E-05
(PID.TID 0000.0001) %MON seaicefCoriG_max             =   1.4151032568025E-04
(PID.TID 0000.0001) %MON seaicefCoriG_min             =   1.0491029349513E-04
(PID.TID 0000.0001) %MON seaicefCoriG_mean            =   1.2591168756569E-04
(PID.TID 0000.0001) %MON seaicefCoriG_sd              =   1.1383815633153E-05
(PID.TID 0000.0001) %MON seaicefCoriCos_max           =   9.9464325599212E-05
(PID.TID 0000.0001) %MON seaicefCoriCos_min           =   3.2807417471054E-05
(PID.TID 0000.0001) %MON seaicefCoriCos_mean          =   6.7585896192312E-05
(PID.TID 0000.0001) %MON seaicefCoriCos_sd            =   2.0576140902612E-05
(PID.TID 0000.0001) INI_CG2D: CG2D normalisation factor =  1.6094939840939192E-04
(PID.TID 0000.0001) 
(PID.TID 0000.0001) // =======================================================
(PID.TID 0000.0001) // Field Initial Temperature at iteration          1
(PID.TID 0000.0001) // CMIN =          9.205863475799561E-01
(PID.TID 0000.0001) // CMAX =          1.333307647705078E+01
(PID.TID 0000.0001) // CINT =          4.597218566470676E-01
(PID.TID 0000.0001) // SYMBOLS (CMIN->CMAX): -abcdefghijklmnopqrstuvwxyz+
(PID.TID 0000.0001) //                  0.0: .
(PID.TID 0000.0001) // RANGE I (Lo:Hi:Step):(   1:  20:   1)
(PID.TID 0000.0001) // RANGE J (Lo:Hi:Step):(  16:   1:  -1)
(PID.TID 0000.0001) // RANGE K (Lo:Hi:Step):(   1:   1:   1)
(PID.TID 0000.0001) // =======================================================
(PID.TID 0000.0001) K =   1
(PID.TID 0000.0001)                I=10      I=20
(PID.TID 0000.0001) |--J--|123456789|123456789|
(PID.TID 0000.0001)     16 .----...............
(PID.TID 0000.0001)     15 aabaaaaaaaa.........
(PID.TID 0000.0001)     14 .ccccccbbbbc........
(PID.TID 0000.0001)     13 ....dddddddd........
(PID.TID 0000.0001)     12 ......dcdddddd......
(PID.TID 0000.0001)     11 ........cccdd.......
(PID.TID 0000.0001)     10 .......bbcdddd......
(PID.TID 0000.0001)      9 .......cdeeffff....j
(PID.TID 0000.0001)      8 .....ccdefgghhggh..k
(PID.TID 0000.0001)      7 ......d.fghiiiiiijkl
(PID.TID 0000.0001)      6 .........ghhijjjkklm
(PID.TID 0000.0001)      5 ..........hhhijklmnn
(PID.TID 0000.0001)      4 ............ghikmopq
(PID.TID 0000.0001)      3 ..........k.hhiknqsu
(PID.TID 0000.0001)      2 .......oonm..ijknqux
(PID.TID 0000.0001)      1 ........qponlkklosw+
(PID.TID 0000.0001) // =======================================================
(PID.TID 0000.0001) // END OF FIELD                                          =
(PID.TID 0000.0001) // =======================================================
(PID.TID 0000.0001) 
(PID.TID 0000.0001) // =======================================================
(PID.TID 0000.0001) // Field Initial Salinity at iteration          1
(PID.TID 0000.0001) // CMIN =          3.012869834899902E+01
(PID.TID 0000.0001) // CMAX =          3.487366104125977E+01
(PID.TID 0000.0001) // CINT =          1.757393589726201E-01
(PID.TID 0000.0001) // SYMBOLS (CMIN->CMAX): -abcdefghijklmnopqrstuvwxyz+
(PID.TID 0000.0001) //                  0.0: .
(PID.TID 0000.0001) // RANGE I (Lo:Hi:Step):(   1:  20:   1)
(PID.TID 0000.0001) // RANGE J (Lo:Hi:Step):(  16:   1:  -1)
(PID.TID 0000.0001) // RANGE K (Lo:Hi:Step):(   1:   1:   1)
(PID.TID 0000.0001) // =======================================================
(PID.TID 0000.0001) K =   1
(PID.TID 0000.0001)                I=10      I=20
(PID.TID 0000.0001) |--J--|123456789|123456789|
(PID.TID 0000.0001)     16 .nnos...............
(PID.TID 0000.0001)     15 lnoppppppol.........
(PID.TID 0000.0001)     14 .nponmllllmn........
(PID.TID 0000.0001)     13 ....ljhijkmo........
(PID.TID 0000.0001)     12 ......ghjlmors......
(PID.TID 0000.0001)     11 ........jmnpr.......
(PID.TID 0000.0001)     10 .......jlnpqrq......
(PID.TID 0000.0001)      9 .......noqsttts....w
(PID.TID 0000.0001)      8 .....jlnpsuvwwutu..x
(PID.TID 0000.0001)      7 ......j.rruwxyxxwxxy
(PID.TID 0000.0001)      6 .........ppruxyyzzzz
(PID.TID 0000.0001)      5 ..........ijoswyzzzz
(PID.TID 0000.0001)      4 ............iotwyzzz
(PID.TID 0000.0001)      3 ..........g.imquwyzz
(PID.TID 0000.0001)      2 .......-bef..knqtvxz
(PID.TID 0000.0001)      1 ........-cegijlosvy+
(PID.TID 0000.0001) // =======================================================
(PID.TID 0000.0001) // END OF FIELD                                          =
(PID.TID 0000.0001) // =======================================================
(PID.TID 0000.0001) 
(PID.TID 0000.0001) Start initial hydrostatic pressure computation
(PID.TID 0000.0001) Pressure is predetermined for buoyancyRelation OCEANIC
(PID.TID 0000.0001) 
(PID.TID 0000.0001)  MDS_READ_FIELD: opening file: xx_theta.0000000000.001.001.data
 ph-ctrl theta0 a   0.
 ph-ctrl theta0 b   0.
(PID.TID 0000.0001)  MDS_READ_FIELD: opening file: xx_salt.0000000000.001.001.data
(PID.TID 0000.0001) // =======================================================
(PID.TID 0000.0001) // Model current state
(PID.TID 0000.0001) // =======================================================
(PID.TID 0000.0001) 
(PID.TID 0000.0001) // =======================================================
(PID.TID 0000.0001) // Begin MONITOR SEAICE statistics
(PID.TID 0000.0001) // =======================================================
(PID.TID 0000.0001) %MON seaice_tsnumber              =                     0
(PID.TID 0000.0001) %MON seaice_time_sec              =   0.0000000000000E+00
(PID.TID 0000.0001) %MON seaice_uice_max              =   0.0000000000000E+00
(PID.TID 0000.0001) %MON seaice_uice_min              =   0.0000000000000E+00
(PID.TID 0000.0001) %MON seaice_uice_mean             =   0.0000000000000E+00
(PID.TID 0000.0001) %MON seaice_uice_sd               =   0.0000000000000E+00
(PID.TID 0000.0001) %MON seaice_uice_del2             =   0.0000000000000E+00
(PID.TID 0000.0001) %MON seaice_vice_max              =   0.0000000000000E+00
(PID.TID 0000.0001) %MON seaice_vice_min              =   0.0000000000000E+00
(PID.TID 0000.0001) %MON seaice_vice_mean             =   0.0000000000000E+00
(PID.TID 0000.0001) %MON seaice_vice_sd               =   0.0000000000000E+00
(PID.TID 0000.0001) %MON seaice_vice_del2             =   0.0000000000000E+00
(PID.TID 0000.0001) %MON seaice_area_max              =   1.0000000000000E+00
(PID.TID 0000.0001) %MON seaice_area_min              =   1.0000000000000E+00
(PID.TID 0000.0001) %MON seaice_area_mean             =   1.0000000000000E+00
(PID.TID 0000.0001) %MON seaice_area_sd               =   0.0000000000000E+00
(PID.TID 0000.0001) %MON seaice_area_del2             =   0.0000000000000E+00
(PID.TID 0000.0001) %MON seaice_heff_max              =   1.0000000000000E+00
(PID.TID 0000.0001) %MON seaice_heff_min              =   1.0000000000000E+00
(PID.TID 0000.0001) %MON seaice_heff_mean             =   1.0000000000000E+00
(PID.TID 0000.0001) %MON seaice_heff_sd               =   0.0000000000000E+00
(PID.TID 0000.0001) %MON seaice_heff_del2             =   0.0000000000000E+00
(PID.TID 0000.0001) %MON seaice_hsnow_max             =   2.0000000298023E-01
(PID.TID 0000.0001) %MON seaice_hsnow_min             =   2.0000000298023E-01
(PID.TID 0000.0001) %MON seaice_hsnow_mean            =   2.0000000298023E-01
(PID.TID 0000.0001) %MON seaice_hsnow_sd              =   5.8286708792821E-16
(PID.TID 0000.0001) %MON seaice_hsnow_del2            =   0.0000000000000E+00
(PID.TID 0000.0001) // =======================================================
(PID.TID 0000.0001) // End MONITOR SEAICE statistics
(PID.TID 0000.0001) // =======================================================
(PID.TID 0000.0001)  MDS_READ_FIELD: opening file: xx_atemp.0000000000.001.001.data
(PID.TID 0000.0001)  MDS_READ_FIELD: opening file: xx_atemp.0000000000.001.001.data
(PID.TID 0000.0001)  MDS_READ_FIELD: opening file: xx_aqh.0000000000.001.001.data
(PID.TID 0000.0001)  MDS_READ_FIELD: opening file: xx_aqh.0000000000.001.001.data
(PID.TID 0000.0001)  MDS_READ_FIELD: opening file: xx_precip.0000000000.001.001.data
(PID.TID 0000.0001)  MDS_READ_FIELD: opening file: xx_precip.0000000000.001.001.data
(PID.TID 0000.0001)  MDS_READ_FIELD: opening file: xx_swdown.0000000000.001.001.data
(PID.TID 0000.0001)  MDS_READ_FIELD: opening file: xx_swdown.0000000000.001.001.data
(PID.TID 0000.0001)  MDS_READ_FIELD: opening file: xx_lwdown.0000000000.001.001.data
(PID.TID 0000.0001)  MDS_READ_FIELD: opening file: xx_lwdown.0000000000.001.001.data
(PID.TID 0000.0001)  MDS_READ_FIELD: opening file: xx_snowprecip.0000000000.001.001.data
(PID.TID 0000.0001)  MDS_READ_FIELD: opening file: xx_snowprecip.0000000000.001.001.data
(PID.TID 0000.0001)  MDS_READ_FIELD: opening file: xx_apressure.0000000000.001.001.data
(PID.TID 0000.0001)  MDS_READ_FIELD: opening file: xx_apressure.0000000000.001.001.data
(PID.TID 0000.0001)  MDS_READ_FIELD: opening file: xx_uwind.0000000000.001.001.data
(PID.TID 0000.0001)  MDS_READ_FIELD: opening file: xx_uwind.0000000000.001.001.data
(PID.TID 0000.0001)  MDS_READ_FIELD: opening file: xx_vwind.0000000000.001.001.data
(PID.TID 0000.0001)  MDS_READ_FIELD: opening file: xx_vwind.0000000000.001.001.data
(PID.TID 0000.0001) // =======================================================
(PID.TID 0000.0001) // Begin MONITOR EXF statistics
(PID.TID 0000.0001) // =======================================================
(PID.TID 0000.0001) %MON exf_tsnumber                 =                     0
(PID.TID 0000.0001) %MON exf_time_sec                 =   0.0000000000000E+00
(PID.TID 0000.0001) %MON exf_ustress_max              =   6.3903775845771E-02
(PID.TID 0000.0001) %MON exf_ustress_min              =  -9.5324050318348E-02
(PID.TID 0000.0001) %MON exf_ustress_mean             =   2.2585162481116E-02
(PID.TID 0000.0001) %MON exf_ustress_sd               =   2.7275780222586E-02
(PID.TID 0000.0001) %MON exf_ustress_del2             =   2.9464928316532E-03
(PID.TID 0000.0001) %MON exf_vstress_max              =   5.4708944127586E-02
(PID.TID 0000.0001) %MON exf_vstress_min              =  -6.2488440618747E-02
(PID.TID 0000.0001) %MON exf_vstress_mean             =  -5.6174742354141E-03
(PID.TID 0000.0001) %MON exf_vstress_sd               =   1.5596129820506E-02
(PID.TID 0000.0001) %MON exf_vstress_del2             =   1.7930354631791E-03
(PID.TID 0000.0001) %MON exf_hflux_max                =   7.3111020636161E+02
(PID.TID 0000.0001) %MON exf_hflux_min                =   1.0991726570245E+02
(PID.TID 0000.0001) %MON exf_hflux_mean               =   2.7655956080626E+02
(PID.TID 0000.0001) %MON exf_hflux_sd                 =   1.5872018425816E+02
(PID.TID 0000.0001) %MON exf_hflux_del2               =   1.9324676882838E+01
(PID.TID 0000.0001) %MON exf_sflux_max                =   5.3473262221640E-08
(PID.TID 0000.0001) %MON exf_sflux_min                =  -6.1385296755754E-08
(PID.TID 0000.0001) %MON exf_sflux_mean               =  -7.3062642712905E-09
(PID.TID 0000.0001) %MON exf_sflux_sd                 =   2.6562207435552E-08
(PID.TID 0000.0001) %MON exf_sflux_del2               =   3.6392854873204E-09
(PID.TID 0000.0001) %MON exf_uwind_max                =   6.4643745422363E+00
(PID.TID 0000.0001) %MON exf_uwind_min                =  -6.8372380733490E+00
(PID.TID 0000.0001) %MON exf_uwind_mean               =   2.7697727336031E+00
(PID.TID 0000.0001) %MON exf_uwind_sd                 =   2.9900402496951E+00
(PID.TID 0000.0001) %MON exf_uwind_del2               =   3.1570994739265E-01
(PID.TID 0000.0001) %MON exf_vwind_max                =   3.9240682125092E+00
(PID.TID 0000.0001) %MON exf_vwind_min                =  -6.0197033882141E+00
(PID.TID 0000.0001) %MON exf_vwind_mean               =  -7.6089868124963E-01
(PID.TID 0000.0001) %MON exf_vwind_sd                 =   1.7293437592941E+00
(PID.TID 0000.0001) %MON exf_vwind_del2               =   1.9333263882436E-01
(PID.TID 0000.0001) %MON exf_wspeed_max               =   7.8832820454477E+00
(PID.TID 0000.0001) %MON exf_wspeed_min               =   4.6035219539401E-01
(PID.TID 0000.0001) %MON exf_wspeed_mean              =   4.1981217095273E+00
(PID.TID 0000.0001) %MON exf_wspeed_sd                =   1.5991724245810E+00
(PID.TID 0000.0001) %MON exf_wspeed_del2              =   3.7693667977018E-01
(PID.TID 0000.0001) %MON exf_atemp_max                =   2.8188281250000E+02
(PID.TID 0000.0001) %MON exf_atemp_min                =   2.3646176910400E+02
(PID.TID 0000.0001) %MON exf_atemp_mean               =   2.6394605689467E+02
(PID.TID 0000.0001) %MON exf_atemp_sd                 =   1.1983417005087E+01
(PID.TID 0000.0001) %MON exf_atemp_del2               =   6.4942209334310E-01
(PID.TID 0000.0001) %MON exf_aqh_max                  =   6.3231729436666E-03
(PID.TID 0000.0001) %MON exf_aqh_min                  =   1.6369274817407E-04
(PID.TID 0000.0001) %MON exf_aqh_mean                 =   2.4803629101886E-03
(PID.TID 0000.0001) %MON exf_aqh_sd                   =   1.4265074770275E-03
(PID.TID 0000.0001) %MON exf_aqh_del2                 =   6.8141780599641E-05
(PID.TID 0000.0001) %MON exf_lwflux_max               =   1.9978966060501E+02
(PID.TID 0000.0001) %MON exf_lwflux_min               =   6.3304595803996E+01
(PID.TID 0000.0001) %MON exf_lwflux_mean              =   1.0410079899302E+02
(PID.TID 0000.0001) %MON exf_lwflux_sd                =   3.6519264181786E+01
(PID.TID 0000.0001) %MON exf_lwflux_del2              =   3.1286635970398E+00
(PID.TID 0000.0001) %MON exf_precip_max               =   1.0498766300771E-07
(PID.TID 0000.0001) %MON exf_precip_min               =   2.7359498694368E-10
(PID.TID 0000.0001) %MON exf_precip_mean              =   3.6390080543085E-08
(PID.TID 0000.0001) %MON exf_precip_sd                =   2.0578148171209E-08
(PID.TID 0000.0001) %MON exf_precip_del2              =   2.5551549857431E-09
(PID.TID 0000.0001) %MON exf_snowprecip_max           =   0.0000000000000E+00
(PID.TID 0000.0001) %MON exf_snowprecip_min           =   0.0000000000000E+00
(PID.TID 0000.0001) %MON exf_snowprecip_mean          =   0.0000000000000E+00
(PID.TID 0000.0001) %MON exf_snowprecip_sd            =   0.0000000000000E+00
(PID.TID 0000.0001) %MON exf_snowprecip_del2          =   0.0000000000000E+00
(PID.TID 0000.0001) %MON exf_swflux_max               =  -8.1205755472183E-02
(PID.TID 0000.0001) %MON exf_swflux_min               =  -6.3973114013672E+01
(PID.TID 0000.0001) %MON exf_swflux_mean              =  -2.6453223022948E+01
(PID.TID 0000.0001) %MON exf_swflux_sd                =   1.9625901079469E+01
(PID.TID 0000.0001) %MON exf_swflux_del2              =   4.7901276555285E-01
(PID.TID 0000.0001) %MON exf_evap_max                 =   5.9797470045733E-08
(PID.TID 0000.0001) %MON exf_evap_min                 =   1.0729148721654E-08
(PID.TID 0000.0001) %MON exf_evap_mean                =   2.9083816271794E-08
(PID.TID 0000.0001) %MON exf_evap_sd                  =   9.2938018715544E-09
(PID.TID 0000.0001) %MON exf_evap_del2                =   2.0154590676424E-09
(PID.TID 0000.0001) %MON exf_swdown_max               =   7.1081237792969E+01
(PID.TID 0000.0001) %MON exf_swdown_min               =   9.0228617191315E-02
(PID.TID 0000.0001) %MON exf_swdown_mean              =   2.9392470025498E+01
(PID.TID 0000.0001) %MON exf_swdown_sd                =   2.1806556754965E+01
(PID.TID 0000.0001) %MON exf_swdown_del2              =   5.3223640616983E-01
(PID.TID 0000.0001) %MON exf_lwdown_max               =   3.0567971801758E+02
(PID.TID 0000.0001) %MON exf_lwdown_min               =   1.1599769210815E+02
(PID.TID 0000.0001) %MON exf_lwdown_mean              =   2.2594931695913E+02
(PID.TID 0000.0001) %MON exf_lwdown_sd                =   4.6277429231296E+01
(PID.TID 0000.0001) %MON exf_lwdown_del2              =   3.2438212966919E+00
(PID.TID 0000.0001) %MON exf_apressure_max            =   0.0000000000000E+00
(PID.TID 0000.0001) %MON exf_apressure_min            =   0.0000000000000E+00
(PID.TID 0000.0001) %MON exf_apressure_mean           =   0.0000000000000E+00
(PID.TID 0000.0001) %MON exf_apressure_sd             =   0.0000000000000E+00
(PID.TID 0000.0001) %MON exf_apressure_del2           =   0.0000000000000E+00
(PID.TID 0000.0001) %MON exf_runoff_max               =   0.0000000000000E+00
(PID.TID 0000.0001) %MON exf_runoff_min               =   0.0000000000000E+00
(PID.TID 0000.0001) %MON exf_runoff_mean              =   0.0000000000000E+00
(PID.TID 0000.0001) %MON exf_runoff_sd                =   0.0000000000000E+00
(PID.TID 0000.0001) %MON exf_runoff_del2              =   0.0000000000000E+00
(PID.TID 0000.0001) %MON exf_climsst_max              =   0.0000000000000E+00
(PID.TID 0000.0001) %MON exf_climsst_min              =   0.0000000000000E+00
(PID.TID 0000.0001) %MON exf_climsst_mean             =   0.0000000000000E+00
(PID.TID 0000.0001) %MON exf_climsst_sd               =   0.0000000000000E+00
(PID.TID 0000.0001) %MON exf_climsst_del2             =   0.0000000000000E+00
(PID.TID 0000.0001) %MON exf_climsss_max              =   3.5040330886841E+01
(PID.TID 0000.0001) %MON exf_climsss_min              =   3.0666313171387E+01
(PID.TID 0000.0001) %MON exf_climsss_mean             =   3.3459319600989E+01
(PID.TID 0000.0001) %MON exf_climsss_sd               =   1.0319548925494E+00
(PID.TID 0000.0001) %MON exf_climsss_del2             =   1.0019396146139E-01
(PID.TID 0000.0001) // =======================================================
(PID.TID 0000.0001) // End MONITOR EXF statistics
(PID.TID 0000.0001) // =======================================================
 ph-ice B  0  0.  0.  0.
 ph-ice C  0  5.30354909E+10
 cg2d: Sum(rhs),rhsMax =   1.05818132034585E-15  9.93037467350620E-01
(PID.TID 0000.0001) // =======================================================
(PID.TID 0000.0001) // Begin MONITOR SEAICE statistics
(PID.TID 0000.0001) // =======================================================
(PID.TID 0000.0001) %MON seaice_tsnumber              =                     1
(PID.TID 0000.0001) %MON seaice_time_sec              =   3.6000000000000E+03
(PID.TID 0000.0001) %MON seaice_uice_max              =   1.1830188588838E-01
(PID.TID 0000.0001) %MON seaice_uice_min              =  -3.6947667601810E-02
(PID.TID 0000.0001) %MON seaice_uice_mean             =   4.6351011395841E-02
(PID.TID 0000.0001) %MON seaice_uice_sd               =   4.4551623876367E-02
(PID.TID 0000.0001) %MON seaice_uice_del2             =   2.6893939150909E-03
(PID.TID 0000.0001) %MON seaice_vice_max              =   3.8048078875392E-02
(PID.TID 0000.0001) %MON seaice_vice_min              =  -7.2208311040469E-02
(PID.TID 0000.0001) %MON seaice_vice_mean             =  -1.7212953413442E-02
(PID.TID 0000.0001) %MON seaice_vice_sd               =   2.7498420195410E-02
(PID.TID 0000.0001) %MON seaice_vice_del2             =   2.2712992187913E-03
(PID.TID 0000.0001) %MON seaice_area_max              =   1.0000000000000E+00
(PID.TID 0000.0001) %MON seaice_area_min              =   0.0000000000000E+00
(PID.TID 0000.0001) %MON seaice_area_mean             =   6.3240422700608E-01
(PID.TID 0000.0001) %MON seaice_area_sd               =   4.5166855797222E-01
(PID.TID 0000.0001) %MON seaice_area_del2             =   4.7454768379761E-02
(PID.TID 0000.0001) %MON seaice_heff_max              =   6.0076635272005E-01
(PID.TID 0000.0001) %MON seaice_heff_min              =   0.0000000000000E+00
(PID.TID 0000.0001) %MON seaice_heff_mean             =   1.4887451421644E-01
(PID.TID 0000.0001) %MON seaice_heff_sd               =   1.8287366826360E-01
(PID.TID 0000.0001) %MON seaice_heff_del2             =   1.0146605916955E-02
(PID.TID 0000.0001) %MON seaice_hsnow_max             =   2.0078474686707E-01
(PID.TID 0000.0001) %MON seaice_hsnow_min             =   0.0000000000000E+00
(PID.TID 0000.0001) %MON seaice_hsnow_mean            =   1.1848697056338E-01
(PID.TID 0000.0001) %MON seaice_hsnow_sd              =   9.6623972770983E-02
(PID.TID 0000.0001) %MON seaice_hsnow_del2            =   6.2688952170602E-03
(PID.TID 0000.0001) // =======================================================
(PID.TID 0000.0001) // End MONITOR SEAICE statistics
(PID.TID 0000.0001) // =======================================================
(PID.TID 0000.0001) // =======================================================
(PID.TID 0000.0001) // Begin MONITOR EXF statistics
(PID.TID 0000.0001) // =======================================================
(PID.TID 0000.0001) %MON exf_tsnumber                 =                     1
(PID.TID 0000.0001) %MON exf_time_sec                 =   3.6000000000000E+03
(PID.TID 0000.0001) %MON exf_ustress_max              =   5.2215336216899E-02
(PID.TID 0000.0001) %MON exf_ustress_min              =  -9.3781516255246E-02
(PID.TID 0000.0001) %MON exf_ustress_mean             =   1.7908667083381E-02
(PID.TID 0000.0001) %MON exf_ustress_sd               =   2.3677825370460E-02
(PID.TID 0000.0001) %MON exf_ustress_del2             =   2.8185945121624E-03
(PID.TID 0000.0001) %MON exf_vstress_max              =   5.3823846971061E-02
(PID.TID 0000.0001) %MON exf_vstress_min              =  -5.8521115502029E-02
(PID.TID 0000.0001) %MON exf_vstress_mean             =  -5.4709252941337E-03
(PID.TID 0000.0001) %MON exf_vstress_sd               =   1.4440702617693E-02
(PID.TID 0000.0001) %MON exf_vstress_del2             =   1.6942467930746E-03
(PID.TID 0000.0001) %MON exf_hflux_max                =   6.2467472133264E+02
(PID.TID 0000.0001) %MON exf_hflux_min                =  -5.4116825759641E+01
(PID.TID 0000.0001) %MON exf_hflux_mean               =   1.4693365170858E+02
(PID.TID 0000.0001) %MON exf_hflux_sd                 =   1.8156698553549E+02
(PID.TID 0000.0001) %MON exf_hflux_del2               =   1.6567545428359E+01
(PID.TID 0000.0001) %MON exf_sflux_max                =   3.9008935708334E-08
(PID.TID 0000.0001) %MON exf_sflux_min                =  -8.8902774357601E-08
(PID.TID 0000.0001) %MON exf_sflux_mean               =  -2.5876940636622E-08
(PID.TID 0000.0001) %MON exf_sflux_sd                 =   3.0537598384680E-08
(PID.TID 0000.0001) %MON exf_sflux_del2               =   3.1605976548669E-09
(PID.TID 0000.0001) %MON exf_uwind_max                =   6.4648819946852E+00
(PID.TID 0000.0001) %MON exf_uwind_min                =  -6.8372648550513E+00
(PID.TID 0000.0001) %MON exf_uwind_mean               =   2.7698802859476E+00
(PID.TID 0000.0001) %MON exf_uwind_sd                 =   2.9903162155877E+00
(PID.TID 0000.0001) %MON exf_uwind_del2               =   3.1571785161521E-01
(PID.TID 0000.0001) %MON exf_vwind_max                =   3.9240983933048E+00
(PID.TID 0000.0001) %MON exf_vwind_min                =  -6.0187974783892E+00
(PID.TID 0000.0001) %MON exf_vwind_mean               =  -7.6028090815952E-01
(PID.TID 0000.0001) %MON exf_vwind_sd                 =   1.7294518007626E+00
(PID.TID 0000.0001) %MON exf_vwind_del2               =   1.9332576748242E-01
(PID.TID 0000.0001) %MON exf_wspeed_max               =   7.8833202965791E+00
(PID.TID 0000.0001) %MON exf_wspeed_min               =   4.6010935417159E-01
(PID.TID 0000.0001) %MON exf_wspeed_mean              =   4.1982241536133E+00
(PID.TID 0000.0001) %MON exf_wspeed_sd                =   1.5994287774633E+00
(PID.TID 0000.0001) %MON exf_wspeed_del2              =   3.7699000842292E-01
(PID.TID 0000.0001) %MON exf_atemp_max                =   2.8188110034713E+02
(PID.TID 0000.0001) %MON exf_atemp_min                =   2.3645730413635E+02
(PID.TID 0000.0001) %MON exf_atemp_mean               =   2.6394141281326E+02
(PID.TID 0000.0001) %MON exf_atemp_sd                 =   1.1984877539957E+01
(PID.TID 0000.0001) %MON exf_atemp_del2               =   6.4944142906221E-01
(PID.TID 0000.0001) %MON exf_aqh_max                  =   6.3224764028055E-03
(PID.TID 0000.0001) %MON exf_aqh_min                  =   1.6359864467567E-04
(PID.TID 0000.0001) %MON exf_aqh_mean                 =   2.4798025537840E-03
(PID.TID 0000.0001) %MON exf_aqh_sd                   =   1.4264043737180E-03
(PID.TID 0000.0001) %MON exf_aqh_del2                 =   6.8128113038494E-05
(PID.TID 0000.0001) %MON exf_lwflux_max               =   1.8380784776361E+02
(PID.TID 0000.0001) %MON exf_lwflux_min               =   2.6472644798215E+01
(PID.TID 0000.0001) %MON exf_lwflux_mean              =   7.5350572632925E+01
(PID.TID 0000.0001) %MON exf_lwflux_sd                =   4.3134595524386E+01
(PID.TID 0000.0001) %MON exf_lwflux_del2              =   3.2390977067912E+00
(PID.TID 0000.0001) %MON exf_precip_max               =   1.0498904445033E-07
(PID.TID 0000.0001) %MON exf_precip_min               =   2.7346106047101E-10
(PID.TID 0000.0001) %MON exf_precip_mean              =   3.6390069699050E-08
(PID.TID 0000.0001) %MON exf_precip_sd                =   2.0578598603627E-08
(PID.TID 0000.0001) %MON exf_precip_del2              =   2.5556826789328E-09
(PID.TID 0000.0001) %MON exf_snowprecip_max           =   0.0000000000000E+00
(PID.TID 0000.0001) %MON exf_snowprecip_min           =   0.0000000000000E+00
(PID.TID 0000.0001) %MON exf_snowprecip_mean          =   0.0000000000000E+00
(PID.TID 0000.0001) %MON exf_snowprecip_sd            =   0.0000000000000E+00
(PID.TID 0000.0001) %MON exf_snowprecip_del2          =   0.0000000000000E+00
(PID.TID 0000.0001) %MON exf_swflux_max               =  -8.1206038349965E-02
(PID.TID 0000.0001) %MON exf_swflux_min               =  -6.3991984364244E+01
(PID.TID 0000.0001) %MON exf_swflux_mean              =  -2.6463755238823E+01
(PID.TID 0000.0001) %MON exf_swflux_sd                =   1.9629736696482E+01
(PID.TID 0000.0001) %MON exf_swflux_del2              =   4.7911963949881E-01
(PID.TID 0000.0001) %MON exf_evap_max                 =   4.5332480821497E-08
(PID.TID 0000.0001) %MON exf_evap_min                 =  -4.7524365011618E-09
(PID.TID 0000.0001) %MON exf_evap_mean                =   1.0513129062429E-08
(PID.TID 0000.0001) %MON exf_evap_sd                  =   1.1274582980208E-08
(PID.TID 0000.0001) %MON exf_evap_del2                =   1.3716109897235E-09
(PID.TID 0000.0001) %MON exf_swdown_max               =   7.1102204849160E+01
(PID.TID 0000.0001) %MON exf_swdown_min               =   9.0228931499961E-02
(PID.TID 0000.0001) %MON exf_swdown_mean              =   2.9404172487581E+01
(PID.TID 0000.0001) %MON exf_swdown_sd                =   2.1810818551646E+01
(PID.TID 0000.0001) %MON exf_swdown_del2              =   5.3235515499868E-01
(PID.TID 0000.0001) %MON exf_lwdown_max               =   3.0567089193375E+02
(PID.TID 0000.0001) %MON exf_lwdown_min               =   1.1598258522951E+02
(PID.TID 0000.0001) %MON exf_lwdown_mean              =   2.2593360963007E+02
(PID.TID 0000.0001) %MON exf_lwdown_sd                =   4.6281398610271E+01
(PID.TID 0000.0001) %MON exf_lwdown_del2              =   3.2438329367646E+00
(PID.TID 0000.0001) %MON exf_apressure_max            =   0.0000000000000E+00
(PID.TID 0000.0001) %MON exf_apressure_min            =   0.0000000000000E+00
(PID.TID 0000.0001) %MON exf_apressure_mean           =   0.0000000000000E+00
(PID.TID 0000.0001) %MON exf_apressure_sd             =   0.0000000000000E+00
(PID.TID 0000.0001) %MON exf_apressure_del2           =   0.0000000000000E+00
(PID.TID 0000.0001) %MON exf_runoff_max               =   0.0000000000000E+00
(PID.TID 0000.0001) %MON exf_runoff_min               =   0.0000000000000E+00
(PID.TID 0000.0001) %MON exf_runoff_mean              =   0.0000000000000E+00
(PID.TID 0000.0001) %MON exf_runoff_sd                =   0.0000000000000E+00
(PID.TID 0000.0001) %MON exf_runoff_del2              =   0.0000000000000E+00
(PID.TID 0000.0001) %MON exf_climsst_max              =   0.0000000000000E+00
(PID.TID 0000.0001) %MON exf_climsst_min              =   0.0000000000000E+00
(PID.TID 0000.0001) %MON exf_climsst_mean             =   0.0000000000000E+00
(PID.TID 0000.0001) %MON exf_climsst_sd               =   0.0000000000000E+00
(PID.TID 0000.0001) %MON exf_climsst_del2             =   0.0000000000000E+00
(PID.TID 0000.0001) %MON exf_climsss_max              =   3.5040515633880E+01
(PID.TID 0000.0001) %MON exf_climsss_min              =   3.0667072499385E+01
(PID.TID 0000.0001) %MON exf_climsss_mean             =   3.3459840934468E+01
(PID.TID 0000.0001) %MON exf_climsss_sd               =   1.0318832207269E+00
(PID.TID 0000.0001) %MON exf_climsss_del2             =   1.0017673217099E-01
(PID.TID 0000.0001) // =======================================================
(PID.TID 0000.0001) // End MONITOR EXF statistics
(PID.TID 0000.0001) // =======================================================
 ph-ice B  1  0.  0.  0.
 ph-ice C  1  1.03662085E+11
 cg2d: Sum(rhs),rhsMax =   9.71448810282993E-10  1.19254195625089E+00
(PID.TID 0000.0001) // =======================================================
(PID.TID 0000.0001) // Begin MONITOR SEAICE statistics
(PID.TID 0000.0001) // =======================================================
(PID.TID 0000.0001) %MON seaice_tsnumber              =                     2
(PID.TID 0000.0001) %MON seaice_time_sec              =   7.2000000000000E+03
(PID.TID 0000.0001) %MON seaice_uice_max              =   1.5575757141827E-01
(PID.TID 0000.0001) %MON seaice_uice_min              =  -8.0942741430966E-02
(PID.TID 0000.0001) %MON seaice_uice_mean             =   6.5168650039962E-02
(PID.TID 0000.0001) %MON seaice_uice_sd               =   6.1631643246329E-02
(PID.TID 0000.0001) %MON seaice_uice_del2             =   6.8706904533689E-03
(PID.TID 0000.0001) %MON seaice_vice_max              =   7.0616929675931E-02
(PID.TID 0000.0001) %MON seaice_vice_min              =  -1.3662299947234E-01
(PID.TID 0000.0001) %MON seaice_vice_mean             =  -2.1829812683788E-02
(PID.TID 0000.0001) %MON seaice_vice_sd               =   4.1312329548559E-02
(PID.TID 0000.0001) %MON seaice_vice_del2             =   5.3521934594624E-03
(PID.TID 0000.0001) %MON seaice_area_max              =   1.0000000000000E+00
(PID.TID 0000.0001) %MON seaice_area_min              =   0.0000000000000E+00
(PID.TID 0000.0001) %MON seaice_area_mean             =   6.2511459427333E-01
(PID.TID 0000.0001) %MON seaice_area_sd               =   4.5918068069277E-01
(PID.TID 0000.0001) %MON seaice_area_del2             =   5.3309120853524E-02
(PID.TID 0000.0001) %MON seaice_heff_max              =   5.5572638142240E-01
(PID.TID 0000.0001) %MON seaice_heff_min              =   0.0000000000000E+00
(PID.TID 0000.0001) %MON seaice_heff_mean             =   1.4211256278962E-01
(PID.TID 0000.0001) %MON seaice_heff_sd               =   1.7471336181454E-01
(PID.TID 0000.0001) %MON seaice_heff_del2             =   1.3300800072062E-02
(PID.TID 0000.0001) %MON seaice_hsnow_max             =   2.0156957952176E-01
(PID.TID 0000.0001) %MON seaice_hsnow_min             =   0.0000000000000E+00
(PID.TID 0000.0001) %MON seaice_hsnow_mean            =   1.1798259565184E-01
(PID.TID 0000.0001) %MON seaice_hsnow_sd              =   9.6675387962263E-02
(PID.TID 0000.0001) %MON seaice_hsnow_del2            =   6.3372971187464E-03
(PID.TID 0000.0001) // =======================================================
(PID.TID 0000.0001) // End MONITOR SEAICE statistics
(PID.TID 0000.0001) // =======================================================
(PID.TID 0000.0001) // =======================================================
(PID.TID 0000.0001) // Begin MONITOR EXF statistics
(PID.TID 0000.0001) // =======================================================
(PID.TID 0000.0001) %MON exf_tsnumber                 =                     2
(PID.TID 0000.0001) %MON exf_time_sec                 =   7.2000000000000E+03
(PID.TID 0000.0001) %MON exf_ustress_max              =   5.2234389551241E-02
(PID.TID 0000.0001) %MON exf_ustress_min              =  -9.3783873525021E-02
(PID.TID 0000.0001) %MON exf_ustress_mean             =   1.7912605093553E-02
(PID.TID 0000.0001) %MON exf_ustress_sd               =   2.3689567551422E-02
(PID.TID 0000.0001) %MON exf_ustress_del2             =   2.8175390184121E-03
(PID.TID 0000.0001) %MON exf_vstress_max              =   5.3825403016462E-02
(PID.TID 0000.0001) %MON exf_vstress_min              =  -5.8501907463670E-02
(PID.TID 0000.0001) %MON exf_vstress_mean             =  -5.4571890424029E-03
(PID.TID 0000.0001) %MON exf_vstress_sd               =   1.4439149105278E-02
(PID.TID 0000.0001) %MON exf_vstress_del2             =   1.6937327642463E-03
(PID.TID 0000.0001) %MON exf_hflux_max                =   6.2473671698450E+02
(PID.TID 0000.0001) %MON exf_hflux_min                =  -5.1856944043789E+01
(PID.TID 0000.0001) %MON exf_hflux_mean               =   1.4603892386315E+02
(PID.TID 0000.0001) %MON exf_hflux_sd                 =   1.8006278184421E+02
(PID.TID 0000.0001) %MON exf_hflux_del2               =   1.6304062329861E+01
(PID.TID 0000.0001) %MON exf_sflux_max                =   3.9010172880204E-08
(PID.TID 0000.0001) %MON exf_sflux_min                =  -8.8920778732677E-08
(PID.TID 0000.0001) %MON exf_sflux_mean               =  -2.5980919453185E-08
(PID.TID 0000.0001) %MON exf_sflux_sd                 =   3.0374070259124E-08
(PID.TID 0000.0001) %MON exf_sflux_del2               =   3.1602146731678E-09
(PID.TID 0000.0001) %MON exf_uwind_max                =   6.4653894471340E+00
(PID.TID 0000.0001) %MON exf_uwind_min                =  -6.8372916367536E+00
(PID.TID 0000.0001) %MON exf_uwind_mean               =   2.7699878382920E+00
(PID.TID 0000.0001) %MON exf_uwind_sd                 =   2.9905922217476E+00
(PID.TID 0000.0001) %MON exf_uwind_del2               =   3.1572575583776E-01
(PID.TID 0000.0001) %MON exf_vwind_max                =   3.9241285741003E+00
(PID.TID 0000.0001) %MON exf_vwind_min                =  -6.0178915685643E+00
(PID.TID 0000.0001) %MON exf_vwind_mean               =  -7.5966313506940E-01
(PID.TID 0000.0001) %MON exf_vwind_sd                 =   1.7295599554900E+00
(PID.TID 0000.0001) %MON exf_vwind_del2               =   1.9331889614049E-01
(PID.TID 0000.0001) %MON exf_wspeed_max               =   7.8833585477315E+00
(PID.TID 0000.0001) %MON exf_wspeed_min               =   4.5986651533145E-01
(PID.TID 0000.0001) %MON exf_wspeed_mean              =   4.1983267266652E+00
(PID.TID 0000.0001) %MON exf_wspeed_sd                =   1.5996852426804E+00
(PID.TID 0000.0001) %MON exf_wspeed_del2              =   3.7704333058266E-01
(PID.TID 0000.0001) %MON exf_atemp_max                =   2.8187938819427E+02
(PID.TID 0000.0001) %MON exf_atemp_min                =   2.3645283916869E+02
(PID.TID 0000.0001) %MON exf_atemp_mean               =   2.6393676873185E+02
(PID.TID 0000.0001) %MON exf_atemp_sd                 =   1.1986338562638E+01
(PID.TID 0000.0001) %MON exf_atemp_del2               =   6.4946076478131E-01
(PID.TID 0000.0001) %MON exf_aqh_max                  =   6.3217798619445E-03
(PID.TID 0000.0001) %MON exf_aqh_min                  =   1.6350454117726E-04
(PID.TID 0000.0001) %MON exf_aqh_mean                 =   2.4792421973794E-03
(PID.TID 0000.0001) %MON exf_aqh_sd                   =   1.4263013062694E-03
(PID.TID 0000.0001) %MON exf_aqh_del2                 =   6.8114445477348E-05
(PID.TID 0000.0001) %MON exf_lwflux_max               =   1.8153743597504E+02
(PID.TID 0000.0001) %MON exf_lwflux_min               =   2.6999313161451E+01
(PID.TID 0000.0001) %MON exf_lwflux_mean              =   7.5148003033591E+01
(PID.TID 0000.0001) %MON exf_lwflux_sd                =   4.2803183327979E+01
(PID.TID 0000.0001) %MON exf_lwflux_del2              =   3.2353096172866E+00
(PID.TID 0000.0001) %MON exf_precip_max               =   1.0499042589295E-07
(PID.TID 0000.0001) %MON exf_precip_min               =   2.7332713399833E-10
(PID.TID 0000.0001) %MON exf_precip_mean              =   3.6390058855016E-08
(PID.TID 0000.0001) %MON exf_precip_sd                =   2.0579049691733E-08
(PID.TID 0000.0001) %MON exf_precip_del2              =   2.5562103721225E-09
(PID.TID 0000.0001) %MON exf_snowprecip_max           =   0.0000000000000E+00
(PID.TID 0000.0001) %MON exf_snowprecip_min           =   0.0000000000000E+00
(PID.TID 0000.0001) %MON exf_snowprecip_mean          =   0.0000000000000E+00
(PID.TID 0000.0001) %MON exf_snowprecip_sd            =   0.0000000000000E+00
(PID.TID 0000.0001) %MON exf_snowprecip_del2          =   0.0000000000000E+00
(PID.TID 0000.0001) %MON exf_swflux_max               =  -8.1206321227746E-02
(PID.TID 0000.0001) %MON exf_swflux_min               =  -6.4010854714816E+01
(PID.TID 0000.0001) %MON exf_swflux_mean              =  -2.6474287454698E+01
(PID.TID 0000.0001) %MON exf_swflux_sd                =   1.9633572905820E+01
(PID.TID 0000.0001) %MON exf_swflux_del2              =   4.7922651344477E-01
(PID.TID 0000.0001) %MON exf_evap_max                 =   4.5333055282436E-08
(PID.TID 0000.0001) %MON exf_evap_min                 =  -4.3262573270113E-09
(PID.TID 0000.0001) %MON exf_evap_mean                =   1.0409139401831E-08
(PID.TID 0000.0001) %MON exf_evap_sd                  =   1.1101640215804E-08
(PID.TID 0000.0001) %MON exf_evap_del2                =   1.3339356458716E-09
(PID.TID 0000.0001) %MON exf_swdown_max               =   7.1123171905351E+01
(PID.TID 0000.0001) %MON exf_swdown_min               =   9.0229245808607E-02
(PID.TID 0000.0001) %MON exf_swdown_mean              =   2.9415874949665E+01
(PID.TID 0000.0001) %MON exf_swdown_sd                =   2.1815081006466E+01
(PID.TID 0000.0001) %MON exf_swdown_del2              =   5.3247390382752E-01
(PID.TID 0000.0001) %MON exf_lwdown_max               =   3.0566206584993E+02
(PID.TID 0000.0001) %MON exf_lwdown_min               =   1.1596747835086E+02
(PID.TID 0000.0001) %MON exf_lwdown_mean              =   2.2591790230100E+02
(PID.TID 0000.0001) %MON exf_lwdown_sd                =   4.6285369157136E+01
(PID.TID 0000.0001) %MON exf_lwdown_del2              =   3.2438445768374E+00
(PID.TID 0000.0001) %MON exf_apressure_max            =   0.0000000000000E+00
(PID.TID 0000.0001) %MON exf_apressure_min            =   0.0000000000000E+00
(PID.TID 0000.0001) %MON exf_apressure_mean           =   0.0000000000000E+00
(PID.TID 0000.0001) %MON exf_apressure_sd             =   0.0000000000000E+00
(PID.TID 0000.0001) %MON exf_apressure_del2           =   0.0000000000000E+00
(PID.TID 0000.0001) %MON exf_runoff_max               =   0.0000000000000E+00
(PID.TID 0000.0001) %MON exf_runoff_min               =   0.0000000000000E+00
(PID.TID 0000.0001) %MON exf_runoff_mean              =   0.0000000000000E+00
(PID.TID 0000.0001) %MON exf_runoff_sd                =   0.0000000000000E+00
(PID.TID 0000.0001) %MON exf_runoff_del2              =   0.0000000000000E+00
(PID.TID 0000.0001) %MON exf_climsst_max              =   0.0000000000000E+00
(PID.TID 0000.0001) %MON exf_climsst_min              =   0.0000000000000E+00
(PID.TID 0000.0001) %MON exf_climsst_mean             =   0.0000000000000E+00
(PID.TID 0000.0001) %MON exf_climsst_sd               =   0.0000000000000E+00
(PID.TID 0000.0001) %MON exf_climsst_del2             =   0.0000000000000E+00
(PID.TID 0000.0001) %MON exf_climsss_max              =   3.5040700380919E+01
(PID.TID 0000.0001) %MON exf_climsss_min              =   3.0667831827383E+01
(PID.TID 0000.0001) %MON exf_climsss_mean             =   3.3460362267948E+01
(PID.TID 0000.0001) %MON exf_climsss_sd               =   1.0318117788237E+00
(PID.TID 0000.0001) %MON exf_climsss_del2             =   1.0015950288060E-01
(PID.TID 0000.0001) // =======================================================
(PID.TID 0000.0001) // End MONITOR EXF statistics
(PID.TID 0000.0001) // =======================================================
 ph-ice B  2  0.  0.  0.
 ph-ice C  2  1.54286127E+11
 cg2d: Sum(rhs),rhsMax =  -4.69101368860692E-10  1.21345933330516E+00
(PID.TID 0000.0001) // =======================================================
(PID.TID 0000.0001) // Begin MONITOR SEAICE statistics
(PID.TID 0000.0001) // =======================================================
(PID.TID 0000.0001) %MON seaice_tsnumber              =                     3
(PID.TID 0000.0001) %MON seaice_time_sec              =   1.0800000000000E+04
(PID.TID 0000.0001) %MON seaice_uice_max              =   1.7677554872669E-01
(PID.TID 0000.0001) %MON seaice_uice_min              =  -9.9473388719800E-02
(PID.TID 0000.0001) %MON seaice_uice_mean             =   7.5385002952149E-02
(PID.TID 0000.0001) %MON seaice_uice_sd               =   7.1157132842658E-02
(PID.TID 0000.0001) %MON seaice_uice_del2             =   8.3170549328876E-03
(PID.TID 0000.0001) %MON seaice_vice_max              =   8.9019948574486E-02
(PID.TID 0000.0001) %MON seaice_vice_min              =  -1.7696029803746E-01
(PID.TID 0000.0001) %MON seaice_vice_mean             =  -2.9256776661506E-02
(PID.TID 0000.0001) %MON seaice_vice_sd               =   5.2264403892570E-02
(PID.TID 0000.0001) %MON seaice_vice_del2             =   6.1178195118999E-03
(PID.TID 0000.0001) %MON seaice_area_max              =   1.0000000000000E+00
(PID.TID 0000.0001) %MON seaice_area_min              =   0.0000000000000E+00
(PID.TID 0000.0001) %MON seaice_area_mean             =   6.2476897718142E-01
(PID.TID 0000.0001) %MON seaice_area_sd               =   4.5908372057759E-01
(PID.TID 0000.0001) %MON seaice_area_del2             =   5.3454378359970E-02
(PID.TID 0000.0001) %MON seaice_heff_max              =   5.5368221576291E-01
(PID.TID 0000.0001) %MON seaice_heff_min              =   0.0000000000000E+00
(PID.TID 0000.0001) %MON seaice_heff_mean             =   1.4210540236627E-01
(PID.TID 0000.0001) %MON seaice_heff_sd               =   1.7434508363011E-01
(PID.TID 0000.0001) %MON seaice_heff_del2             =   1.3231250044036E-02
(PID.TID 0000.0001) %MON seaice_hsnow_max             =   2.0235454638389E-01
(PID.TID 0000.0001) %MON seaice_hsnow_min             =   0.0000000000000E+00
(PID.TID 0000.0001) %MON seaice_hsnow_mean            =   1.1801725658723E-01
(PID.TID 0000.0001) %MON seaice_hsnow_sd              =   9.6786605530354E-02
(PID.TID 0000.0001) %MON seaice_hsnow_del2            =   6.3531464967062E-03
(PID.TID 0000.0001) // =======================================================
(PID.TID 0000.0001) // End MONITOR SEAICE statistics
(PID.TID 0000.0001) // =======================================================
(PID.TID 0000.0001) // =======================================================
(PID.TID 0000.0001) // Begin MONITOR EXF statistics
(PID.TID 0000.0001) // =======================================================
(PID.TID 0000.0001) %MON exf_tsnumber                 =                     3
(PID.TID 0000.0001) %MON exf_time_sec                 =   1.0800000000000E+04
(PID.TID 0000.0001) %MON exf_ustress_max              =   5.2220278364575E-02
(PID.TID 0000.0001) %MON exf_ustress_min              =  -9.3786644941843E-02
(PID.TID 0000.0001) %MON exf_ustress_mean             =   1.7925097922197E-02
(PID.TID 0000.0001) %MON exf_ustress_sd               =   2.3700144361829E-02
(PID.TID 0000.0001) %MON exf_ustress_del2             =   2.8158746958458E-03
(PID.TID 0000.0001) %MON exf_vstress_max              =   5.3827196762903E-02
(PID.TID 0000.0001) %MON exf_vstress_min              =  -5.8480358160308E-02
(PID.TID 0000.0001) %MON exf_vstress_mean             =  -5.4532177850835E-03
(PID.TID 0000.0001) %MON exf_vstress_sd               =   1.4440792845804E-02
(PID.TID 0000.0001) %MON exf_vstress_del2             =   1.6929394828227E-03
(PID.TID 0000.0001) %MON exf_hflux_max                =   6.2482499785037E+02
(PID.TID 0000.0001) %MON exf_hflux_min                =  -5.1652096228497E+01
(PID.TID 0000.0001) %MON exf_hflux_mean               =   1.4608871347463E+02
(PID.TID 0000.0001) %MON exf_hflux_sd                 =   1.8003233305557E+02
(PID.TID 0000.0001) %MON exf_hflux_del2               =   1.6307603309775E+01
(PID.TID 0000.0001) %MON exf_sflux_max                =   3.9014761130189E-08
(PID.TID 0000.0001) %MON exf_sflux_min                =  -8.8949891199051E-08
(PID.TID 0000.0001) %MON exf_sflux_mean               =  -2.5974537144931E-08
(PID.TID 0000.0001) %MON exf_sflux_sd                 =   3.0366720973003E-08
(PID.TID 0000.0001) %MON exf_sflux_del2               =   3.1622834114505E-09
(PID.TID 0000.0001) %MON exf_uwind_max                =   6.4658968995829E+00
(PID.TID 0000.0001) %MON exf_uwind_min                =  -6.8373184184559E+00
(PID.TID 0000.0001) %MON exf_uwind_mean               =   2.7700953906364E+00
(PID.TID 0000.0001) %MON exf_uwind_sd                 =   2.9908682681638E+00
(PID.TID 0000.0001) %MON exf_uwind_del2               =   3.1573366006031E-01
(PID.TID 0000.0001) %MON exf_vwind_max                =   3.9241587548959E+00
(PID.TID 0000.0001) %MON exf_vwind_min                =  -6.0169856587394E+00
(PID.TID 0000.0001) %MON exf_vwind_mean               =  -7.5904536197929E-01
(PID.TID 0000.0001) %MON exf_vwind_sd                 =   1.7296682234552E+00
(PID.TID 0000.0001) %MON exf_vwind_del2               =   1.9331202479855E-01
(PID.TID 0000.0001) %MON exf_wspeed_max               =   7.8833967989048E+00
(PID.TID 0000.0001) %MON exf_wspeed_min               =   4.5962367887737E-01
(PID.TID 0000.0001) %MON exf_wspeed_mean              =   4.1984294286706E+00
(PID.TID 0000.0001) %MON exf_wspeed_sd                =   1.5999418201857E+00
(PID.TID 0000.0001) %MON exf_wspeed_del2              =   3.7709664625274E-01
(PID.TID 0000.0001) %MON exf_atemp_max                =   2.8187767604140E+02
(PID.TID 0000.0001) %MON exf_atemp_min                =   2.3644837420104E+02
(PID.TID 0000.0001) %MON exf_atemp_mean               =   2.6393212465043E+02
(PID.TID 0000.0001) %MON exf_atemp_sd                 =   1.1987800072953E+01
(PID.TID 0000.0001) %MON exf_atemp_del2               =   6.4948010050042E-01
(PID.TID 0000.0001) %MON exf_aqh_max                  =   6.3210833210834E-03
(PID.TID 0000.0001) %MON exf_aqh_min                  =   1.6341043767886E-04
(PID.TID 0000.0001) %MON exf_aqh_mean                 =   2.4786818409748E-03
(PID.TID 0000.0001) %MON exf_aqh_sd                   =   1.4261982746893E-03
(PID.TID 0000.0001) %MON exf_aqh_del2                 =   6.8100777916201E-05
(PID.TID 0000.0001) %MON exf_lwflux_max               =   1.8153866759519E+02
(PID.TID 0000.0001) %MON exf_lwflux_min               =   2.7117659269657E+01
(PID.TID 0000.0001) %MON exf_lwflux_mean              =   7.5167336204726E+01
(PID.TID 0000.0001) %MON exf_lwflux_sd                =   4.2791334979595E+01
(PID.TID 0000.0001) %MON exf_lwflux_del2              =   3.2353470768309E+00
(PID.TID 0000.0001) %MON exf_precip_max               =   1.0499180733557E-07
(PID.TID 0000.0001) %MON exf_precip_min               =   2.7319320752566E-10
(PID.TID 0000.0001) %MON exf_precip_mean              =   3.6390048010982E-08
(PID.TID 0000.0001) %MON exf_precip_sd                =   2.0579501435483E-08
(PID.TID 0000.0001) %MON exf_precip_del2              =   2.5567380653122E-09
(PID.TID 0000.0001) %MON exf_snowprecip_max           =   0.0000000000000E+00
(PID.TID 0000.0001) %MON exf_snowprecip_min           =   0.0000000000000E+00
(PID.TID 0000.0001) %MON exf_snowprecip_mean          =   0.0000000000000E+00
(PID.TID 0000.0001) %MON exf_snowprecip_sd            =   0.0000000000000E+00
(PID.TID 0000.0001) %MON exf_snowprecip_del2          =   0.0000000000000E+00
(PID.TID 0000.0001) %MON exf_swflux_max               =  -8.1206604105527E-02
(PID.TID 0000.0001) %MON exf_swflux_min               =  -6.4029725065388E+01
(PID.TID 0000.0001) %MON exf_swflux_mean              =  -2.6484819670573E+01
(PID.TID 0000.0001) %MON exf_swflux_sd                =   1.9637409707136E+01
(PID.TID 0000.0001) %MON exf_swflux_del2              =   4.7933338739073E-01
(PID.TID 0000.0001) %MON exf_evap_max                 =   4.5336980821491E-08
(PID.TID 0000.0001) %MON exf_evap_min                 =  -4.2852111091094E-09
(PID.TID 0000.0001) %MON exf_evap_mean                =   1.0415510866050E-08
(PID.TID 0000.0001) %MON exf_evap_sd                  =   1.1091288868965E-08
(PID.TID 0000.0001) %MON exf_evap_del2                =   1.3330271239872E-09
(PID.TID 0000.0001) %MON exf_swdown_max               =   7.1144138961542E+01
(PID.TID 0000.0001) %MON exf_swdown_min               =   9.0229560117253E-02
(PID.TID 0000.0001) %MON exf_swdown_mean              =   2.9427577411748E+01
(PID.TID 0000.0001) %MON exf_swdown_sd                =   2.1819344119040E+01
(PID.TID 0000.0001) %MON exf_swdown_del2              =   5.3259265265636E-01
(PID.TID 0000.0001) %MON exf_lwdown_max               =   3.0565323976611E+02
(PID.TID 0000.0001) %MON exf_lwdown_min               =   1.1595237147222E+02
(PID.TID 0000.0001) %MON exf_lwdown_mean              =   2.2590219497194E+02
(PID.TID 0000.0001) %MON exf_lwdown_sd                =   4.6289340871590E+01
(PID.TID 0000.0001) %MON exf_lwdown_del2              =   3.2438562169101E+00
(PID.TID 0000.0001) %MON exf_apressure_max            =   0.0000000000000E+00
(PID.TID 0000.0001) %MON exf_apressure_min            =   0.0000000000000E+00
(PID.TID 0000.0001) %MON exf_apressure_mean           =   0.0000000000000E+00
(PID.TID 0000.0001) %MON exf_apressure_sd             =   0.0000000000000E+00
(PID.TID 0000.0001) %MON exf_apressure_del2           =   0.0000000000000E+00
(PID.TID 0000.0001) %MON exf_runoff_max               =   0.0000000000000E+00
(PID.TID 0000.0001) %MON exf_runoff_min               =   0.0000000000000E+00
(PID.TID 0000.0001) %MON exf_runoff_mean              =   0.0000000000000E+00
(PID.TID 0000.0001) %MON exf_runoff_sd                =   0.0000000000000E+00
(PID.TID 0000.0001) %MON exf_runoff_del2              =   0.0000000000000E+00
(PID.TID 0000.0001) %MON exf_climsst_max              =   0.0000000000000E+00
(PID.TID 0000.0001) %MON exf_climsst_min              =   0.0000000000000E+00
(PID.TID 0000.0001) %MON exf_climsst_mean             =   0.0000000000000E+00
(PID.TID 0000.0001) %MON exf_climsst_sd               =   0.0000000000000E+00
(PID.TID 0000.0001) %MON exf_climsst_del2             =   0.0000000000000E+00
(PID.TID 0000.0001) %MON exf_climsss_max              =   3.5040885127959E+01
(PID.TID 0000.0001) %MON exf_climsss_min              =   3.0668591155380E+01
(PID.TID 0000.0001) %MON exf_climsss_mean             =   3.3460883601427E+01
(PID.TID 0000.0001) %MON exf_climsss_sd               =   1.0317405668875E+00
(PID.TID 0000.0001) %MON exf_climsss_del2             =   1.0014227359021E-01
(PID.TID 0000.0001) // =======================================================
(PID.TID 0000.0001) // End MONITOR EXF statistics
(PID.TID 0000.0001) // =======================================================
 ph-ice B  3  0.  0.  0.
 ph-ice C  3  2.0493353E+11
 cg2d: Sum(rhs),rhsMax =   3.25076925274115E-08  1.21053585006592E+00
(PID.TID 0000.0001) // =======================================================
(PID.TID 0000.0001) // Begin MONITOR SEAICE statistics
(PID.TID 0000.0001) // =======================================================
(PID.TID 0000.0001) %MON seaice_tsnumber              =                     4
(PID.TID 0000.0001) %MON seaice_time_sec              =   1.4400000000000E+04
(PID.TID 0000.0001) %MON seaice_uice_max              =   2.0410589050524E-01
(PID.TID 0000.0001) %MON seaice_uice_min              =  -1.0820664027344E-01
(PID.TID 0000.0001) %MON seaice_uice_mean             =   8.1218984110860E-02
(PID.TID 0000.0001) %MON seaice_uice_sd               =   7.8521086106166E-02
(PID.TID 0000.0001) %MON seaice_uice_del2             =   9.4129444122896E-03
(PID.TID 0000.0001) %MON seaice_vice_max              =   9.9288498725430E-02
(PID.TID 0000.0001) %MON seaice_vice_min              =  -1.9612309363057E-01
(PID.TID 0000.0001) %MON seaice_vice_mean             =  -3.7794407764108E-02
(PID.TID 0000.0001) %MON seaice_vice_sd               =   6.1057449803526E-02
(PID.TID 0000.0001) %MON seaice_vice_del2             =   6.9481562240395E-03
(PID.TID 0000.0001) %MON seaice_area_max              =   1.0000000000000E+00
(PID.TID 0000.0001) %MON seaice_area_min              =   0.0000000000000E+00
(PID.TID 0000.0001) %MON seaice_area_mean             =   6.2448981977999E-01
(PID.TID 0000.0001) %MON seaice_area_sd               =   4.5884251979788E-01
(PID.TID 0000.0001) %MON seaice_area_del2             =   5.3567460296176E-02
(PID.TID 0000.0001) %MON seaice_heff_max              =   5.5146835059086E-01
(PID.TID 0000.0001) %MON seaice_heff_min              =   0.0000000000000E+00
(PID.TID 0000.0001) %MON seaice_heff_mean             =   1.4217097570791E-01
(PID.TID 0000.0001) %MON seaice_heff_sd               =   1.7417998901694E-01
(PID.TID 0000.0001) %MON seaice_heff_del2             =   1.3240083601495E-02
(PID.TID 0000.0001) %MON seaice_hsnow_max             =   2.0313961711978E-01
(PID.TID 0000.0001) %MON seaice_hsnow_min             =   0.0000000000000E+00
(PID.TID 0000.0001) %MON seaice_hsnow_mean            =   1.1810788894328E-01
(PID.TID 0000.0001) %MON seaice_hsnow_sd              =   9.6917239053245E-02
(PID.TID 0000.0001) %MON seaice_hsnow_del2            =   6.4249668005139E-03
(PID.TID 0000.0001) // =======================================================
(PID.TID 0000.0001) // End MONITOR SEAICE statistics
(PID.TID 0000.0001) // =======================================================
(PID.TID 0000.0001) // =======================================================
(PID.TID 0000.0001) // Begin MONITOR EXF statistics
(PID.TID 0000.0001) // =======================================================
(PID.TID 0000.0001) %MON exf_tsnumber                 =                     4
(PID.TID 0000.0001) %MON exf_time_sec                 =   1.4400000000000E+04
(PID.TID 0000.0001) %MON exf_ustress_max              =   5.2222749041061E-02
(PID.TID 0000.0001) %MON exf_ustress_min              =  -9.3790194486454E-02
(PID.TID 0000.0001) %MON exf_ustress_mean             =   1.7935665485527E-02
(PID.TID 0000.0001) %MON exf_ustress_sd               =   2.3707712997103E-02
(PID.TID 0000.0001) %MON exf_ustress_del2             =   2.8164274668446E-03
(PID.TID 0000.0001) %MON exf_vstress_max              =   5.3829437114216E-02
(PID.TID 0000.0001) %MON exf_vstress_min              =  -5.8464476572401E-02
(PID.TID 0000.0001) %MON exf_vstress_mean             =  -5.4495371452840E-03
(PID.TID 0000.0001) %MON exf_vstress_sd               =   1.4442680823552E-02
(PID.TID 0000.0001) %MON exf_vstress_del2             =   1.6931343130177E-03
(PID.TID 0000.0001) %MON exf_hflux_max                =   6.2496267398705E+02
(PID.TID 0000.0001) %MON exf_hflux_min                =  -5.1565362848354E+01
(PID.TID 0000.0001) %MON exf_hflux_mean               =   1.4615661212723E+02
(PID.TID 0000.0001) %MON exf_hflux_sd                 =   1.8002235265838E+02
(PID.TID 0000.0001) %MON exf_hflux_del2               =   1.6301995579530E+01
(PID.TID 0000.0001) %MON exf_sflux_max                =   3.9025647077274E-08
(PID.TID 0000.0001) %MON exf_sflux_min                =  -8.8952139751879E-08
(PID.TID 0000.0001) %MON exf_sflux_mean               =  -2.5966971381175E-08
(PID.TID 0000.0001) %MON exf_sflux_sd                 =   3.0361915233538E-08
(PID.TID 0000.0001) %MON exf_sflux_del2               =   3.1623402330363E-09
(PID.TID 0000.0001) %MON exf_uwind_max                =   6.4664043520318E+00
(PID.TID 0000.0001) %MON exf_uwind_min                =  -6.8373452001582E+00
(PID.TID 0000.0001) %MON exf_uwind_mean               =   2.7702029429808E+00
(PID.TID 0000.0001) %MON exf_uwind_sd                 =   2.9911443548250E+00
(PID.TID 0000.0001) %MON exf_uwind_del2               =   3.1574156428286E-01
(PID.TID 0000.0001) %MON exf_vwind_max                =   3.9241889356915E+00
(PID.TID 0000.0001) %MON exf_vwind_min                =  -6.0160797489145E+00
(PID.TID 0000.0001) %MON exf_vwind_mean               =  -7.5842758888917E-01
(PID.TID 0000.0001) %MON exf_vwind_sd                 =   1.7297766046368E+00
(PID.TID 0000.0001) %MON exf_vwind_del2               =   1.9330515345662E-01
(PID.TID 0000.0001) %MON exf_wspeed_max               =   7.8834350500991E+00
(PID.TID 0000.0001) %MON exf_wspeed_min               =   4.5938084481311E-01
(PID.TID 0000.0001) %MON exf_wspeed_mean              =   4.1985322596174E+00
(PID.TID 0000.0001) %MON exf_wspeed_sd                =   1.6001985099325E+00
(PID.TID 0000.0001) %MON exf_wspeed_del2              =   3.7714995543655E-01
(PID.TID 0000.0001) %MON exf_atemp_max                =   2.8187596388853E+02
(PID.TID 0000.0001) %MON exf_atemp_min                =   2.3644390923339E+02
(PID.TID 0000.0001) %MON exf_atemp_mean               =   2.6392748056902E+02
(PID.TID 0000.0001) %MON exf_atemp_sd                 =   1.1989262070722E+01
(PID.TID 0000.0001) %MON exf_atemp_del2               =   6.4949943621953E-01
(PID.TID 0000.0001) %MON exf_aqh_max                  =   6.3203867802223E-03
(PID.TID 0000.0001) %MON exf_aqh_min                  =   1.6331633418045E-04
(PID.TID 0000.0001) %MON exf_aqh_mean                 =   2.4781214845702E-03
(PID.TID 0000.0001) %MON exf_aqh_sd                   =   1.4260952789855E-03
(PID.TID 0000.0001) %MON exf_aqh_del2                 =   6.8087110355054E-05
(PID.TID 0000.0001) %MON exf_lwflux_max               =   1.8154800702574E+02
(PID.TID 0000.0001) %MON exf_lwflux_min               =   2.7104463757487E+01
(PID.TID 0000.0001) %MON exf_lwflux_mean              =   7.5190183049364E+01
(PID.TID 0000.0001) %MON exf_lwflux_sd                =   4.2783227159737E+01
(PID.TID 0000.0001) %MON exf_lwflux_del2              =   3.2333537037725E+00
(PID.TID 0000.0001) %MON exf_precip_max               =   1.0499318877820E-07
(PID.TID 0000.0001) %MON exf_precip_min               =   2.7305928105298E-10
(PID.TID 0000.0001) %MON exf_precip_mean              =   3.6390037166947E-08
(PID.TID 0000.0001) %MON exf_precip_sd                =   2.0579953834835E-08
(PID.TID 0000.0001) %MON exf_precip_del2              =   2.5572657585019E-09
(PID.TID 0000.0001) %MON exf_snowprecip_max           =   0.0000000000000E+00
(PID.TID 0000.0001) %MON exf_snowprecip_min           =   0.0000000000000E+00
(PID.TID 0000.0001) %MON exf_snowprecip_mean          =   0.0000000000000E+00
(PID.TID 0000.0001) %MON exf_snowprecip_sd            =   0.0000000000000E+00
(PID.TID 0000.0001) %MON exf_snowprecip_del2          =   0.0000000000000E+00
(PID.TID 0000.0001) %MON exf_swflux_max               =  -8.1206886983309E-02
(PID.TID 0000.0001) %MON exf_swflux_min               =  -6.4048595415960E+01
(PID.TID 0000.0001) %MON exf_swflux_mean              =  -2.6495351886448E+01
(PID.TID 0000.0001) %MON exf_swflux_sd                =   1.9641247100083E+01
(PID.TID 0000.0001) %MON exf_swflux_del2              =   4.7944026133668E-01
(PID.TID 0000.0001) %MON exf_evap_max                 =   4.5347204057645E-08
(PID.TID 0000.0001) %MON exf_evap_min                 =  -4.2663929298384E-09
(PID.TID 0000.0001) %MON exf_evap_mean                =   1.0423065785772E-08
(PID.TID 0000.0001) %MON exf_evap_sd                  =   1.1085437961044E-08
(PID.TID 0000.0001) %MON exf_evap_del2                =   1.3323749902301E-09
(PID.TID 0000.0001) %MON exf_swdown_max               =   7.1165106017733E+01
(PID.TID 0000.0001) %MON exf_swdown_min               =   9.0229874425898E-02
(PID.TID 0000.0001) %MON exf_swdown_mean              =   2.9439279873831E+01
(PID.TID 0000.0001) %MON exf_swdown_sd                =   2.1823607888981E+01
(PID.TID 0000.0001) %MON exf_swdown_del2              =   5.3271140148521E-01
(PID.TID 0000.0001) %MON exf_lwdown_max               =   3.0564441368228E+02
(PID.TID 0000.0001) %MON exf_lwdown_min               =   1.1593726459357E+02
(PID.TID 0000.0001) %MON exf_lwdown_mean              =   2.2588648764287E+02
(PID.TID 0000.0001) %MON exf_lwdown_sd                =   4.6293313753333E+01
(PID.TID 0000.0001) %MON exf_lwdown_del2              =   3.2438678569828E+00
(PID.TID 0000.0001) %MON exf_apressure_max            =   0.0000000000000E+00
(PID.TID 0000.0001) %MON exf_apressure_min            =   0.0000000000000E+00
(PID.TID 0000.0001) %MON exf_apressure_mean           =   0.0000000000000E+00
(PID.TID 0000.0001) %MON exf_apressure_sd             =   0.0000000000000E+00
(PID.TID 0000.0001) %MON exf_apressure_del2           =   0.0000000000000E+00
(PID.TID 0000.0001) %MON exf_runoff_max               =   0.0000000000000E+00
(PID.TID 0000.0001) %MON exf_runoff_min               =   0.0000000000000E+00
(PID.TID 0000.0001) %MON exf_runoff_mean              =   0.0000000000000E+00
(PID.TID 0000.0001) %MON exf_runoff_sd                =   0.0000000000000E+00
(PID.TID 0000.0001) %MON exf_runoff_del2              =   0.0000000000000E+00
(PID.TID 0000.0001) %MON exf_climsst_max              =   0.0000000000000E+00
(PID.TID 0000.0001) %MON exf_climsst_min              =   0.0000000000000E+00
(PID.TID 0000.0001) %MON exf_climsst_mean             =   0.0000000000000E+00
(PID.TID 0000.0001) %MON exf_climsst_sd               =   0.0000000000000E+00
(PID.TID 0000.0001) %MON exf_climsst_del2             =   0.0000000000000E+00
(PID.TID 0000.0001) %MON exf_climsss_max              =   3.5041069874998E+01
(PID.TID 0000.0001) %MON exf_climsss_min              =   3.0669350483378E+01
(PID.TID 0000.0001) %MON exf_climsss_mean             =   3.3461404934907E+01
(PID.TID 0000.0001) %MON exf_climsss_sd               =   1.0316695849659E+00
(PID.TID 0000.0001) %MON exf_climsss_del2             =   1.0012504429982E-01
(PID.TID 0000.0001) // =======================================================
(PID.TID 0000.0001) // End MONITOR EXF statistics
(PID.TID 0000.0001) // =======================================================
 ph-ice B  4  0.  0.  0.
 ph-ice C  4  2.55604342E+11
 cg2d: Sum(rhs),rhsMax =   3.22657277666838E-08  1.20538354970452E+00
(PID.TID 0000.0001) // =======================================================
(PID.TID 0000.0001) // Begin MONITOR SEAICE statistics
(PID.TID 0000.0001) // =======================================================
(PID.TID 0000.0001) %MON seaice_tsnumber              =                     5
(PID.TID 0000.0001) %MON seaice_time_sec              =   1.8000000000000E+04
(PID.TID 0000.0001) %MON seaice_uice_max              =   2.1945234723102E-01
(PID.TID 0000.0001) %MON seaice_uice_min              =  -1.0939009902188E-01
(PID.TID 0000.0001) %MON seaice_uice_mean             =   8.3081242587702E-02
(PID.TID 0000.0001) %MON seaice_uice_sd               =   8.3462634216210E-02
(PID.TID 0000.0001) %MON seaice_uice_del2             =   1.0024495549735E-02
(PID.TID 0000.0001) %MON seaice_vice_max              =   1.0086574995537E-01
(PID.TID 0000.0001) %MON seaice_vice_min              =  -1.9808188817397E-01
(PID.TID 0000.0001) %MON seaice_vice_mean             =  -4.6968659047518E-02
(PID.TID 0000.0001) %MON seaice_vice_sd               =   6.7920730272168E-02
(PID.TID 0000.0001) %MON seaice_vice_del2             =   7.5957133255993E-03
(PID.TID 0000.0001) %MON seaice_area_max              =   1.0000000000000E+00
(PID.TID 0000.0001) %MON seaice_area_min              =   0.0000000000000E+00
(PID.TID 0000.0001) %MON seaice_area_mean             =   6.2430151764568E-01
(PID.TID 0000.0001) %MON seaice_area_sd               =   4.5848054844902E-01
(PID.TID 0000.0001) %MON seaice_area_del2             =   5.3614977119273E-02
(PID.TID 0000.0001) %MON seaice_heff_max              =   5.4903937822397E-01
(PID.TID 0000.0001) %MON seaice_heff_min              =   0.0000000000000E+00
(PID.TID 0000.0001) %MON seaice_heff_mean             =   1.4223668671031E-01
(PID.TID 0000.0001) %MON seaice_heff_sd               =   1.7414946674182E-01
(PID.TID 0000.0001) %MON seaice_heff_del2             =   1.3251351377837E-02
(PID.TID 0000.0001) %MON seaice_hsnow_max             =   2.0392476353420E-01
(PID.TID 0000.0001) %MON seaice_hsnow_min             =   0.0000000000000E+00
(PID.TID 0000.0001) %MON seaice_hsnow_mean            =   1.1825099133930E-01
(PID.TID 0000.0001) %MON seaice_hsnow_sd              =   9.7044356052270E-02
(PID.TID 0000.0001) %MON seaice_hsnow_del2            =   6.4762509764763E-03
(PID.TID 0000.0001) // =======================================================
(PID.TID 0000.0001) // End MONITOR SEAICE statistics
(PID.TID 0000.0001) // =======================================================
(PID.TID 0000.0001) // =======================================================
(PID.TID 0000.0001) // Begin MONITOR EXF statistics
(PID.TID 0000.0001) // =======================================================
(PID.TID 0000.0001) %MON exf_tsnumber                 =                     5
(PID.TID 0000.0001) %MON exf_time_sec                 =   1.8000000000000E+04
(PID.TID 0000.0001) %MON exf_ustress_max              =   5.2230884118749E-02
(PID.TID 0000.0001) %MON exf_ustress_min              =  -9.3792692313510E-02
(PID.TID 0000.0001) %MON exf_ustress_mean             =   1.7944942264536E-02
(PID.TID 0000.0001) %MON exf_ustress_sd               =   2.3713964450054E-02
(PID.TID 0000.0001) %MON exf_ustress_del2             =   2.8173058622559E-03
(PID.TID 0000.0001) %MON exf_vstress_max              =   5.3831073859948E-02
(PID.TID 0000.0001) %MON exf_vstress_min              =  -5.8456785541550E-02
(PID.TID 0000.0001) %MON exf_vstress_mean             =  -5.4464509574194E-03
(PID.TID 0000.0001) %MON exf_vstress_sd               =   1.4444945290983E-02
(PID.TID 0000.0001) %MON exf_vstress_del2             =   1.6932730593427E-03
(PID.TID 0000.0001) %MON exf_hflux_max                =   6.2503361232612E+02
(PID.TID 0000.0001) %MON exf_hflux_min                =  -5.1451597176314E+01
(PID.TID 0000.0001) %MON exf_hflux_mean               =   1.4623263015423E+02
(PID.TID 0000.0001) %MON exf_hflux_sd                 =   1.8002328504087E+02
(PID.TID 0000.0001) %MON exf_hflux_del2               =   1.6300995690296E+01
(PID.TID 0000.0001) %MON exf_sflux_max                =   3.9028023656354E-08
(PID.TID 0000.0001) %MON exf_sflux_min                =  -8.8915527495764E-08
(PID.TID 0000.0001) %MON exf_sflux_mean               =  -2.5958890481060E-08
(PID.TID 0000.0001) %MON exf_sflux_sd                 =   3.0357858469045E-08
(PID.TID 0000.0001) %MON exf_sflux_del2               =   3.1625241978494E-09
(PID.TID 0000.0001) %MON exf_uwind_max                =   6.4669118044806E+00
(PID.TID 0000.0001) %MON exf_uwind_min                =  -6.8373719818605E+00
(PID.TID 0000.0001) %MON exf_uwind_mean               =   2.7703104953252E+00
(PID.TID 0000.0001) %MON exf_uwind_sd                 =   2.9914204817202E+00
(PID.TID 0000.0001) %MON exf_uwind_del2               =   3.1574946850541E-01
(PID.TID 0000.0001) %MON exf_vwind_max                =   3.9242191164871E+00
(PID.TID 0000.0001) %MON exf_vwind_min                =  -6.0151738390896E+00
(PID.TID 0000.0001) %MON exf_vwind_mean               =  -7.5780981579906E-01
(PID.TID 0000.0001) %MON exf_vwind_sd                 =   1.7298850990135E+00
(PID.TID 0000.0001) %MON exf_vwind_del2               =   1.9329828211469E-01
(PID.TID 0000.0001) %MON exf_wspeed_max               =   7.8834733013142E+00
(PID.TID 0000.0001) %MON exf_wspeed_min               =   4.5913801314248E-01
(PID.TID 0000.0001) %MON exf_wspeed_mean              =   4.1986352194932E+00
(PID.TID 0000.0001) %MON exf_wspeed_sd                =   1.6004553118739E+00
(PID.TID 0000.0001) %MON exf_wspeed_del2              =   3.7720325813743E-01
(PID.TID 0000.0001) %MON exf_atemp_max                =   2.8187425173567E+02
(PID.TID 0000.0001) %MON exf_atemp_min                =   2.3643944426573E+02
(PID.TID 0000.0001) %MON exf_atemp_mean               =   2.6392283648761E+02
(PID.TID 0000.0001) %MON exf_atemp_sd                 =   1.1990724555768E+01
(PID.TID 0000.0001) %MON exf_atemp_del2               =   6.4951877193864E-01
(PID.TID 0000.0001) %MON exf_aqh_max                  =   6.3196902393613E-03
(PID.TID 0000.0001) %MON exf_aqh_min                  =   1.6322223068205E-04
(PID.TID 0000.0001) %MON exf_aqh_mean                 =   2.4775611281656E-03
(PID.TID 0000.0001) %MON exf_aqh_sd                   =   1.4259923191659E-03
(PID.TID 0000.0001) %MON exf_aqh_del2                 =   6.8073442793907E-05
(PID.TID 0000.0001) %MON exf_lwflux_max               =   1.8156112611885E+02
(PID.TID 0000.0001) %MON exf_lwflux_min               =   2.7075633198801E+01
(PID.TID 0000.0001) %MON exf_lwflux_mean              =   7.5214636810099E+01
(PID.TID 0000.0001) %MON exf_lwflux_sd                =   4.2777641793597E+01
(PID.TID 0000.0001) %MON exf_lwflux_del2              =   3.2323846085954E+00
(PID.TID 0000.0001) %MON exf_precip_max               =   1.0499457022082E-07
(PID.TID 0000.0001) %MON exf_precip_min               =   2.7292535458031E-10
(PID.TID 0000.0001) %MON exf_precip_mean              =   3.6390026322913E-08
(PID.TID 0000.0001) %MON exf_precip_sd                =   2.0580406889746E-08
(PID.TID 0000.0001) %MON exf_precip_del2              =   2.5577934516916E-09
(PID.TID 0000.0001) %MON exf_snowprecip_max           =   0.0000000000000E+00
(PID.TID 0000.0001) %MON exf_snowprecip_min           =   0.0000000000000E+00
(PID.TID 0000.0001) %MON exf_snowprecip_mean          =   0.0000000000000E+00
(PID.TID 0000.0001) %MON exf_snowprecip_sd            =   0.0000000000000E+00
(PID.TID 0000.0001) %MON exf_snowprecip_del2          =   0.0000000000000E+00
(PID.TID 0000.0001) %MON exf_swflux_max               =  -8.1207169861090E-02
(PID.TID 0000.0001) %MON exf_swflux_min               =  -6.4067465766532E+01
(PID.TID 0000.0001) %MON exf_swflux_mean              =  -2.6505884102323E+01
(PID.TID 0000.0001) %MON exf_swflux_sd                =   1.9645085084315E+01
(PID.TID 0000.0001) %MON exf_swflux_del2              =   4.7954713528264E-01
(PID.TID 0000.0001) %MON exf_evap_max                 =   4.5348917925795E-08
(PID.TID 0000.0001) %MON exf_evap_min                 =  -4.2424751057491E-09
(PID.TID 0000.0001) %MON exf_evap_mean                =   1.0431135841853E-08
(PID.TID 0000.0001) %MON exf_evap_sd                  =   1.1081500991643E-08
(PID.TID 0000.0001) %MON exf_evap_del2                =   1.3323464356590E-09
(PID.TID 0000.0001) %MON exf_swdown_max               =   7.1186073073924E+01
(PID.TID 0000.0001) %MON exf_swdown_min               =   9.0230188734544E-02
(PID.TID 0000.0001) %MON exf_swdown_mean              =   2.9450982335914E+01
(PID.TID 0000.0001) %MON exf_swdown_sd                =   2.1827872315905E+01
(PID.TID 0000.0001) %MON exf_swdown_del2              =   5.3283015031405E-01
(PID.TID 0000.0001) %MON exf_lwdown_max               =   3.0563558759846E+02
(PID.TID 0000.0001) %MON exf_lwdown_min               =   1.1592215771493E+02
(PID.TID 0000.0001) %MON exf_lwdown_mean              =   2.2587078031381E+02
(PID.TID 0000.0001) %MON exf_lwdown_sd                =   4.6297287802066E+01
(PID.TID 0000.0001) %MON exf_lwdown_del2              =   3.2438794970556E+00
(PID.TID 0000.0001) %MON exf_apressure_max            =   0.0000000000000E+00
(PID.TID 0000.0001) %MON exf_apressure_min            =   0.0000000000000E+00
(PID.TID 0000.0001) %MON exf_apressure_mean           =   0.0000000000000E+00
(PID.TID 0000.0001) %MON exf_apressure_sd             =   0.0000000000000E+00
(PID.TID 0000.0001) %MON exf_apressure_del2           =   0.0000000000000E+00
(PID.TID 0000.0001) %MON exf_runoff_max               =   0.0000000000000E+00
(PID.TID 0000.0001) %MON exf_runoff_min               =   0.0000000000000E+00
(PID.TID 0000.0001) %MON exf_runoff_mean              =   0.0000000000000E+00
(PID.TID 0000.0001) %MON exf_runoff_sd                =   0.0000000000000E+00
(PID.TID 0000.0001) %MON exf_runoff_del2              =   0.0000000000000E+00
(PID.TID 0000.0001) %MON exf_climsst_max              =   0.0000000000000E+00
(PID.TID 0000.0001) %MON exf_climsst_min              =   0.0000000000000E+00
(PID.TID 0000.0001) %MON exf_climsst_mean             =   0.0000000000000E+00
(PID.TID 0000.0001) %MON exf_climsst_sd               =   0.0000000000000E+00
(PID.TID 0000.0001) %MON exf_climsst_del2             =   0.0000000000000E+00
(PID.TID 0000.0001) %MON exf_climsss_max              =   3.5041254622037E+01
(PID.TID 0000.0001) %MON exf_climsss_min              =   3.0670109811376E+01
(PID.TID 0000.0001) %MON exf_climsss_mean             =   3.3461926268386E+01
(PID.TID 0000.0001) %MON exf_climsss_sd               =   1.0315988331065E+00
(PID.TID 0000.0001) %MON exf_climsss_del2             =   1.0010781500943E-01
(PID.TID 0000.0001) // =======================================================
(PID.TID 0000.0001) // End MONITOR EXF statistics
(PID.TID 0000.0001) // =======================================================
 ph-ice B  5  0.  0.  0.
 ph-ice C  5  3.06281481E+11
 cg2d: Sum(rhs),rhsMax =   3.20074669719894E-08  1.19996683541184E+00
(PID.TID 0000.0001) // =======================================================
(PID.TID 0000.0001) // Begin MONITOR SEAICE statistics
(PID.TID 0000.0001) // =======================================================
(PID.TID 0000.0001) %MON seaice_tsnumber              =                     6
(PID.TID 0000.0001) %MON seaice_time_sec              =   2.1600000000000E+04
(PID.TID 0000.0001) %MON seaice_uice_max              =   2.3992550311378E-01
(PID.TID 0000.0001) %MON seaice_uice_min              =  -1.0534849502404E-01
(PID.TID 0000.0001) %MON seaice_uice_mean             =   8.0979831709473E-02
(PID.TID 0000.0001) %MON seaice_uice_sd               =   8.5693570068436E-02
(PID.TID 0000.0001) %MON seaice_uice_del2             =   1.0079235396740E-02
(PID.TID 0000.0001) %MON seaice_vice_max              =   9.8351447692705E-02
(PID.TID 0000.0001) %MON seaice_vice_min              =  -2.1228924470098E-01
(PID.TID 0000.0001) %MON seaice_vice_mean             =  -5.4937725082942E-02
(PID.TID 0000.0001) %MON seaice_vice_sd               =   7.2061822716631E-02
(PID.TID 0000.0001) %MON seaice_vice_del2             =   8.0226255965277E-03
(PID.TID 0000.0001) %MON seaice_area_max              =   1.0000000000000E+00
(PID.TID 0000.0001) %MON seaice_area_min              =   0.0000000000000E+00
(PID.TID 0000.0001) %MON seaice_area_mean             =   6.2417688126458E-01
(PID.TID 0000.0001) %MON seaice_area_sd               =   4.5808407395880E-01
(PID.TID 0000.0001) %MON seaice_area_del2             =   5.3631185221998E-02
(PID.TID 0000.0001) %MON seaice_heff_max              =   5.4790358803100E-01
(PID.TID 0000.0001) %MON seaice_heff_min              =   0.0000000000000E+00
(PID.TID 0000.0001) %MON seaice_heff_mean             =   1.4225444806775E-01
(PID.TID 0000.0001) %MON seaice_heff_sd               =   1.7422556747938E-01
(PID.TID 0000.0001) %MON seaice_heff_del2             =   1.3241117504268E-02
(PID.TID 0000.0001) %MON seaice_hsnow_max             =   2.0470995401276E-01
(PID.TID 0000.0001) %MON seaice_hsnow_min             =   0.0000000000000E+00
(PID.TID 0000.0001) %MON seaice_hsnow_mean            =   1.1841143346936E-01
(PID.TID 0000.0001) %MON seaice_hsnow_sd              =   9.7165681944235E-02
(PID.TID 0000.0001) %MON seaice_hsnow_del2            =   6.5148328909940E-03
(PID.TID 0000.0001) // =======================================================
(PID.TID 0000.0001) // End MONITOR SEAICE statistics
(PID.TID 0000.0001) // =======================================================
(PID.TID 0000.0001) // =======================================================
(PID.TID 0000.0001) // Begin MONITOR EXF statistics
(PID.TID 0000.0001) // =======================================================
(PID.TID 0000.0001) %MON exf_tsnumber                 =                     6
(PID.TID 0000.0001) %MON exf_time_sec                 =   2.1600000000000E+04
(PID.TID 0000.0001) %MON exf_ustress_max              =   5.2237984460864E-02
(PID.TID 0000.0001) %MON exf_ustress_min              =  -9.3794680426849E-02
(PID.TID 0000.0001) %MON exf_ustress_mean             =   1.7953015700085E-02
(PID.TID 0000.0001) %MON exf_ustress_sd               =   2.3720087814817E-02
(PID.TID 0000.0001) %MON exf_ustress_del2             =   2.8182316021986E-03
(PID.TID 0000.0001) %MON exf_vstress_max              =   5.3832418070366E-02
(PID.TID 0000.0001) %MON exf_vstress_min              =  -5.8451170704946E-02
(PID.TID 0000.0001) %MON exf_vstress_mean             =  -5.4433696549191E-03
(PID.TID 0000.0001) %MON exf_vstress_sd               =   1.4447187912000E-02
(PID.TID 0000.0001) %MON exf_vstress_del2             =   1.6932777823770E-03
(PID.TID 0000.0001) %MON exf_hflux_max                =   6.2507220073354E+02
(PID.TID 0000.0001) %MON exf_hflux_min                =  -5.1351196124028E+01
(PID.TID 0000.0001) %MON exf_hflux_mean               =   1.4630895869360E+02
(PID.TID 0000.0001) %MON exf_hflux_sd                 =   1.8003247188243E+02
(PID.TID 0000.0001) %MON exf_hflux_del2               =   1.6303854681576E+01
(PID.TID 0000.0001) %MON exf_sflux_max                =   3.9026275524073E-08
(PID.TID 0000.0001) %MON exf_sflux_min                =  -8.8868954878121E-08
(PID.TID 0000.0001) %MON exf_sflux_mean               =  -2.5950940614843E-08
(PID.TID 0000.0001) %MON exf_sflux_sd                 =   3.0354688325021E-08
(PID.TID 0000.0001) %MON exf_sflux_del2               =   3.1631221271937E-09
(PID.TID 0000.0001) %MON exf_uwind_max                =   6.4674192569295E+00
(PID.TID 0000.0001) %MON exf_uwind_min                =  -6.8373987635628E+00
(PID.TID 0000.0001) %MON exf_uwind_mean               =   2.7704180476696E+00
(PID.TID 0000.0001) %MON exf_uwind_sd                 =   2.9916966488382E+00
(PID.TID 0000.0001) %MON exf_uwind_del2               =   3.1575737272796E-01
(PID.TID 0000.0001) %MON exf_vwind_max                =   3.9242492972827E+00
(PID.TID 0000.0001) %MON exf_vwind_min                =  -6.0142679292648E+00
(PID.TID 0000.0001) %MON exf_vwind_mean               =  -7.5719204270894E-01
(PID.TID 0000.0001) %MON exf_vwind_sd                 =   1.7299937065642E+00
(PID.TID 0000.0001) %MON exf_vwind_del2               =   1.9329141077275E-01
(PID.TID 0000.0001) %MON exf_wspeed_max               =   7.8835115525503E+00
(PID.TID 0000.0001) %MON exf_wspeed_min               =   4.5889518386928E-01
(PID.TID 0000.0001) %MON exf_wspeed_mean              =   4.1987383082859E+00
(PID.TID 0000.0001) %MON exf_wspeed_sd                =   1.6007122259633E+00
(PID.TID 0000.0001) %MON exf_wspeed_del2              =   3.7725655435875E-01
(PID.TID 0000.0001) %MON exf_atemp_max                =   2.8187253958280E+02
(PID.TID 0000.0001) %MON exf_atemp_min                =   2.3643497929808E+02
(PID.TID 0000.0001) %MON exf_atemp_mean               =   2.6391819240620E+02
(PID.TID 0000.0001) %MON exf_atemp_sd                 =   1.1992187527911E+01
(PID.TID 0000.0001) %MON exf_atemp_del2               =   6.4953810765774E-01
(PID.TID 0000.0001) %MON exf_aqh_max                  =   6.3189936985002E-03
(PID.TID 0000.0001) %MON exf_aqh_min                  =   1.6312812718364E-04
(PID.TID 0000.0001) %MON exf_aqh_mean                 =   2.4770007717611E-03
(PID.TID 0000.0001) %MON exf_aqh_sd                   =   1.4258893952382E-03
(PID.TID 0000.0001) %MON exf_aqh_del2                 =   6.8059775232760E-05
(PID.TID 0000.0001) %MON exf_lwflux_max               =   1.8157457967835E+02
(PID.TID 0000.0001) %MON exf_lwflux_min               =   2.7062314875477E+01
(PID.TID 0000.0001) %MON exf_lwflux_mean              =   7.5238126553147E+01
(PID.TID 0000.0001) %MON exf_lwflux_sd                =   4.2774678308111E+01
(PID.TID 0000.0001) %MON exf_lwflux_del2              =   3.2322314006093E+00
(PID.TID 0000.0001) %MON exf_precip_max               =   1.0499595166344E-07
(PID.TID 0000.0001) %MON exf_precip_min               =   2.7279142810763E-10
(PID.TID 0000.0001) %MON exf_precip_mean              =   3.6390015478879E-08
(PID.TID 0000.0001) %MON exf_precip_sd                =   2.0580860600171E-08
(PID.TID 0000.0001) %MON exf_precip_del2              =   2.5583211448813E-09
(PID.TID 0000.0001) %MON exf_snowprecip_max           =   0.0000000000000E+00
(PID.TID 0000.0001) %MON exf_snowprecip_min           =   0.0000000000000E+00
(PID.TID 0000.0001) %MON exf_snowprecip_mean          =   0.0000000000000E+00
(PID.TID 0000.0001) %MON exf_snowprecip_sd            =   0.0000000000000E+00
(PID.TID 0000.0001) %MON exf_snowprecip_del2          =   0.0000000000000E+00
(PID.TID 0000.0001) %MON exf_swflux_max               =  -8.1207452738871E-02
(PID.TID 0000.0001) %MON exf_swflux_min               =  -6.4086336117103E+01
(PID.TID 0000.0001) %MON exf_swflux_mean              =  -2.6516416318198E+01
(PID.TID 0000.0001) %MON exf_swflux_sd                =   1.9648923659484E+01
(PID.TID 0000.0001) %MON exf_swflux_del2              =   4.7965400922860E-01
(PID.TID 0000.0001) %MON exf_evap_max                 =   4.5346507082583E-08
(PID.TID 0000.0001) %MON exf_evap_min                 =  -4.2210680163411E-09
(PID.TID 0000.0001) %MON exf_evap_mean                =   1.0439074864036E-08
(PID.TID 0000.0001) %MON exf_evap_sd                  =   1.1078856761256E-08
(PID.TID 0000.0001) %MON exf_evap_del2                =   1.3326514499524E-09
(PID.TID 0000.0001) %MON exf_swdown_max               =   7.1207040130115E+01
(PID.TID 0000.0001) %MON exf_swdown_min               =   9.0230503043190E-02
(PID.TID 0000.0001) %MON exf_swdown_mean              =   2.9462684797997E+01
(PID.TID 0000.0001) %MON exf_swdown_sd                =   2.1832137399427E+01
(PID.TID 0000.0001) %MON exf_swdown_del2              =   5.3294889914289E-01
(PID.TID 0000.0001) %MON exf_lwdown_max               =   3.0562676151463E+02
(PID.TID 0000.0001) %MON exf_lwdown_min               =   1.1590705083628E+02
(PID.TID 0000.0001) %MON exf_lwdown_mean              =   2.2585507298474E+02
(PID.TID 0000.0001) %MON exf_lwdown_sd                =   4.6301263017486E+01
(PID.TID 0000.0001) %MON exf_lwdown_del2              =   3.2438911371283E+00
(PID.TID 0000.0001) %MON exf_apressure_max            =   0.0000000000000E+00
(PID.TID 0000.0001) %MON exf_apressure_min            =   0.0000000000000E+00
(PID.TID 0000.0001) %MON exf_apressure_mean           =   0.0000000000000E+00
(PID.TID 0000.0001) %MON exf_apressure_sd             =   0.0000000000000E+00
(PID.TID 0000.0001) %MON exf_apressure_del2           =   0.0000000000000E+00
(PID.TID 0000.0001) %MON exf_runoff_max               =   0.0000000000000E+00
(PID.TID 0000.0001) %MON exf_runoff_min               =   0.0000000000000E+00
(PID.TID 0000.0001) %MON exf_runoff_mean              =   0.0000000000000E+00
(PID.TID 0000.0001) %MON exf_runoff_sd                =   0.0000000000000E+00
(PID.TID 0000.0001) %MON exf_runoff_del2              =   0.0000000000000E+00
(PID.TID 0000.0001) %MON exf_climsst_max              =   0.0000000000000E+00
(PID.TID 0000.0001) %MON exf_climsst_min              =   0.0000000000000E+00
(PID.TID 0000.0001) %MON exf_climsst_mean             =   0.0000000000000E+00
(PID.TID 0000.0001) %MON exf_climsst_sd               =   0.0000000000000E+00
(PID.TID 0000.0001) %MON exf_climsst_del2             =   0.0000000000000E+00
(PID.TID 0000.0001) %MON exf_climsss_max              =   3.5041439369077E+01
(PID.TID 0000.0001) %MON exf_climsss_min              =   3.0670869139374E+01
(PID.TID 0000.0001) %MON exf_climsss_mean             =   3.3462447601866E+01
(PID.TID 0000.0001) %MON exf_climsss_sd               =   1.0315283113566E+00
(PID.TID 0000.0001) %MON exf_climsss_del2             =   1.0009058571904E-01
(PID.TID 0000.0001) // =======================================================
(PID.TID 0000.0001) // End MONITOR EXF statistics
(PID.TID 0000.0001) // =======================================================
 ph-ice B  6  0.  0.  0.
 ph-ice C  6  3.56942902E+11
 cg2d: Sum(rhs),rhsMax =   3.26977130024608E-08  1.19247398100020E+00
(PID.TID 0000.0001) // =======================================================
(PID.TID 0000.0001) // Begin MONITOR SEAICE statistics
(PID.TID 0000.0001) // =======================================================
(PID.TID 0000.0001) %MON seaice_tsnumber              =                     7
(PID.TID 0000.0001) %MON seaice_time_sec              =   2.5200000000000E+04
(PID.TID 0000.0001) %MON seaice_uice_max              =   2.5685044019498E-01
(PID.TID 0000.0001) %MON seaice_uice_min              =  -9.7750591653217E-02
(PID.TID 0000.0001) %MON seaice_uice_mean             =   7.6054401852286E-02
(PID.TID 0000.0001) %MON seaice_uice_sd               =   8.5420450771775E-02
(PID.TID 0000.0001) %MON seaice_uice_del2             =   9.6584939557677E-03
(PID.TID 0000.0001) %MON seaice_vice_max              =   9.3826162128360E-02
(PID.TID 0000.0001) %MON seaice_vice_min              =  -2.2536421156653E-01
(PID.TID 0000.0001) %MON seaice_vice_mean             =  -6.0012790098571E-02
(PID.TID 0000.0001) %MON seaice_vice_sd               =   7.2852648479776E-02
(PID.TID 0000.0001) %MON seaice_vice_del2             =   8.1655390813662E-03
(PID.TID 0000.0001) %MON seaice_area_max              =   1.0000000000000E+00
(PID.TID 0000.0001) %MON seaice_area_min              =   0.0000000000000E+00
(PID.TID 0000.0001) %MON seaice_area_mean             =   6.2408687205809E-01
(PID.TID 0000.0001) %MON seaice_area_sd               =   4.5772401018952E-01
(PID.TID 0000.0001) %MON seaice_area_del2             =   5.3629414194095E-02
(PID.TID 0000.0001) %MON seaice_heff_max              =   5.4815057630767E-01
(PID.TID 0000.0001) %MON seaice_heff_min              =   0.0000000000000E+00
(PID.TID 0000.0001) %MON seaice_heff_mean             =   1.4221032438487E-01
(PID.TID 0000.0001) %MON seaice_heff_sd               =   1.7437207426118E-01
(PID.TID 0000.0001) %MON seaice_heff_del2             =   1.3220326147436E-02
(PID.TID 0000.0001) %MON seaice_hsnow_max             =   2.0549515084231E-01
(PID.TID 0000.0001) %MON seaice_hsnow_min             =   0.0000000000000E+00
(PID.TID 0000.0001) %MON seaice_hsnow_mean            =   1.1857184786052E-01
(PID.TID 0000.0001) %MON seaice_hsnow_sd              =   9.7287286142664E-02
(PID.TID 0000.0001) %MON seaice_hsnow_del2            =   6.5537586410097E-03
(PID.TID 0000.0001) // =======================================================
(PID.TID 0000.0001) // End MONITOR SEAICE statistics
(PID.TID 0000.0001) // =======================================================
(PID.TID 0000.0001) // =======================================================
(PID.TID 0000.0001) // Begin MONITOR EXF statistics
(PID.TID 0000.0001) // =======================================================
(PID.TID 0000.0001) %MON exf_tsnumber                 =                     7
(PID.TID 0000.0001) %MON exf_time_sec                 =   2.5200000000000E+04
(PID.TID 0000.0001) %MON exf_ustress_max              =   5.2243932826859E-02
(PID.TID 0000.0001) %MON exf_ustress_min              =  -9.3796695311296E-02
(PID.TID 0000.0001) %MON exf_ustress_mean             =   1.7960121330977E-02
(PID.TID 0000.0001) %MON exf_ustress_sd               =   2.3726168037166E-02
(PID.TID 0000.0001) %MON exf_ustress_del2             =   2.8191139556971E-03
(PID.TID 0000.0001) %MON exf_vstress_max              =   5.3833777652845E-02
(PID.TID 0000.0001) %MON exf_vstress_min              =  -5.8440994821966E-02
(PID.TID 0000.0001) %MON exf_vstress_mean             =  -5.4400585200808E-03
(PID.TID 0000.0001) %MON exf_vstress_sd               =   1.4449140621350E-02
(PID.TID 0000.0001) %MON exf_vstress_del2             =   1.6932578481441E-03
(PID.TID 0000.0001) %MON exf_hflux_max                =   6.2511249114686E+02
(PID.TID 0000.0001) %MON exf_hflux_min                =  -5.1292186394408E+01
(PID.TID 0000.0001) %MON exf_hflux_mean               =   1.4638062211597E+02
(PID.TID 0000.0001) %MON exf_hflux_sd                 =   1.8004882701451E+02
(PID.TID 0000.0001) %MON exf_hflux_del2               =   1.6307657492687E+01
(PID.TID 0000.0001) %MON exf_sflux_max                =   3.9024744508952E-08
(PID.TID 0000.0001) %MON exf_sflux_min                =  -8.8844029756562E-08
(PID.TID 0000.0001) %MON exf_sflux_mean               =  -2.5943657833755E-08
(PID.TID 0000.0001) %MON exf_sflux_sd                 =   3.0352937546066E-08
(PID.TID 0000.0001) %MON exf_sflux_del2               =   3.1638802021798E-09
(PID.TID 0000.0001) %MON exf_uwind_max                =   6.4679267093784E+00
(PID.TID 0000.0001) %MON exf_uwind_min                =  -6.8374255452651E+00
(PID.TID 0000.0001) %MON exf_uwind_mean               =   2.7705256000140E+00
(PID.TID 0000.0001) %MON exf_uwind_sd                 =   2.9919728561678E+00
(PID.TID 0000.0001) %MON exf_uwind_del2               =   3.1576527695052E-01
(PID.TID 0000.0001) %MON exf_vwind_max                =   3.9242794780783E+00
(PID.TID 0000.0001) %MON exf_vwind_min                =  -6.0133620194399E+00
(PID.TID 0000.0001) %MON exf_vwind_mean               =  -7.5657426961883E-01
(PID.TID 0000.0001) %MON exf_vwind_sd                 =   1.7301024272674E+00
(PID.TID 0000.0001) %MON exf_vwind_del2               =   1.9328456693798E-01
(PID.TID 0000.0001) %MON exf_wspeed_max               =   7.8835498038073E+00
(PID.TID 0000.0001) %MON exf_wspeed_min               =   4.5865235699732E-01
(PID.TID 0000.0001) %MON exf_wspeed_mean              =   4.1988415259832E+00
(PID.TID 0000.0001) %MON exf_wspeed_sd                =   1.6009692521540E+00
(PID.TID 0000.0001) %MON exf_wspeed_del2              =   3.7730984410389E-01
(PID.TID 0000.0001) %MON exf_atemp_max                =   2.8187082742993E+02
(PID.TID 0000.0001) %MON exf_atemp_min                =   2.3643051433042E+02
(PID.TID 0000.0001) %MON exf_atemp_mean               =   2.6391354832479E+02
(PID.TID 0000.0001) %MON exf_atemp_sd                 =   1.1993650986975E+01
(PID.TID 0000.0001) %MON exf_atemp_del2               =   6.4955744337685E-01
(PID.TID 0000.0001) %MON exf_aqh_max                  =   6.3182971576392E-03
(PID.TID 0000.0001) %MON exf_aqh_min                  =   1.6303402368524E-04
(PID.TID 0000.0001) %MON exf_aqh_mean                 =   2.4764404153565E-03
(PID.TID 0000.0001) %MON exf_aqh_sd                   =   1.4257865072101E-03
(PID.TID 0000.0001) %MON exf_aqh_del2                 =   6.8046107671613E-05
(PID.TID 0000.0001) %MON exf_lwflux_max               =   1.8159055041575E+02
(PID.TID 0000.0001) %MON exf_lwflux_min               =   2.7054913224524E+01
(PID.TID 0000.0001) %MON exf_lwflux_mean              =   7.5259490312792E+01
(PID.TID 0000.0001) %MON exf_lwflux_sd                =   4.2774138974284E+01
(PID.TID 0000.0001) %MON exf_lwflux_del2              =   3.2322886429446E+00
(PID.TID 0000.0001) %MON exf_precip_max               =   1.0499733310606E-07
(PID.TID 0000.0001) %MON exf_precip_min               =   2.7265750163496E-10
(PID.TID 0000.0001) %MON exf_precip_mean              =   3.6390004634845E-08
(PID.TID 0000.0001) %MON exf_precip_sd                =   2.0581314966068E-08
(PID.TID 0000.0001) %MON exf_precip_del2              =   2.5588488380710E-09
(PID.TID 0000.0001) %MON exf_snowprecip_max           =   0.0000000000000E+00
(PID.TID 0000.0001) %MON exf_snowprecip_min           =   0.0000000000000E+00
(PID.TID 0000.0001) %MON exf_snowprecip_mean          =   0.0000000000000E+00
(PID.TID 0000.0001) %MON exf_snowprecip_sd            =   0.0000000000000E+00
(PID.TID 0000.0001) %MON exf_snowprecip_del2          =   0.0000000000000E+00
(PID.TID 0000.0001) %MON exf_swflux_max               =  -8.1207735616653E-02
(PID.TID 0000.0001) %MON exf_swflux_min               =  -6.4105206467675E+01
(PID.TID 0000.0001) %MON exf_swflux_mean              =  -2.6526948534072E+01
(PID.TID 0000.0001) %MON exf_swflux_sd                =   1.9652762825246E+01
(PID.TID 0000.0001) %MON exf_swflux_del2              =   4.7976088317456E-01
(PID.TID 0000.0001) %MON exf_evap_max                 =   4.5344313356532E-08
(PID.TID 0000.0001) %MON exf_evap_min                 =  -4.2074593188413E-09
(PID.TID 0000.0001) %MON exf_evap_mean                =   1.0446346801089E-08
(PID.TID 0000.0001) %MON exf_evap_sd                  =   1.1077269208142E-08
(PID.TID 0000.0001) %MON exf_evap_del2                =   1.3331808950603E-09
(PID.TID 0000.0001) %MON exf_swdown_max               =   7.1228007186306E+01
(PID.TID 0000.0001) %MON exf_swdown_min               =   9.0230817351836E-02
(PID.TID 0000.0001) %MON exf_swdown_mean              =   2.9474387260081E+01
(PID.TID 0000.0001) %MON exf_swdown_sd                =   2.1836403139162E+01
(PID.TID 0000.0001) %MON exf_swdown_del2              =   5.3306764797174E-01
(PID.TID 0000.0001) %MON exf_lwdown_max               =   3.0561793543081E+02
(PID.TID 0000.0001) %MON exf_lwdown_min               =   1.1589194395764E+02
(PID.TID 0000.0001) %MON exf_lwdown_mean              =   2.2583936565568E+02
(PID.TID 0000.0001) %MON exf_lwdown_sd                =   4.6305239399294E+01
(PID.TID 0000.0001) %MON exf_lwdown_del2              =   3.2439027772011E+00
(PID.TID 0000.0001) %MON exf_apressure_max            =   0.0000000000000E+00
(PID.TID 0000.0001) %MON exf_apressure_min            =   0.0000000000000E+00
(PID.TID 0000.0001) %MON exf_apressure_mean           =   0.0000000000000E+00
(PID.TID 0000.0001) %MON exf_apressure_sd             =   0.0000000000000E+00
(PID.TID 0000.0001) %MON exf_apressure_del2           =   0.0000000000000E+00
(PID.TID 0000.0001) %MON exf_runoff_max               =   0.0000000000000E+00
(PID.TID 0000.0001) %MON exf_runoff_min               =   0.0000000000000E+00
(PID.TID 0000.0001) %MON exf_runoff_mean              =   0.0000000000000E+00
(PID.TID 0000.0001) %MON exf_runoff_sd                =   0.0000000000000E+00
(PID.TID 0000.0001) %MON exf_runoff_del2              =   0.0000000000000E+00
(PID.TID 0000.0001) %MON exf_climsst_max              =   0.0000000000000E+00
(PID.TID 0000.0001) %MON exf_climsst_min              =   0.0000000000000E+00
(PID.TID 0000.0001) %MON exf_climsst_mean             =   0.0000000000000E+00
(PID.TID 0000.0001) %MON exf_climsst_sd               =   0.0000000000000E+00
(PID.TID 0000.0001) %MON exf_climsst_del2             =   0.0000000000000E+00
(PID.TID 0000.0001) %MON exf_climsss_max              =   3.5041624116116E+01
(PID.TID 0000.0001) %MON exf_climsss_min              =   3.0671628467372E+01
(PID.TID 0000.0001) %MON exf_climsss_mean             =   3.3462968935345E+01
(PID.TID 0000.0001) %MON exf_climsss_sd               =   1.0314580197633E+00
(PID.TID 0000.0001) %MON exf_climsss_del2             =   1.0007335642865E-01
(PID.TID 0000.0001) // =======================================================
(PID.TID 0000.0001) // End MONITOR EXF statistics
(PID.TID 0000.0001) // =======================================================
 ph-ice B  7  0.  0.  0.
 ph-ice C  7  4.07568457E+11
 cg2d: Sum(rhs),rhsMax =   3.08546060680259E-08  1.18167604784031E+00
(PID.TID 0000.0001) // =======================================================
(PID.TID 0000.0001) // Begin MONITOR SEAICE statistics
(PID.TID 0000.0001) // =======================================================
(PID.TID 0000.0001) %MON seaice_tsnumber              =                     8
(PID.TID 0000.0001) %MON seaice_time_sec              =   2.8800000000000E+04
(PID.TID 0000.0001) %MON seaice_uice_max              =   2.6753095394614E-01
(PID.TID 0000.0001) %MON seaice_uice_min              =  -8.8502450660798E-02
(PID.TID 0000.0001) %MON seaice_uice_mean             =   6.9613320191760E-02
(PID.TID 0000.0001) %MON seaice_uice_sd               =   8.3091694836850E-02
(PID.TID 0000.0001) %MON seaice_uice_del2             =   8.8606448704218E-03
(PID.TID 0000.0001) %MON seaice_vice_max              =   8.6568020956161E-02
(PID.TID 0000.0001) %MON seaice_vice_min              =  -2.2434575678058E-01
(PID.TID 0000.0001) %MON seaice_vice_mean             =  -6.1223920013012E-02
(PID.TID 0000.0001) %MON seaice_vice_sd               =   7.0132187187266E-02
(PID.TID 0000.0001) %MON seaice_vice_del2             =   8.0005192288949E-03
(PID.TID 0000.0001) %MON seaice_area_max              =   1.0000000000000E+00
(PID.TID 0000.0001) %MON seaice_area_min              =   0.0000000000000E+00
(PID.TID 0000.0001) %MON seaice_area_mean             =   6.2402818487395E-01
(PID.TID 0000.0001) %MON seaice_area_sd               =   4.5740451717473E-01
(PID.TID 0000.0001) %MON seaice_area_del2             =   5.3617033259068E-02
(PID.TID 0000.0001) %MON seaice_heff_max              =   5.4845941033828E-01
(PID.TID 0000.0001) %MON seaice_heff_min              =   0.0000000000000E+00
(PID.TID 0000.0001) %MON seaice_heff_mean             =   1.4210964910261E-01
(PID.TID 0000.0001) %MON seaice_heff_sd               =   1.7454195413867E-01
(PID.TID 0000.0001) %MON seaice_heff_del2             =   1.3200167102604E-02
(PID.TID 0000.0001) %MON seaice_hsnow_max             =   2.0628031960972E-01
(PID.TID 0000.0001) %MON seaice_hsnow_min             =   0.0000000000000E+00
(PID.TID 0000.0001) %MON seaice_hsnow_mean            =   1.1873224112567E-01
(PID.TID 0000.0001) %MON seaice_hsnow_sd              =   9.7409172575260E-02
(PID.TID 0000.0001) %MON seaice_hsnow_del2            =   6.5932180808236E-03
(PID.TID 0000.0001) // =======================================================
(PID.TID 0000.0001) // End MONITOR SEAICE statistics
(PID.TID 0000.0001) // =======================================================
(PID.TID 0000.0001) // =======================================================
(PID.TID 0000.0001) // Begin MONITOR EXF statistics
(PID.TID 0000.0001) // =======================================================
(PID.TID 0000.0001) %MON exf_tsnumber                 =                     8
(PID.TID 0000.0001) %MON exf_time_sec                 =   2.8800000000000E+04
(PID.TID 0000.0001) %MON exf_ustress_max              =   5.2249214883883E-02
(PID.TID 0000.0001) %MON exf_ustress_min              =  -9.3798929022983E-02
(PID.TID 0000.0001) %MON exf_ustress_mean             =   1.7966531823707E-02
(PID.TID 0000.0001) %MON exf_ustress_sd               =   2.3731958049246E-02
(PID.TID 0000.0001) %MON exf_ustress_del2             =   2.8199347038774E-03
(PID.TID 0000.0001) %MON exf_vstress_max              =   5.3835262836879E-02
(PID.TID 0000.0001) %MON exf_vstress_min              =  -5.8423863266369E-02
(PID.TID 0000.0001) %MON exf_vstress_mean             =  -5.4366055532137E-03
(PID.TID 0000.0001) %MON exf_vstress_sd               =   1.4450709911966E-02
(PID.TID 0000.0001) %MON exf_vstress_del2             =   1.6932443395586E-03
(PID.TID 0000.0001) %MON exf_hflux_max                =   6.2516667572112E+02
(PID.TID 0000.0001) %MON exf_hflux_min                =  -5.1290004098743E+01
(PID.TID 0000.0001) %MON exf_hflux_mean               =   1.4644491841123E+02
(PID.TID 0000.0001) %MON exf_hflux_sd                 =   1.8007070167408E+02
(PID.TID 0000.0001) %MON exf_hflux_del2               =   1.6310908349940E+01
(PID.TID 0000.0001) %MON exf_sflux_max                =   3.9024984842687E-08
(PID.TID 0000.0001) %MON exf_sflux_min                =  -8.8852274091652E-08
(PID.TID 0000.0001) %MON exf_sflux_mean               =  -2.5937376195352E-08
(PID.TID 0000.0001) %MON exf_sflux_sd                 =   3.0352651877602E-08
(PID.TID 0000.0001) %MON exf_sflux_del2               =   3.1646137406508E-09
(PID.TID 0000.0001) %MON exf_uwind_max                =   6.4684341618272E+00
(PID.TID 0000.0001) %MON exf_uwind_min                =  -6.8374523269674E+00
(PID.TID 0000.0001) %MON exf_uwind_mean               =   2.7706331523584E+00
(PID.TID 0000.0001) %MON exf_uwind_sd                 =   2.9922491036980E+00
(PID.TID 0000.0001) %MON exf_uwind_del2               =   3.1577589455021E-01
(PID.TID 0000.0001) %MON exf_vwind_max                =   3.9243096588739E+00
(PID.TID 0000.0001) %MON exf_vwind_min                =  -6.0124561096150E+00
(PID.TID 0000.0001) %MON exf_vwind_mean               =  -7.5595649652871E-01
(PID.TID 0000.0001) %MON exf_vwind_sd                 =   1.7302112611019E+00
(PID.TID 0000.0001) %MON exf_vwind_del2               =   1.9327792057372E-01
(PID.TID 0000.0001) %MON exf_wspeed_max               =   7.8835880550853E+00
(PID.TID 0000.0001) %MON exf_wspeed_min               =   4.5840953253040E-01
(PID.TID 0000.0001) %MON exf_wspeed_mean              =   4.1989448725728E+00
(PID.TID 0000.0001) %MON exf_wspeed_sd                =   1.6012263903992E+00
(PID.TID 0000.0001) %MON exf_wspeed_del2              =   3.7736312737620E-01
(PID.TID 0000.0001) %MON exf_atemp_max                =   2.8186911527707E+02
(PID.TID 0000.0001) %MON exf_atemp_min                =   2.3642604936277E+02
(PID.TID 0000.0001) %MON exf_atemp_mean               =   2.6390890424337E+02
(PID.TID 0000.0001) %MON exf_atemp_sd                 =   1.1995114932781E+01
(PID.TID 0000.0001) %MON exf_atemp_del2               =   6.4957677909596E-01
(PID.TID 0000.0001) %MON exf_aqh_max                  =   6.3176006167781E-03
(PID.TID 0000.0001) %MON exf_aqh_min                  =   1.6293992018683E-04
(PID.TID 0000.0001) %MON exf_aqh_mean                 =   2.4758800589519E-03
(PID.TID 0000.0001) %MON exf_aqh_sd                   =   1.4256836550895E-03
(PID.TID 0000.0001) %MON exf_aqh_del2                 =   6.8032440110466E-05
(PID.TID 0000.0001) %MON exf_lwflux_max               =   1.8160657786499E+02
(PID.TID 0000.0001) %MON exf_lwflux_min               =   2.7042774051744E+01
(PID.TID 0000.0001) %MON exf_lwflux_mean              =   7.5278592160592E+01
(PID.TID 0000.0001) %MON exf_lwflux_sd                =   4.2775427351356E+01
(PID.TID 0000.0001) %MON exf_lwflux_del2              =   3.2322488403043E+00
(PID.TID 0000.0001) %MON exf_precip_max               =   1.0499871454869E-07
(PID.TID 0000.0001) %MON exf_precip_min               =   2.7252357516229E-10
(PID.TID 0000.0001) %MON exf_precip_mean              =   3.6389993790810E-08
(PID.TID 0000.0001) %MON exf_precip_sd                =   2.0581769987393E-08
(PID.TID 0000.0001) %MON exf_precip_del2              =   2.5593765312607E-09
(PID.TID 0000.0001) %MON exf_snowprecip_max           =   0.0000000000000E+00
(PID.TID 0000.0001) %MON exf_snowprecip_min           =   0.0000000000000E+00
(PID.TID 0000.0001) %MON exf_snowprecip_mean          =   0.0000000000000E+00
(PID.TID 0000.0001) %MON exf_snowprecip_sd            =   0.0000000000000E+00
(PID.TID 0000.0001) %MON exf_snowprecip_del2          =   0.0000000000000E+00
(PID.TID 0000.0001) %MON exf_swflux_max               =  -8.1208018494434E-02
(PID.TID 0000.0001) %MON exf_swflux_min               =  -6.4124076818247E+01
(PID.TID 0000.0001) %MON exf_swflux_mean              =  -2.6537480749947E+01
(PID.TID 0000.0001) %MON exf_swflux_sd                =   1.9656602581253E+01
(PID.TID 0000.0001) %MON exf_swflux_del2              =   4.7986775712052E-01
(PID.TID 0000.0001) %MON exf_evap_max                 =   4.5343890979337E-08
(PID.TID 0000.0001) %MON exf_evap_min                 =  -4.2045646901124E-09
(PID.TID 0000.0001) %MON exf_evap_mean                =   1.0452617595458E-08
(PID.TID 0000.0001) %MON exf_evap_sd                  =   1.1076426670682E-08
(PID.TID 0000.0001) %MON exf_evap_del2                =   1.3336037595784E-09
(PID.TID 0000.0001) %MON exf_swdown_max               =   7.1248974242497E+01
(PID.TID 0000.0001) %MON exf_swdown_min               =   9.0231131660482E-02
(PID.TID 0000.0001) %MON exf_swdown_mean              =   2.9486089722164E+01
(PID.TID 0000.0001) %MON exf_swdown_sd                =   2.1840669534725E+01
(PID.TID 0000.0001) %MON exf_swdown_del2              =   5.3318639680058E-01
(PID.TID 0000.0001) %MON exf_lwdown_max               =   3.0560910934698E+02
(PID.TID 0000.0001) %MON exf_lwdown_min               =   1.1587683707899E+02
(PID.TID 0000.0001) %MON exf_lwdown_mean              =   2.2582365832661E+02
(PID.TID 0000.0001) %MON exf_lwdown_sd                =   4.6309216947189E+01
(PID.TID 0000.0001) %MON exf_lwdown_del2              =   3.2439144172738E+00
(PID.TID 0000.0001) %MON exf_apressure_max            =   0.0000000000000E+00
(PID.TID 0000.0001) %MON exf_apressure_min            =   0.0000000000000E+00
(PID.TID 0000.0001) %MON exf_apressure_mean           =   0.0000000000000E+00
(PID.TID 0000.0001) %MON exf_apressure_sd             =   0.0000000000000E+00
(PID.TID 0000.0001) %MON exf_apressure_del2           =   0.0000000000000E+00
(PID.TID 0000.0001) %MON exf_runoff_max               =   0.0000000000000E+00
(PID.TID 0000.0001) %MON exf_runoff_min               =   0.0000000000000E+00
(PID.TID 0000.0001) %MON exf_runoff_mean              =   0.0000000000000E+00
(PID.TID 0000.0001) %MON exf_runoff_sd                =   0.0000000000000E+00
(PID.TID 0000.0001) %MON exf_runoff_del2              =   0.0000000000000E+00
(PID.TID 0000.0001) %MON exf_climsst_max              =   0.0000000000000E+00
(PID.TID 0000.0001) %MON exf_climsst_min              =   0.0000000000000E+00
(PID.TID 0000.0001) %MON exf_climsst_mean             =   0.0000000000000E+00
(PID.TID 0000.0001) %MON exf_climsst_sd               =   0.0000000000000E+00
(PID.TID 0000.0001) %MON exf_climsst_del2             =   0.0000000000000E+00
(PID.TID 0000.0001) %MON exf_climsss_max              =   3.5041808863155E+01
(PID.TID 0000.0001) %MON exf_climsss_min              =   3.0672387795370E+01
(PID.TID 0000.0001) %MON exf_climsss_mean             =   3.3463490268825E+01
(PID.TID 0000.0001) %MON exf_climsss_sd               =   1.0313879583737E+00
(PID.TID 0000.0001) %MON exf_climsss_del2             =   1.0005612713826E-01
(PID.TID 0000.0001) // =======================================================
(PID.TID 0000.0001) // End MONITOR EXF statistics
(PID.TID 0000.0001) // =======================================================
 ph-ice B  8  0.  0.  0.
 ph-ice C  8  4.58145115E+11
 cg2d: Sum(rhs),rhsMax =   2.95458238430690E-08  1.16732736503562E+00
(PID.TID 0000.0001) // =======================================================
(PID.TID 0000.0001) // Begin MONITOR SEAICE statistics
(PID.TID 0000.0001) // =======================================================
(PID.TID 0000.0001) %MON seaice_tsnumber              =                     9
(PID.TID 0000.0001) %MON seaice_time_sec              =   3.2400000000000E+04
(PID.TID 0000.0001) %MON seaice_uice_max              =   2.6896967493219E-01
(PID.TID 0000.0001) %MON seaice_uice_min              =  -8.0042763879110E-02
(PID.TID 0000.0001) %MON seaice_uice_mean             =   6.2853440545026E-02
(PID.TID 0000.0001) %MON seaice_uice_sd               =   7.9023461283023E-02
(PID.TID 0000.0001) %MON seaice_uice_del2             =   7.8428837479522E-03
(PID.TID 0000.0001) %MON seaice_vice_max              =   7.8808437254650E-02
(PID.TID 0000.0001) %MON seaice_vice_min              =  -2.0876036034224E-01
(PID.TID 0000.0001) %MON seaice_vice_mean             =  -5.8596124035799E-02
(PID.TID 0000.0001) %MON seaice_vice_sd               =   6.4348752755512E-02
(PID.TID 0000.0001) %MON seaice_vice_del2             =   7.5771231871402E-03
(PID.TID 0000.0001) %MON seaice_area_max              =   1.0000000000000E+00
(PID.TID 0000.0001) %MON seaice_area_min              =   0.0000000000000E+00
(PID.TID 0000.0001) %MON seaice_area_mean             =   6.2385267053449E-01
(PID.TID 0000.0001) %MON seaice_area_sd               =   4.5701605861108E-01
(PID.TID 0000.0001) %MON seaice_area_del2             =   5.3473199152095E-02
(PID.TID 0000.0001) %MON seaice_heff_max              =   5.4880172475483E-01
(PID.TID 0000.0001) %MON seaice_heff_min              =   0.0000000000000E+00
(PID.TID 0000.0001) %MON seaice_heff_mean             =   1.4197238812217E-01
(PID.TID 0000.0001) %MON seaice_heff_sd               =   1.7470053658746E-01
(PID.TID 0000.0001) %MON seaice_heff_del2             =   1.3179485197402E-02
(PID.TID 0000.0001) %MON seaice_hsnow_max             =   2.0706544703533E-01
(PID.TID 0000.0001) %MON seaice_hsnow_min             =   0.0000000000000E+00
(PID.TID 0000.0001) %MON seaice_hsnow_mean            =   1.1888097068303E-01
(PID.TID 0000.0001) %MON seaice_hsnow_sd              =   9.7521343192228E-02
(PID.TID 0000.0001) %MON seaice_hsnow_del2            =   6.6252286017446E-03
(PID.TID 0000.0001) // =======================================================
(PID.TID 0000.0001) // End MONITOR SEAICE statistics
(PID.TID 0000.0001) // =======================================================
(PID.TID 0000.0001) // =======================================================
(PID.TID 0000.0001) // Begin MONITOR EXF statistics
(PID.TID 0000.0001) // =======================================================
(PID.TID 0000.0001) %MON exf_tsnumber                 =                     9
(PID.TID 0000.0001) %MON exf_time_sec                 =   3.2400000000000E+04
(PID.TID 0000.0001) %MON exf_ustress_max              =   5.2253931428564E-02
(PID.TID 0000.0001) %MON exf_ustress_min              =  -9.3801402378832E-02
(PID.TID 0000.0001) %MON exf_ustress_mean             =   1.7972510892030E-02
(PID.TID 0000.0001) %MON exf_ustress_sd               =   2.3737461294228E-02
(PID.TID 0000.0001) %MON exf_ustress_del2             =   2.8207107360773E-03
(PID.TID 0000.0001) %MON exf_vstress_max              =   5.3836885571668E-02
(PID.TID 0000.0001) %MON exf_vstress_min              =  -5.8402245569188E-02
(PID.TID 0000.0001) %MON exf_vstress_mean             =  -5.4330593515864E-03
(PID.TID 0000.0001) %MON exf_vstress_sd               =   1.4451995860371E-02
(PID.TID 0000.0001) %MON exf_vstress_del2             =   1.6932501933191E-03
(PID.TID 0000.0001) %MON exf_hflux_max                =   6.2523607821949E+02
(PID.TID 0000.0001) %MON exf_hflux_min                =  -5.1341825007882E+01
(PID.TID 0000.0001) %MON exf_hflux_mean               =   1.4650261928160E+02
(PID.TID 0000.0001) %MON exf_hflux_sd                 =   1.8009645516155E+02
(PID.TID 0000.0001) %MON exf_hflux_del2               =   1.6313460948081E+01
(PID.TID 0000.0001) %MON exf_sflux_max                =   3.9027165064862E-08
(PID.TID 0000.0001) %MON exf_sflux_min                =  -8.8881916003446E-08
(PID.TID 0000.0001) %MON exf_sflux_mean               =  -2.5931976569607E-08
(PID.TID 0000.0001) %MON exf_sflux_sd                 =   3.0353387911529E-08
(PID.TID 0000.0001) %MON exf_sflux_del2               =   3.1652790619856E-09
(PID.TID 0000.0001) %MON exf_uwind_max                =   6.4689416142761E+00
(PID.TID 0000.0001) %MON exf_uwind_min                =  -6.8374791086697E+00
(PID.TID 0000.0001) %MON exf_uwind_mean               =   2.7707407047028E+00
(PID.TID 0000.0001) %MON exf_uwind_sd                 =   2.9925253914175E+00
(PID.TID 0000.0001) %MON exf_uwind_del2               =   3.1578823099586E-01
(PID.TID 0000.0001) %MON exf_vwind_max                =   3.9243398396695E+00
(PID.TID 0000.0001) %MON exf_vwind_min                =  -6.0115501997901E+00
(PID.TID 0000.0001) %MON exf_vwind_mean               =  -7.5533872343860E-01
(PID.TID 0000.0001) %MON exf_vwind_sd                 =   1.7303202080462E+00
(PID.TID 0000.0001) %MON exf_vwind_del2               =   1.9327127420947E-01
(PID.TID 0000.0001) %MON exf_wspeed_max               =   7.8836263063842E+00
(PID.TID 0000.0001) %MON exf_wspeed_min               =   4.5816671047235E-01
(PID.TID 0000.0001) %MON exf_wspeed_mean              =   4.1990483480424E+00
(PID.TID 0000.0001) %MON exf_wspeed_sd                =   1.6014836406520E+00
(PID.TID 0000.0001) %MON exf_wspeed_del2              =   3.7741640417905E-01
(PID.TID 0000.0001) %MON exf_atemp_max                =   2.8186740312420E+02
(PID.TID 0000.0001) %MON exf_atemp_min                =   2.3642158439511E+02
(PID.TID 0000.0001) %MON exf_atemp_mean               =   2.6390426016196E+02
(PID.TID 0000.0001) %MON exf_atemp_sd                 =   1.1996579365150E+01
(PID.TID 0000.0001) %MON exf_atemp_del2               =   6.4959611481507E-01
(PID.TID 0000.0001) %MON exf_aqh_max                  =   6.3169040759170E-03
(PID.TID 0000.0001) %MON exf_aqh_min                  =   1.6284581668843E-04
(PID.TID 0000.0001) %MON exf_aqh_mean                 =   2.4753197025473E-03
(PID.TID 0000.0001) %MON exf_aqh_sd                   =   1.4255808388841E-03
(PID.TID 0000.0001) %MON exf_aqh_del2                 =   6.8018772549319E-05
(PID.TID 0000.0001) %MON exf_lwflux_max               =   1.8162256097021E+02
(PID.TID 0000.0001) %MON exf_lwflux_min               =   2.7024547802366E+01
(PID.TID 0000.0001) %MON exf_lwflux_mean              =   7.5295915445036E+01
(PID.TID 0000.0001) %MON exf_lwflux_sd                =   4.2777936913509E+01
(PID.TID 0000.0001) %MON exf_lwflux_del2              =   3.2320771899931E+00
(PID.TID 0000.0001) %MON exf_precip_max               =   1.0500009599131E-07
(PID.TID 0000.0001) %MON exf_precip_min               =   2.7238964868961E-10
(PID.TID 0000.0001) %MON exf_precip_mean              =   3.6389982946776E-08
(PID.TID 0000.0001) %MON exf_precip_sd                =   2.0582225664103E-08
(PID.TID 0000.0001) %MON exf_precip_del2              =   2.5599042244504E-09
(PID.TID 0000.0001) %MON exf_snowprecip_max           =   0.0000000000000E+00
(PID.TID 0000.0001) %MON exf_snowprecip_min           =   0.0000000000000E+00
(PID.TID 0000.0001) %MON exf_snowprecip_mean          =   0.0000000000000E+00
(PID.TID 0000.0001) %MON exf_snowprecip_sd            =   0.0000000000000E+00
(PID.TID 0000.0001) %MON exf_snowprecip_del2          =   0.0000000000000E+00
(PID.TID 0000.0001) %MON exf_swflux_max               =  -8.1208301372215E-02
(PID.TID 0000.0001) %MON exf_swflux_min               =  -6.4142947168819E+01
(PID.TID 0000.0001) %MON exf_swflux_mean              =  -2.6548012965822E+01
(PID.TID 0000.0001) %MON exf_swflux_sd                =   1.9660442927159E+01
(PID.TID 0000.0001) %MON exf_swflux_del2              =   4.7997463106648E-01
(PID.TID 0000.0001) %MON exf_evap_max                 =   4.5345408490582E-08
(PID.TID 0000.0001) %MON exf_evap_min                 =  -4.2118523303739E-09
(PID.TID 0000.0001) %MON exf_evap_mean                =   1.0458006377169E-08
(PID.TID 0000.0001) %MON exf_evap_sd                  =   1.1076060059811E-08
(PID.TID 0000.0001) %MON exf_evap_del2                =   1.3338859834308E-09
(PID.TID 0000.0001) %MON exf_swdown_max               =   7.1269941298688E+01
(PID.TID 0000.0001) %MON exf_swdown_min               =   9.0231445969128E-02
(PID.TID 0000.0001) %MON exf_swdown_mean              =   2.9497792184247E+01
(PID.TID 0000.0001) %MON exf_swdown_sd                =   2.1844936585733E+01
(PID.TID 0000.0001) %MON exf_swdown_del2              =   5.3330514562942E-01
(PID.TID 0000.0001) %MON exf_lwdown_max               =   3.0560028326316E+02
(PID.TID 0000.0001) %MON exf_lwdown_min               =   1.1586173020035E+02
(PID.TID 0000.0001) %MON exf_lwdown_mean              =   2.2580795099755E+02
(PID.TID 0000.0001) %MON exf_lwdown_sd                =   4.6313195660870E+01
(PID.TID 0000.0001) %MON exf_lwdown_del2              =   3.2439260573465E+00
(PID.TID 0000.0001) %MON exf_apressure_max            =   0.0000000000000E+00
(PID.TID 0000.0001) %MON exf_apressure_min            =   0.0000000000000E+00
(PID.TID 0000.0001) %MON exf_apressure_mean           =   0.0000000000000E+00
(PID.TID 0000.0001) %MON exf_apressure_sd             =   0.0000000000000E+00
(PID.TID 0000.0001) %MON exf_apressure_del2           =   0.0000000000000E+00
(PID.TID 0000.0001) %MON exf_runoff_max               =   0.0000000000000E+00
(PID.TID 0000.0001) %MON exf_runoff_min               =   0.0000000000000E+00
(PID.TID 0000.0001) %MON exf_runoff_mean              =   0.0000000000000E+00
(PID.TID 0000.0001) %MON exf_runoff_sd                =   0.0000000000000E+00
(PID.TID 0000.0001) %MON exf_runoff_del2              =   0.0000000000000E+00
(PID.TID 0000.0001) %MON exf_climsst_max              =   0.0000000000000E+00
(PID.TID 0000.0001) %MON exf_climsst_min              =   0.0000000000000E+00
(PID.TID 0000.0001) %MON exf_climsst_mean             =   0.0000000000000E+00
(PID.TID 0000.0001) %MON exf_climsst_sd               =   0.0000000000000E+00
(PID.TID 0000.0001) %MON exf_climsst_del2             =   0.0000000000000E+00
(PID.TID 0000.0001) %MON exf_climsss_max              =   3.5041993610194E+01
(PID.TID 0000.0001) %MON exf_climsss_min              =   3.0673147123368E+01
(PID.TID 0000.0001) %MON exf_climsss_mean             =   3.3464011602304E+01
(PID.TID 0000.0001) %MON exf_climsss_sd               =   1.0313181272348E+00
(PID.TID 0000.0001) %MON exf_climsss_del2             =   1.0003889784787E-01
(PID.TID 0000.0001) // =======================================================
(PID.TID 0000.0001) // End MONITOR EXF statistics
(PID.TID 0000.0001) // =======================================================
 ph-ice B  9  0.  0.  0.
 ph-ice C  9  5.08667804E+11
 cg2d: Sum(rhs),rhsMax =   2.90789011828108E-08  1.15038859848504E+00
(PID.TID 0000.0001) // =======================================================
(PID.TID 0000.0001) // Begin MONITOR SEAICE statistics
(PID.TID 0000.0001) // =======================================================
(PID.TID 0000.0001) %MON seaice_tsnumber              =                    10
(PID.TID 0000.0001) %MON seaice_time_sec              =   3.6000000000000E+04
(PID.TID 0000.0001) %MON seaice_uice_max              =   2.6070945570382E-01
(PID.TID 0000.0001) %MON seaice_uice_min              =  -7.4569485602792E-02
(PID.TID 0000.0001) %MON seaice_uice_mean             =   5.6947360807562E-02
(PID.TID 0000.0001) %MON seaice_uice_sd               =   7.3694051532441E-02
(PID.TID 0000.0001) %MON seaice_uice_del2             =   6.9823427958621E-03
(PID.TID 0000.0001) %MON seaice_vice_max              =   7.2855154747256E-02
(PID.TID 0000.0001) %MON seaice_vice_min              =  -1.8167527052950E-01
(PID.TID 0000.0001) %MON seaice_vice_mean             =  -5.2953518161366E-02
(PID.TID 0000.0001) %MON seaice_vice_sd               =   5.6405638185246E-02
(PID.TID 0000.0001) %MON seaice_vice_del2             =   6.8590935605930E-03
(PID.TID 0000.0001) %MON seaice_area_max              =   1.0000000000000E+00
(PID.TID 0000.0001) %MON seaice_area_min              =   0.0000000000000E+00
(PID.TID 0000.0001) %MON seaice_area_mean             =   6.2310740853776E-01
(PID.TID 0000.0001) %MON seaice_area_sd               =   4.5675718632758E-01
(PID.TID 0000.0001) %MON seaice_area_del2             =   5.3102389177832E-02
(PID.TID 0000.0001) %MON seaice_heff_max              =   5.4914440235546E-01
(PID.TID 0000.0001) %MON seaice_heff_min              =   0.0000000000000E+00
(PID.TID 0000.0001) %MON seaice_heff_mean             =   1.4182089656685E-01
(PID.TID 0000.0001) %MON seaice_heff_sd               =   1.7482790055595E-01
(PID.TID 0000.0001) %MON seaice_heff_del2             =   1.3169917336388E-02
(PID.TID 0000.0001) %MON seaice_hsnow_max             =   2.0785054838233E-01
(PID.TID 0000.0001) %MON seaice_hsnow_min             =   0.0000000000000E+00
(PID.TID 0000.0001) %MON seaice_hsnow_mean            =   1.1901259262093E-01
(PID.TID 0000.0001) %MON seaice_hsnow_sd              =   9.7627028624348E-02
(PID.TID 0000.0001) %MON seaice_hsnow_del2            =   6.6467675434416E-03
(PID.TID 0000.0001) // =======================================================
(PID.TID 0000.0001) // End MONITOR SEAICE statistics
(PID.TID 0000.0001) // =======================================================
(PID.TID 0000.0001)  MDS_READ_FIELD: opening file: xx_atemp.0000000000.001.001.data
(PID.TID 0000.0001)  MDS_READ_FIELD: opening file: xx_atemp.0000000000.001.001.data
(PID.TID 0000.0001)  MDS_READ_FIELD: opening file: xx_atemp.0000000000.001.001.data
(PID.TID 0000.0001)  MDS_READ_FIELD: opening file: xx_atemp.0000000000.001.001.data
(PID.TID 0000.0001)  MDS_READ_FIELD: opening file: xx_aqh.0000000000.001.001.data
(PID.TID 0000.0001)  MDS_READ_FIELD: opening file: xx_aqh.0000000000.001.001.data
(PID.TID 0000.0001)  MDS_READ_FIELD: opening file: xx_aqh.0000000000.001.001.data
(PID.TID 0000.0001)  MDS_READ_FIELD: opening file: xx_aqh.0000000000.001.001.data
(PID.TID 0000.0001)  MDS_READ_FIELD: opening file: xx_uwind.0000000000.001.001.data
(PID.TID 0000.0001)  MDS_READ_FIELD: opening file: xx_uwind.0000000000.001.001.data
(PID.TID 0000.0001)  MDS_READ_FIELD: opening file: xx_uwind.0000000000.001.001.data
(PID.TID 0000.0001)  MDS_READ_FIELD: opening file: xx_uwind.0000000000.001.001.data
(PID.TID 0000.0001)  MDS_READ_FIELD: opening file: xx_vwind.0000000000.001.001.data
(PID.TID 0000.0001)  MDS_READ_FIELD: opening file: xx_vwind.0000000000.001.001.data
(PID.TID 0000.0001)  MDS_READ_FIELD: opening file: xx_vwind.0000000000.001.001.data
(PID.TID 0000.0001)  MDS_READ_FIELD: opening file: xx_vwind.0000000000.001.001.data
(PID.TID 0000.0001)  MDS_READ_FIELD: opening file: xx_precip.0000000000.001.001.data
(PID.TID 0000.0001)  MDS_READ_FIELD: opening file: xx_precip.0000000000.001.001.data
(PID.TID 0000.0001)  MDS_READ_FIELD: opening file: xx_precip.0000000000.001.001.data
(PID.TID 0000.0001)  MDS_READ_FIELD: opening file: xx_precip.0000000000.001.001.data
(PID.TID 0000.0001)  MDS_READ_FIELD: opening file: xx_swdown.0000000000.001.001.data
(PID.TID 0000.0001)  MDS_READ_FIELD: opening file: xx_swdown.0000000000.001.001.data
(PID.TID 0000.0001)  MDS_READ_FIELD: opening file: xx_swdown.0000000000.001.001.data
(PID.TID 0000.0001)  MDS_READ_FIELD: opening file: xx_swdown.0000000000.001.001.data
(PID.TID 0000.0001)  MDS_READ_FIELD: opening file: xx_lwdown.0000000000.001.001.data
(PID.TID 0000.0001)  MDS_READ_FIELD: opening file: xx_lwdown.0000000000.001.001.data
(PID.TID 0000.0001)  MDS_READ_FIELD: opening file: xx_lwdown.0000000000.001.001.data
(PID.TID 0000.0001)  MDS_READ_FIELD: opening file: xx_lwdown.0000000000.001.001.data
(PID.TID 0000.0001)  MDS_READ_FIELD: opening file: xx_snowprecip.0000000000.001.001.data
(PID.TID 0000.0001)  MDS_READ_FIELD: opening file: xx_snowprecip.0000000000.001.001.data
(PID.TID 0000.0001)  MDS_READ_FIELD: opening file: xx_snowprecip.0000000000.001.001.data
(PID.TID 0000.0001)  MDS_READ_FIELD: opening file: xx_snowprecip.0000000000.001.001.data
(PID.TID 0000.0001)  MDS_READ_FIELD: opening file: xx_apressure.0000000000.001.001.data
(PID.TID 0000.0001)  MDS_READ_FIELD: opening file: xx_apressure.0000000000.001.001.data
(PID.TID 0000.0001)  MDS_READ_FIELD: opening file: xx_apressure.0000000000.001.001.data
(PID.TID 0000.0001)  MDS_READ_FIELD: opening file: xx_apressure.0000000000.001.001.data
(PID.TID 0000.0001)  MDS_READ_FIELD: opening file: psbar.0000000000.001.001.data
(PID.TID 0000.0001)  cost_ssh: offset_sum =  0.710000000000000E+02
(PID.TID 0000.0001)  MDS_READ_FIELD: opening file: psbar.0000000000.001.001.data
(PID.TID 0000.0001) ph-cost call cost_sst
(PID.TID 0000.0001)  MDS_READ_FIELD: opening file: tbar.0000000000.001.001.data
(PID.TID 0000.0001) ph-cost call cost_theta
(PID.TID 0000.0001)  MDS_READ_FIELD: opening file: tbar.0000000000.001.001.data
(PID.TID 0000.0001) ph-cost call cost_salt
(PID.TID 0000.0001)  MDS_READ_FIELD: opening file: sbar.0000000000.001.001.data
(PID.TID 0000.0001) ph-cost call cost_smrarea
(PID.TID 0000.0001) ph-cost smrarea   0.0000000000E+00  0.0000000000E+00
 --> f_ice     = 0.508667804267281E+12
 --> f_smrarea = 0.000000000000000E+00
 --> f_temp    = 0.000000000000000E+00
 --> f_salt    = 0.000000000000000E+00
 --> f_temp0   = 0.000000000000000E+00
 --> f_salt0   = 0.000000000000000E+00
 --> f_temp0smoo = 0.000000000000000E+00
 --> f_salt0smoo = 0.000000000000000E+00
 --> f_sst     = 0.423905252595452E+04
 --> f_tmi     = 0.000000000000000E+00
 --> f_sss     = 0.000000000000000E+00
 --> f_ssh       = 0.000000000000000E+00
 --> f_tp        = 0.000000000000000E+00
 --> f_ers       = 0.000000000000000E+00
 --> f_gfo       = 0.000000000000000E+00
 --> f_tauu    = 0.000000000000000E+00
 --> f_tauum   = 0.000000000000000E+00
 --> f_tauusmoo = 0.000000000000000E+00
 --> f_tauv    = 0.000000000000000E+00
 --> f_tauvm   = 0.000000000000000E+00
 --> f_tauvsmoo = 0.000000000000000E+00
 --> f_hflux   = 0.000000000000000E+00
 --> f_hfluxm  = 0.000000000000000E+00
 --> f_hfluxmm = 0.000000000000000E+00
 --> f_hfluxsmoo = 0.000000000000000E+00
 --> f_sflux   = 0.000000000000000E+00
 --> f_sfluxm  = 0.000000000000000E+00
 --> f_sfluxmm = 0.000000000000000E+00
 --> f_sfluxsmoo = 0.000000000000000E+00
 --> f_uwind     = 0.000000000000000E+00
 --> f_vwind     = 0.000000000000000E+00
 --> f_atemp     = 0.200000000000000E-07
 --> f_aqh     = 0.000000000000000E+00
 --> f_precip  = 0.000000000000000E+00
 --> f_swflux  = 0.000000000000000E+00
 --> f_swdown  = 0.000000000000000E+00
 --> f_uwindm     = 0.000000000000000E+00
 --> f_vwindm     = 0.000000000000000E+00
 --> f_atempm     = 0.250000000000000E-08
 --> f_aqhm     = 0.000000000000000E+00
 --> f_precipm  = 0.000000000000000E+00
 --> f_swfluxm  = 0.000000000000000E+00
 --> f_swdownm  = 0.000000000000000E+00
 --> f_uwindsmoo     = 0.000000000000000E+00
 --> f_vwindsmoo     = 0.000000000000000E+00
 --> f_atempsmoo     = 0.000000000000000E+00
 --> f_aqhsmoo     = 0.000000000000000E+00
 --> f_precipsmoo  = 0.000000000000000E+00
 --> f_swfluxsmoo  = 0.000000000000000E+00
 --> f_swdownsmoo  = 0.000000000000000E+00
 --> f_atl     = 0.000000000000000E+00
 --> f_ctdt    = 0.000000000000000E+00
 --> f_ctds    = 0.000000000000000E+00
 --> f_ctdtclim= 0.000000000000000E+00
 --> f_ctdsclim= 0.000000000000000E+00
 --> f_xbt     = 0.000000000000000E+00
 --> f_argot   = 0.000000000000000E+00
 --> f_argos   = 0.000000000000000E+00
 --> f_drifter   = 0.000000000000000E+00
 --> f_tdrift  = 0.000000000000000E+00
 --> f_sdrift  = 0.000000000000000E+00
 --> f_wdrift  = 0.000000000000000E+00
 --> f_scatx   = 0.000000000000000E+00
 --> f_scaty   = 0.000000000000000E+00
 --> f_scatxm  = 0.000000000000000E+00
 --> f_scatym  = 0.000000000000000E+00
 --> f_obcsn   = 0.000000000000000E+00
 --> f_obcss   = 0.000000000000000E+00
 --> f_obcsw   = 0.000000000000000E+00
 --> f_obcse   = 0.000000000000000E+00
 --> f_ageos   = 0.000000000000000E+00
 --> f_curmtr  = 0.000000000000000E+00
 --> f_kapgm   = 0.000000000000000E+00
 --> f_diffkr  = 0.000000000000000E+00
 --> f_eddytau = 0.000000000000000E+00
 --> f_hfluxmm2           = 0.000000000000000E+00
 --> f_sfluxmm2           = 0.000000000000000E+00
 --> objf_hmean           = 0.920255697315288E-02
 --> fc               = 0.508667808506334E+12
(PID.TID 0000.0001)  MDS_READ_FIELD: opening file: xx_atemp.0000000000.001.001.data
 grad-res -------------------------------
 grad-res     0    3   14    1    1    1    1    1   0.508667309413E+12 0.508667451332E+12 0.508667808506E+12
 grad-res     0    3    3    6  150    1    1    1   0.107647436632E+07 -.178587272430E+10 0.166000162622E+04
(PID.TID 0000.0001)       precision_grdchk_result ADM     5.08667309412764E+11     1.07647436631785E+06
 ph-grd  ierr ---------------------------
 ph-grd  ierr =  0, icomp =  6, ichknum =  3
 ph-grd -->hit<--  15 1 1 1
(PID.TID 0000.0001)  MDS_READ_FIELD: opening file: adxx_atemp.0000000000.001.001.data
(PID.TID 0000.0001)  MDS_READ_FIELD: opening file: xx_atemp.0000000000.001.001.data
(PID.TID 0000.0001) 
(PID.TID 0000.0001)  cal_TimeStamp: iter =          0 time =  0.00000000E+00
(PID.TID 0000.0001)                 date =   19790101           0
(PID.TID 0000.0001) 
(PID.TID 0000.0001) // =======================================================
(PID.TID 0000.0001) // Field Model R_low (ini_masks_etc) at iteration          1
(PID.TID 0000.0001) // CMIN =         -4.200000000000000E+03
(PID.TID 0000.0001) // CMAX =         -5.500000000000000E+01
(PID.TID 0000.0001) // CINT =          1.535185185185185E+02
(PID.TID 0000.0001) // SYMBOLS (CMIN->CMAX): -abcdefghijklmnopqrstuvwxyz+
(PID.TID 0000.0001) //                  0.0: .
(PID.TID 0000.0001) // RANGE I (Lo:Hi:Step):(  -2:  23:   1)
(PID.TID 0000.0001) // RANGE J (Lo:Hi:Step):(  19:  -2:  -1)
(PID.TID 0000.0001) // RANGE K (Lo:Hi:Step):(   1:   1:   1)
(PID.TID 0000.0001) // =======================================================
(PID.TID 0000.0001) K =   1
(PID.TID 0000.0001) //                I=7       I=17
(PID.TID 0000.0001) // |--J--|210123456|890123456|890123
(PID.TID 0000.0001) //     19 cc-..........+.zzxmgcc-...
(PID.TID 0000.0001) //     18 jc-.......+zzz..zzsmjc-...
(PID.TID 0000.0001) //     17 wc-........++z+++z+wwc-...
(PID.TID 0000.0001) //     16 ....zyyz................zy
(PID.TID 0000.0001) //     15 ...yxwwuspxyxz.........yxw
(PID.TID 0000.0001) //     14 ....+wwspppsxzz.........+w
(PID.TID 0000.0001) //     13 .......zwsppsyz...........
(PID.TID 0000.0001) //     12 .........+ypswzz+.........
(PID.TID 0000.0001) //     11 ...........+wwy+..........
(PID.TID 0000.0001) //     10 ..........zzzywy+.........
(PID.TID 0000.0001) //      9 ..z.......+zxsmmm+....z...
(PID.TID 0000.0001) //      8 ..s.....zzzxumjjjjuz..s...
(PID.TID 0000.0001) //      7 pmj......z.+zmjggggjpmj...
(PID.TID 0000.0001) //      6 ggg.........zxmjggggggg...
(PID.TID 0000.0001) //      5 ggg..........zzsjgggggg...
(PID.TID 0000.0001) //      4 ccg............zzmgcccg...
(PID.TID 0000.0001) //      3 cc-..........+.zzxmgcc-...
(PID.TID 0000.0001) //      2 jc-.......+zzz..zzsmjc-...
(PID.TID 0000.0001) //      1 wc-........++z+++z+wwc-...
(PID.TID 0000.0001) //      0 ....zyyz................zy
(PID.TID 0000.0001) //     -1 ...yxwwuspxyxz.........yxw
(PID.TID 0000.0001) //     -2 ....+wwspppsxzz.........+w
(PID.TID 0000.0001) // =======================================================
(PID.TID 0000.0001) // END OF FIELD                                          =
(PID.TID 0000.0001) // =======================================================
(PID.TID 0000.0001) 
(PID.TID 0000.0001) // =======================================================
(PID.TID 0000.0001) // Field Model Ro_surf (ini_masks_etc) at iteration          1
(PID.TID 0000.0001) // CMIN =          1.000000000000000E+32
(PID.TID 0000.0001) // CMAX =         -1.000000000000000E+32
(PID.TID 0000.0001) // CINT =          0.000000000000000E+00
(PID.TID 0000.0001) // SYMBOLS (CMIN->CMAX): -abcdefghijklmnopqrstuvwxyz+
(PID.TID 0000.0001) //                  0.0: .
(PID.TID 0000.0001) // RANGE I (Lo:Hi:Step):(  -2:  23:   1)
(PID.TID 0000.0001) // RANGE J (Lo:Hi:Step):(  19:  -2:  -1)
(PID.TID 0000.0001) // RANGE K (Lo:Hi:Step):(   1:   1:   1)
(PID.TID 0000.0001) // =======================================================
(PID.TID 0000.0001) // =======================================================
(PID.TID 0000.0001) // END OF FIELD                                          =
(PID.TID 0000.0001) // =======================================================
(PID.TID 0000.0001) 
(PID.TID 0000.0001) // =======================================================
(PID.TID 0000.0001) // Field hFacC at iteration          1
(PID.TID 0000.0001) // CMIN =          1.000000000000000E+00
(PID.TID 0000.0001) // CMAX =          1.000000000000000E+00
(PID.TID 0000.0001) // CINT =          0.000000000000000E+00
(PID.TID 0000.0001) // SYMBOLS (CMIN->CMAX): -abcdefghijklmnopqrstuvwxyz+
(PID.TID 0000.0001) //                  0.0: .
(PID.TID 0000.0001) // RANGE I (Lo:Hi:Step):(  -2:  23:   1)
(PID.TID 0000.0001) // RANGE J (Lo:Hi:Step):(  19:  -2:  -1)
(PID.TID 0000.0001) // RANGE K (Lo:Hi:Step):(   1:   1:   1)
(PID.TID 0000.0001) // =======================================================
(PID.TID 0000.0001) // =======================================================
(PID.TID 0000.0001) // END OF FIELD                                          =
(PID.TID 0000.0001) // =======================================================
(PID.TID 0000.0001) 
(PID.TID 0000.0001) // =======================================================
(PID.TID 0000.0001) // Field hFacW at iteration          1
(PID.TID 0000.0001) // CMIN =          1.000000000000000E+00
(PID.TID 0000.0001) // CMAX =          1.000000000000000E+00
(PID.TID 0000.0001) // CINT =          0.000000000000000E+00
(PID.TID 0000.0001) // SYMBOLS (CMIN->CMAX): -abcdefghijklmnopqrstuvwxyz+
(PID.TID 0000.0001) //                  0.0: .
(PID.TID 0000.0001) // RANGE I (Lo:Hi:Step):(  -2:  23:   1)
(PID.TID 0000.0001) // RANGE J (Lo:Hi:Step):(  19:  -2:  -1)
(PID.TID 0000.0001) // RANGE K (Lo:Hi:Step):(   1:   1:   1)
(PID.TID 0000.0001) // =======================================================
(PID.TID 0000.0001) // =======================================================
(PID.TID 0000.0001) // END OF FIELD                                          =
(PID.TID 0000.0001) // =======================================================
(PID.TID 0000.0001) 
(PID.TID 0000.0001) // =======================================================
(PID.TID 0000.0001) // Field hFacS at iteration          1
(PID.TID 0000.0001) // CMIN =          1.000000000000000E+00
(PID.TID 0000.0001) // CMAX =          1.000000000000000E+00
(PID.TID 0000.0001) // CINT =          0.000000000000000E+00
(PID.TID 0000.0001) // SYMBOLS (CMIN->CMAX): -abcdefghijklmnopqrstuvwxyz+
(PID.TID 0000.0001) //                  0.0: .
(PID.TID 0000.0001) // RANGE I (Lo:Hi:Step):(  -2:  23:   1)
(PID.TID 0000.0001) // RANGE J (Lo:Hi:Step):(  19:  -2:  -1)
(PID.TID 0000.0001) // RANGE K (Lo:Hi:Step):(   1:   1:   1)
(PID.TID 0000.0001) // =======================================================
(PID.TID 0000.0001) // =======================================================
(PID.TID 0000.0001) // END OF FIELD                                          =
(PID.TID 0000.0001) // =======================================================
(PID.TID 0000.0001) 
(PID.TID 0000.0001) %MON seaicefCori_max              =   1.4210453727344E-04
(PID.TID 0000.0001) %MON seaicefCori_min              =   1.0666243053630E-04
(PID.TID 0000.0001) %MON seaicefCori_mean             =   1.2711058365303E-04
(PID.TID 0000.0001) %MON seaicefCori_sd               =   1.1031533875266E-05
(PID.TID 0000.0001) %MON seaicefCoriG_max             =   1.4151032568025E-04
(PID.TID 0000.0001) %MON seaicefCoriG_min             =   1.0491029349513E-04
(PID.TID 0000.0001) %MON seaicefCoriG_mean            =   1.2591168756569E-04
(PID.TID 0000.0001) %MON seaicefCoriG_sd              =   1.1383815633153E-05
(PID.TID 0000.0001) %MON seaicefCoriCos_max           =   9.9464325599212E-05
(PID.TID 0000.0001) %MON seaicefCoriCos_min           =   3.2807417471054E-05
(PID.TID 0000.0001) %MON seaicefCoriCos_mean          =   6.7585896192312E-05
(PID.TID 0000.0001) %MON seaicefCoriCos_sd            =   2.0576140902612E-05
(PID.TID 0000.0001) INI_CG2D: CG2D normalisation factor =  1.6094939840939192E-04
(PID.TID 0000.0001) 
(PID.TID 0000.0001) // =======================================================
(PID.TID 0000.0001) // Field Initial Temperature at iteration          1
(PID.TID 0000.0001) // CMIN =          9.205863475799561E-01
(PID.TID 0000.0001) // CMAX =          1.333307647705078E+01
(PID.TID 0000.0001) // CINT =          4.597218566470676E-01
(PID.TID 0000.0001) // SYMBOLS (CMIN->CMAX): -abcdefghijklmnopqrstuvwxyz+
(PID.TID 0000.0001) //                  0.0: .
(PID.TID 0000.0001) // RANGE I (Lo:Hi:Step):(   1:  20:   1)
(PID.TID 0000.0001) // RANGE J (Lo:Hi:Step):(  16:   1:  -1)
(PID.TID 0000.0001) // RANGE K (Lo:Hi:Step):(   1:   1:   1)
(PID.TID 0000.0001) // =======================================================
(PID.TID 0000.0001) K =   1
(PID.TID 0000.0001)                I=10      I=20
(PID.TID 0000.0001) |--J--|123456789|123456789|
(PID.TID 0000.0001)     16 .----...............
(PID.TID 0000.0001)     15 aabaaaaaaaa.........
(PID.TID 0000.0001)     14 .ccccccbbbbc........
(PID.TID 0000.0001)     13 ....dddddddd........
(PID.TID 0000.0001)     12 ......dcdddddd......
(PID.TID 0000.0001)     11 ........cccdd.......
(PID.TID 0000.0001)     10 .......bbcdddd......
(PID.TID 0000.0001)      9 .......cdeeffff....j
(PID.TID 0000.0001)      8 .....ccdefgghhggh..k
(PID.TID 0000.0001)      7 ......d.fghiiiiiijkl
(PID.TID 0000.0001)      6 .........ghhijjjkklm
(PID.TID 0000.0001)      5 ..........hhhijklmnn
(PID.TID 0000.0001)      4 ............ghikmopq
(PID.TID 0000.0001)      3 ..........k.hhiknqsu
(PID.TID 0000.0001)      2 .......oonm..ijknqux
(PID.TID 0000.0001)      1 ........qponlkklosw+
(PID.TID 0000.0001) // =======================================================
(PID.TID 0000.0001) // END OF FIELD                                          =
(PID.TID 0000.0001) // =======================================================
(PID.TID 0000.0001) 
(PID.TID 0000.0001) // =======================================================
(PID.TID 0000.0001) // Field Initial Salinity at iteration          1
(PID.TID 0000.0001) // CMIN =          3.012869834899902E+01
(PID.TID 0000.0001) // CMAX =          3.487366104125977E+01
(PID.TID 0000.0001) // CINT =          1.757393589726201E-01
(PID.TID 0000.0001) // SYMBOLS (CMIN->CMAX): -abcdefghijklmnopqrstuvwxyz+
(PID.TID 0000.0001) //                  0.0: .
(PID.TID 0000.0001) // RANGE I (Lo:Hi:Step):(   1:  20:   1)
(PID.TID 0000.0001) // RANGE J (Lo:Hi:Step):(  16:   1:  -1)
(PID.TID 0000.0001) // RANGE K (Lo:Hi:Step):(   1:   1:   1)
(PID.TID 0000.0001) // =======================================================
(PID.TID 0000.0001) K =   1
(PID.TID 0000.0001)                I=10      I=20
(PID.TID 0000.0001) |--J--|123456789|123456789|
(PID.TID 0000.0001)     16 .nnos...............
(PID.TID 0000.0001)     15 lnoppppppol.........
(PID.TID 0000.0001)     14 .nponmllllmn........
(PID.TID 0000.0001)     13 ....ljhijkmo........
(PID.TID 0000.0001)     12 ......ghjlmors......
(PID.TID 0000.0001)     11 ........jmnpr.......
(PID.TID 0000.0001)     10 .......jlnpqrq......
(PID.TID 0000.0001)      9 .......noqsttts....w
(PID.TID 0000.0001)      8 .....jlnpsuvwwutu..x
(PID.TID 0000.0001)      7 ......j.rruwxyxxwxxy
(PID.TID 0000.0001)      6 .........ppruxyyzzzz
(PID.TID 0000.0001)      5 ..........ijoswyzzzz
(PID.TID 0000.0001)      4 ............iotwyzzz
(PID.TID 0000.0001)      3 ..........g.imquwyzz
(PID.TID 0000.0001)      2 .......-bef..knqtvxz
(PID.TID 0000.0001)      1 ........-cegijlosvy+
(PID.TID 0000.0001) // =======================================================
(PID.TID 0000.0001) // END OF FIELD                                          =
(PID.TID 0000.0001) // =======================================================
(PID.TID 0000.0001) 
(PID.TID 0000.0001) Start initial hydrostatic pressure computation
(PID.TID 0000.0001) Pressure is predetermined for buoyancyRelation OCEANIC
(PID.TID 0000.0001) 
(PID.TID 0000.0001)  MDS_READ_FIELD: opening file: xx_theta.0000000000.001.001.data
 ph-ctrl theta0 a   0.
 ph-ctrl theta0 b   0.
(PID.TID 0000.0001)  MDS_READ_FIELD: opening file: xx_salt.0000000000.001.001.data
(PID.TID 0000.0001) // =======================================================
(PID.TID 0000.0001) // Model current state
(PID.TID 0000.0001) // =======================================================
(PID.TID 0000.0001) 
(PID.TID 0000.0001) // =======================================================
(PID.TID 0000.0001) // Begin MONITOR SEAICE statistics
(PID.TID 0000.0001) // =======================================================
(PID.TID 0000.0001) %MON seaice_tsnumber              =                     0
(PID.TID 0000.0001) %MON seaice_time_sec              =   0.0000000000000E+00
(PID.TID 0000.0001) %MON seaice_uice_max              =   0.0000000000000E+00
(PID.TID 0000.0001) %MON seaice_uice_min              =   0.0000000000000E+00
(PID.TID 0000.0001) %MON seaice_uice_mean             =   0.0000000000000E+00
(PID.TID 0000.0001) %MON seaice_uice_sd               =   0.0000000000000E+00
(PID.TID 0000.0001) %MON seaice_uice_del2             =   0.0000000000000E+00
(PID.TID 0000.0001) %MON seaice_vice_max              =   0.0000000000000E+00
(PID.TID 0000.0001) %MON seaice_vice_min              =   0.0000000000000E+00
(PID.TID 0000.0001) %MON seaice_vice_mean             =   0.0000000000000E+00
(PID.TID 0000.0001) %MON seaice_vice_sd               =   0.0000000000000E+00
(PID.TID 0000.0001) %MON seaice_vice_del2             =   0.0000000000000E+00
(PID.TID 0000.0001) %MON seaice_area_max              =   1.0000000000000E+00
(PID.TID 0000.0001) %MON seaice_area_min              =   1.0000000000000E+00
(PID.TID 0000.0001) %MON seaice_area_mean             =   1.0000000000000E+00
(PID.TID 0000.0001) %MON seaice_area_sd               =   0.0000000000000E+00
(PID.TID 0000.0001) %MON seaice_area_del2             =   0.0000000000000E+00
(PID.TID 0000.0001) %MON seaice_heff_max              =   1.0000000000000E+00
(PID.TID 0000.0001) %MON seaice_heff_min              =   1.0000000000000E+00
(PID.TID 0000.0001) %MON seaice_heff_mean             =   1.0000000000000E+00
(PID.TID 0000.0001) %MON seaice_heff_sd               =   0.0000000000000E+00
(PID.TID 0000.0001) %MON seaice_heff_del2             =   0.0000000000000E+00
(PID.TID 0000.0001) %MON seaice_hsnow_max             =   2.0000000298023E-01
(PID.TID 0000.0001) %MON seaice_hsnow_min             =   2.0000000298023E-01
(PID.TID 0000.0001) %MON seaice_hsnow_mean            =   2.0000000298023E-01
(PID.TID 0000.0001) %MON seaice_hsnow_sd              =   5.8286708792821E-16
(PID.TID 0000.0001) %MON seaice_hsnow_del2            =   0.0000000000000E+00
(PID.TID 0000.0001) // =======================================================
(PID.TID 0000.0001) // End MONITOR SEAICE statistics
(PID.TID 0000.0001) // =======================================================
(PID.TID 0000.0001)  MDS_READ_FIELD: opening file: xx_atemp.0000000000.001.001.data
(PID.TID 0000.0001)  MDS_READ_FIELD: opening file: xx_atemp.0000000000.001.001.data
(PID.TID 0000.0001)  MDS_READ_FIELD: opening file: xx_aqh.0000000000.001.001.data
(PID.TID 0000.0001)  MDS_READ_FIELD: opening file: xx_aqh.0000000000.001.001.data
(PID.TID 0000.0001)  MDS_READ_FIELD: opening file: xx_precip.0000000000.001.001.data
(PID.TID 0000.0001)  MDS_READ_FIELD: opening file: xx_precip.0000000000.001.001.data
(PID.TID 0000.0001)  MDS_READ_FIELD: opening file: xx_swdown.0000000000.001.001.data
(PID.TID 0000.0001)  MDS_READ_FIELD: opening file: xx_swdown.0000000000.001.001.data
(PID.TID 0000.0001)  MDS_READ_FIELD: opening file: xx_lwdown.0000000000.001.001.data
(PID.TID 0000.0001)  MDS_READ_FIELD: opening file: xx_lwdown.0000000000.001.001.data
(PID.TID 0000.0001)  MDS_READ_FIELD: opening file: xx_snowprecip.0000000000.001.001.data
(PID.TID 0000.0001)  MDS_READ_FIELD: opening file: xx_snowprecip.0000000000.001.001.data
(PID.TID 0000.0001)  MDS_READ_FIELD: opening file: xx_apressure.0000000000.001.001.data
(PID.TID 0000.0001)  MDS_READ_FIELD: opening file: xx_apressure.0000000000.001.001.data
(PID.TID 0000.0001)  MDS_READ_FIELD: opening file: xx_uwind.0000000000.001.001.data
(PID.TID 0000.0001)  MDS_READ_FIELD: opening file: xx_uwind.0000000000.001.001.data
(PID.TID 0000.0001)  MDS_READ_FIELD: opening file: xx_vwind.0000000000.001.001.data
(PID.TID 0000.0001)  MDS_READ_FIELD: opening file: xx_vwind.0000000000.001.001.data
(PID.TID 0000.0001) // =======================================================
(PID.TID 0000.0001) // Begin MONITOR EXF statistics
(PID.TID 0000.0001) // =======================================================
(PID.TID 0000.0001) %MON exf_tsnumber                 =                     0
(PID.TID 0000.0001) %MON exf_time_sec                 =   0.0000000000000E+00
(PID.TID 0000.0001) %MON exf_ustress_max              =   6.3903775845771E-02
(PID.TID 0000.0001) %MON exf_ustress_min              =  -9.5324050318348E-02
(PID.TID 0000.0001) %MON exf_ustress_mean             =   2.2585161466444E-02
(PID.TID 0000.0001) %MON exf_ustress_sd               =   2.7275779580635E-02
(PID.TID 0000.0001) %MON exf_ustress_del2             =   2.9464930296426E-03
(PID.TID 0000.0001) %MON exf_vstress_max              =   5.4708944127586E-02
(PID.TID 0000.0001) %MON exf_vstress_min              =  -6.2488440618747E-02
(PID.TID 0000.0001) %MON exf_vstress_mean             =  -5.6174744302975E-03
(PID.TID 0000.0001) %MON exf_vstress_sd               =   1.5596129653513E-02
(PID.TID 0000.0001) %MON exf_vstress_del2             =   1.7930354012150E-03
(PID.TID 0000.0001) %MON exf_hflux_max                =   7.3111020636161E+02
(PID.TID 0000.0001) %MON exf_hflux_min                =   1.0991726570245E+02
(PID.TID 0000.0001) %MON exf_hflux_mean               =   2.7655954010175E+02
(PID.TID 0000.0001) %MON exf_hflux_sd                 =   1.5872020339912E+02
(PID.TID 0000.0001) %MON exf_hflux_del2               =   1.9324684172558E+01
(PID.TID 0000.0001) %MON exf_sflux_max                =   5.3473262221640E-08
(PID.TID 0000.0001) %MON exf_sflux_min                =  -6.1385296755754E-08
(PID.TID 0000.0001) %MON exf_sflux_mean               =  -7.3062649836315E-09
(PID.TID 0000.0001) %MON exf_sflux_sd                 =   2.6562207652909E-08
(PID.TID 0000.0001) %MON exf_sflux_del2               =   3.6392858678589E-09
(PID.TID 0000.0001) %MON exf_uwind_max                =   6.4643745422363E+00
(PID.TID 0000.0001) %MON exf_uwind_min                =  -6.8372380733490E+00
(PID.TID 0000.0001) %MON exf_uwind_mean               =   2.7697727336031E+00
(PID.TID 0000.0001) %MON exf_uwind_sd                 =   2.9900402496951E+00
(PID.TID 0000.0001) %MON exf_uwind_del2               =   3.1570994739265E-01
(PID.TID 0000.0001) %MON exf_vwind_max                =   3.9240682125092E+00
(PID.TID 0000.0001) %MON exf_vwind_min                =  -6.0197033882141E+00
(PID.TID 0000.0001) %MON exf_vwind_mean               =  -7.6089868124963E-01
(PID.TID 0000.0001) %MON exf_vwind_sd                 =   1.7293437592941E+00
(PID.TID 0000.0001) %MON exf_vwind_del2               =   1.9333263882436E-01
(PID.TID 0000.0001) %MON exf_wspeed_max               =   7.8832820454477E+00
(PID.TID 0000.0001) %MON exf_wspeed_min               =   4.6035219539401E-01
(PID.TID 0000.0001) %MON exf_wspeed_mean              =   4.1981217095273E+00
(PID.TID 0000.0001) %MON exf_wspeed_sd                =   1.5991724245810E+00
(PID.TID 0000.0001) %MON exf_wspeed_del2              =   3.7693667977018E-01
(PID.TID 0000.0001) %MON exf_atemp_max                =   2.8188281250000E+02
(PID.TID 0000.0001) %MON exf_atemp_min                =   2.3646176910400E+02
(PID.TID 0000.0001) %MON exf_atemp_mean               =   2.6394605878816E+02
(PID.TID 0000.0001) %MON exf_atemp_sd                 =   1.1983418433978E+01
(PID.TID 0000.0001) %MON exf_atemp_del2               =   6.4942309334310E-01
(PID.TID 0000.0001) %MON exf_aqh_max                  =   6.3231729436666E-03
(PID.TID 0000.0001) %MON exf_aqh_min                  =   1.6369274817407E-04
(PID.TID 0000.0001) %MON exf_aqh_mean                 =   2.4803629101886E-03
(PID.TID 0000.0001) %MON exf_aqh_sd                   =   1.4265074770275E-03
(PID.TID 0000.0001) %MON exf_aqh_del2                 =   6.8141780599641E-05
(PID.TID 0000.0001) %MON exf_lwflux_max               =   1.9978966060501E+02
(PID.TID 0000.0001) %MON exf_lwflux_min               =   6.3304595803996E+01
(PID.TID 0000.0001) %MON exf_lwflux_mean              =   1.0410079899302E+02
(PID.TID 0000.0001) %MON exf_lwflux_sd                =   3.6519264181786E+01
(PID.TID 0000.0001) %MON exf_lwflux_del2              =   3.1286635970398E+00
(PID.TID 0000.0001) %MON exf_precip_max               =   1.0498766300771E-07
(PID.TID 0000.0001) %MON exf_precip_min               =   2.7359498694368E-10
(PID.TID 0000.0001) %MON exf_precip_mean              =   3.6390080543085E-08
(PID.TID 0000.0001) %MON exf_precip_sd                =   2.0578148171209E-08
(PID.TID 0000.0001) %MON exf_precip_del2              =   2.5551549857431E-09
(PID.TID 0000.0001) %MON exf_snowprecip_max           =   0.0000000000000E+00
(PID.TID 0000.0001) %MON exf_snowprecip_min           =   0.0000000000000E+00
(PID.TID 0000.0001) %MON exf_snowprecip_mean          =   0.0000000000000E+00
(PID.TID 0000.0001) %MON exf_snowprecip_sd            =   0.0000000000000E+00
(PID.TID 0000.0001) %MON exf_snowprecip_del2          =   0.0000000000000E+00
(PID.TID 0000.0001) %MON exf_swflux_max               =  -8.1205755472183E-02
(PID.TID 0000.0001) %MON exf_swflux_min               =  -6.3973114013672E+01
(PID.TID 0000.0001) %MON exf_swflux_mean              =  -2.6453223022948E+01
(PID.TID 0000.0001) %MON exf_swflux_sd                =   1.9625901079469E+01
(PID.TID 0000.0001) %MON exf_swflux_del2              =   4.7901276555285E-01
(PID.TID 0000.0001) %MON exf_evap_max                 =   5.9797470045733E-08
(PID.TID 0000.0001) %MON exf_evap_min                 =   1.0729148721654E-08
(PID.TID 0000.0001) %MON exf_evap_mean                =   2.9083815559453E-08
(PID.TID 0000.0001) %MON exf_evap_sd                  =   9.2938022526799E-09
(PID.TID 0000.0001) %MON exf_evap_del2                =   2.0154591973772E-09
(PID.TID 0000.0001) %MON exf_swdown_max               =   7.1081237792969E+01
(PID.TID 0000.0001) %MON exf_swdown_min               =   9.0228617191315E-02
(PID.TID 0000.0001) %MON exf_swdown_mean              =   2.9392470025498E+01
(PID.TID 0000.0001) %MON exf_swdown_sd                =   2.1806556754965E+01
(PID.TID 0000.0001) %MON exf_swdown_del2              =   5.3223640616983E-01
(PID.TID 0000.0001) %MON exf_lwdown_max               =   3.0567971801758E+02
(PID.TID 0000.0001) %MON exf_lwdown_min               =   1.1599769210815E+02
(PID.TID 0000.0001) %MON exf_lwdown_mean              =   2.2594931695913E+02
(PID.TID 0000.0001) %MON exf_lwdown_sd                =   4.6277429231296E+01
(PID.TID 0000.0001) %MON exf_lwdown_del2              =   3.2438212966919E+00
(PID.TID 0000.0001) %MON exf_apressure_max            =   0.0000000000000E+00
(PID.TID 0000.0001) %MON exf_apressure_min            =   0.0000000000000E+00
(PID.TID 0000.0001) %MON exf_apressure_mean           =   0.0000000000000E+00
(PID.TID 0000.0001) %MON exf_apressure_sd             =   0.0000000000000E+00
(PID.TID 0000.0001) %MON exf_apressure_del2           =   0.0000000000000E+00
(PID.TID 0000.0001) %MON exf_runoff_max               =   0.0000000000000E+00
(PID.TID 0000.0001) %MON exf_runoff_min               =   0.0000000000000E+00
(PID.TID 0000.0001) %MON exf_runoff_mean              =   0.0000000000000E+00
(PID.TID 0000.0001) %MON exf_runoff_sd                =   0.0000000000000E+00
(PID.TID 0000.0001) %MON exf_runoff_del2              =   0.0000000000000E+00
(PID.TID 0000.0001) %MON exf_climsst_max              =   0.0000000000000E+00
(PID.TID 0000.0001) %MON exf_climsst_min              =   0.0000000000000E+00
(PID.TID 0000.0001) %MON exf_climsst_mean             =   0.0000000000000E+00
(PID.TID 0000.0001) %MON exf_climsst_sd               =   0.0000000000000E+00
(PID.TID 0000.0001) %MON exf_climsst_del2             =   0.0000000000000E+00
(PID.TID 0000.0001) %MON exf_climsss_max              =   3.5040330886841E+01
(PID.TID 0000.0001) %MON exf_climsss_min              =   3.0666313171387E+01
(PID.TID 0000.0001) %MON exf_climsss_mean             =   3.3459319600989E+01
(PID.TID 0000.0001) %MON exf_climsss_sd               =   1.0319548925494E+00
(PID.TID 0000.0001) %MON exf_climsss_del2             =   1.0019396146139E-01
(PID.TID 0000.0001) // =======================================================
(PID.TID 0000.0001) // End MONITOR EXF statistics
(PID.TID 0000.0001) // =======================================================
 ph-ice B  0  0.  0.  0.
 ph-ice C  0  5.30354909E+10
 cg2d: Sum(rhs),rhsMax =   1.05818132034585E-15  9.93037467350620E-01
(PID.TID 0000.0001) // =======================================================
(PID.TID 0000.0001) // Begin MONITOR SEAICE statistics
(PID.TID 0000.0001) // =======================================================
(PID.TID 0000.0001) %MON seaice_tsnumber              =                     1
(PID.TID 0000.0001) %MON seaice_time_sec              =   3.6000000000000E+03
(PID.TID 0000.0001) %MON seaice_uice_max              =   1.1830188588838E-01
(PID.TID 0000.0001) %MON seaice_uice_min              =  -3.6947667601810E-02
(PID.TID 0000.0001) %MON seaice_uice_mean             =   4.6351011395841E-02
(PID.TID 0000.0001) %MON seaice_uice_sd               =   4.4551623876367E-02
(PID.TID 0000.0001) %MON seaice_uice_del2             =   2.6893939150909E-03
(PID.TID 0000.0001) %MON seaice_vice_max              =   3.8048078875392E-02
(PID.TID 0000.0001) %MON seaice_vice_min              =  -7.2208311040469E-02
(PID.TID 0000.0001) %MON seaice_vice_mean             =  -1.7212953413442E-02
(PID.TID 0000.0001) %MON seaice_vice_sd               =   2.7498420195410E-02
(PID.TID 0000.0001) %MON seaice_vice_del2             =   2.2712992187913E-03
(PID.TID 0000.0001) %MON seaice_area_max              =   1.0000000000000E+00
(PID.TID 0000.0001) %MON seaice_area_min              =   0.0000000000000E+00
(PID.TID 0000.0001) %MON seaice_area_mean             =   6.3240418008182E-01
(PID.TID 0000.0001) %MON seaice_area_sd               =   4.5166862134438E-01
(PID.TID 0000.0001) %MON seaice_area_del2             =   4.7454801422287E-02
(PID.TID 0000.0001) %MON seaice_heff_max              =   6.0076635272005E-01
(PID.TID 0000.0001) %MON seaice_heff_min              =   0.0000000000000E+00
(PID.TID 0000.0001) %MON seaice_heff_mean             =   1.4887451421175E-01
(PID.TID 0000.0001) %MON seaice_heff_sd               =   1.8287366826742E-01
(PID.TID 0000.0001) %MON seaice_heff_del2             =   1.0146605918607E-02
(PID.TID 0000.0001) %MON seaice_hsnow_max             =   2.0078474686707E-01
(PID.TID 0000.0001) %MON seaice_hsnow_min             =   0.0000000000000E+00
(PID.TID 0000.0001) %MON seaice_hsnow_mean            =   1.1848697056338E-01
(PID.TID 0000.0001) %MON seaice_hsnow_sd              =   9.6623972770983E-02
(PID.TID 0000.0001) %MON seaice_hsnow_del2            =   6.2688952170602E-03
(PID.TID 0000.0001) // =======================================================
(PID.TID 0000.0001) // End MONITOR SEAICE statistics
(PID.TID 0000.0001) // =======================================================
(PID.TID 0000.0001) // =======================================================
(PID.TID 0000.0001) // Begin MONITOR EXF statistics
(PID.TID 0000.0001) // =======================================================
(PID.TID 0000.0001) %MON exf_tsnumber                 =                     1
(PID.TID 0000.0001) %MON exf_time_sec                 =   3.6000000000000E+03
(PID.TID 0000.0001) %MON exf_ustress_max              =   5.2215336216899E-02
(PID.TID 0000.0001) %MON exf_ustress_min              =  -9.3781516255246E-02
(PID.TID 0000.0001) %MON exf_ustress_mean             =   1.7908662491299E-02
(PID.TID 0000.0001) %MON exf_ustress_sd               =   2.3677823212463E-02
(PID.TID 0000.0001) %MON exf_ustress_del2             =   2.8185953299279E-03
(PID.TID 0000.0001) %MON exf_vstress_max              =   5.3823846971061E-02
(PID.TID 0000.0001) %MON exf_vstress_min              =  -5.8521115502029E-02
(PID.TID 0000.0001) %MON exf_vstress_mean             =  -5.4709261766234E-03
(PID.TID 0000.0001) %MON exf_vstress_sd               =   1.4440701938147E-02
(PID.TID 0000.0001) %MON exf_vstress_del2             =   1.6942466375470E-03
(PID.TID 0000.0001) %MON exf_hflux_max                =   6.2467472133264E+02
(PID.TID 0000.0001) %MON exf_hflux_min                =  -5.4116825759641E+01
(PID.TID 0000.0001) %MON exf_hflux_mean               =   1.4693364508156E+02
(PID.TID 0000.0001) %MON exf_hflux_sd                 =   1.8156699191278E+02
(PID.TID 0000.0001) %MON exf_hflux_del2               =   1.6567547708346E+01
(PID.TID 0000.0001) %MON exf_sflux_max                =   3.9008935708334E-08
(PID.TID 0000.0001) %MON exf_sflux_min                =  -8.8902774357601E-08
(PID.TID 0000.0001) %MON exf_sflux_mean               =  -2.5876940723464E-08
(PID.TID 0000.0001) %MON exf_sflux_sd                 =   3.0537598421595E-08
(PID.TID 0000.0001) %MON exf_sflux_del2               =   3.1605976988924E-09
(PID.TID 0000.0001) %MON exf_uwind_max                =   6.4648819946852E+00
(PID.TID 0000.0001) %MON exf_uwind_min                =  -6.8372648550513E+00
(PID.TID 0000.0001) %MON exf_uwind_mean               =   2.7698802859476E+00
(PID.TID 0000.0001) %MON exf_uwind_sd                 =   2.9903162155877E+00
(PID.TID 0000.0001) %MON exf_uwind_del2               =   3.1571785161521E-01
(PID.TID 0000.0001) %MON exf_vwind_max                =   3.9240983933048E+00
(PID.TID 0000.0001) %MON exf_vwind_min                =  -6.0187974783892E+00
(PID.TID 0000.0001) %MON exf_vwind_mean               =  -7.6028090815952E-01
(PID.TID 0000.0001) %MON exf_vwind_sd                 =   1.7294518007626E+00
(PID.TID 0000.0001) %MON exf_vwind_del2               =   1.9332576748242E-01
(PID.TID 0000.0001) %MON exf_wspeed_max               =   7.8833202965791E+00
(PID.TID 0000.0001) %MON exf_wspeed_min               =   4.6010935417159E-01
(PID.TID 0000.0001) %MON exf_wspeed_mean              =   4.1982241536133E+00
(PID.TID 0000.0001) %MON exf_wspeed_sd                =   1.5994287774633E+00
(PID.TID 0000.0001) %MON exf_wspeed_del2              =   3.7699000842292E-01
(PID.TID 0000.0001) %MON exf_atemp_max                =   2.8188110034713E+02
(PID.TID 0000.0001) %MON exf_atemp_min                =   2.3645730413635E+02
(PID.TID 0000.0001) %MON exf_atemp_mean               =   2.6394141469886E+02
(PID.TID 0000.0001) %MON exf_atemp_sd                 =   1.1984878962957E+01
(PID.TID 0000.0001) %MON exf_atemp_del2               =   6.4944242489554E-01
(PID.TID 0000.0001) %MON exf_aqh_max                  =   6.3224764028055E-03
(PID.TID 0000.0001) %MON exf_aqh_min                  =   1.6359864467567E-04
(PID.TID 0000.0001) %MON exf_aqh_mean                 =   2.4798025537840E-03
(PID.TID 0000.0001) %MON exf_aqh_sd                   =   1.4264043737180E-03
(PID.TID 0000.0001) %MON exf_aqh_del2                 =   6.8128113038494E-05
(PID.TID 0000.0001) %MON exf_lwflux_max               =   1.8380784776361E+02
(PID.TID 0000.0001) %MON exf_lwflux_min               =   2.6472644798215E+01
(PID.TID 0000.0001) %MON exf_lwflux_mean              =   7.5350572633070E+01
(PID.TID 0000.0001) %MON exf_lwflux_sd                =   4.3134595524237E+01
(PID.TID 0000.0001) %MON exf_lwflux_del2              =   3.2390977067912E+00
(PID.TID 0000.0001) %MON exf_precip_max               =   1.0498904445033E-07
(PID.TID 0000.0001) %MON exf_precip_min               =   2.7346106047101E-10
(PID.TID 0000.0001) %MON exf_precip_mean              =   3.6390069699050E-08
(PID.TID 0000.0001) %MON exf_precip_sd                =   2.0578598603627E-08
(PID.TID 0000.0001) %MON exf_precip_del2              =   2.5556826789328E-09
(PID.TID 0000.0001) %MON exf_snowprecip_max           =   0.0000000000000E+00
(PID.TID 0000.0001) %MON exf_snowprecip_min           =   0.0000000000000E+00
(PID.TID 0000.0001) %MON exf_snowprecip_mean          =   0.0000000000000E+00
(PID.TID 0000.0001) %MON exf_snowprecip_sd            =   0.0000000000000E+00
(PID.TID 0000.0001) %MON exf_snowprecip_del2          =   0.0000000000000E+00
(PID.TID 0000.0001) %MON exf_swflux_max               =  -8.1206038349965E-02
(PID.TID 0000.0001) %MON exf_swflux_min               =  -6.3991984364244E+01
(PID.TID 0000.0001) %MON exf_swflux_mean              =  -2.6463755238823E+01
(PID.TID 0000.0001) %MON exf_swflux_sd                =   1.9629736696482E+01
(PID.TID 0000.0001) %MON exf_swflux_del2              =   4.7911963949881E-01
(PID.TID 0000.0001) %MON exf_evap_max                 =   4.5332480821497E-08
(PID.TID 0000.0001) %MON exf_evap_min                 =  -4.7524365011618E-09
(PID.TID 0000.0001) %MON exf_evap_mean                =   1.0513128975587E-08
(PID.TID 0000.0001) %MON exf_evap_sd                  =   1.1274583054601E-08
(PID.TID 0000.0001) %MON exf_evap_del2                =   1.3716110337489E-09
(PID.TID 0000.0001) %MON exf_swdown_max               =   7.1102204849160E+01
(PID.TID 0000.0001) %MON exf_swdown_min               =   9.0228931499961E-02
(PID.TID 0000.0001) %MON exf_swdown_mean              =   2.9404172487581E+01
(PID.TID 0000.0001) %MON exf_swdown_sd                =   2.1810818551646E+01
(PID.TID 0000.0001) %MON exf_swdown_del2              =   5.3235515499868E-01
(PID.TID 0000.0001) %MON exf_lwdown_max               =   3.0567089193375E+02
(PID.TID 0000.0001) %MON exf_lwdown_min               =   1.1598258522951E+02
(PID.TID 0000.0001) %MON exf_lwdown_mean              =   2.2593360963007E+02
(PID.TID 0000.0001) %MON exf_lwdown_sd                =   4.6281398610271E+01
(PID.TID 0000.0001) %MON exf_lwdown_del2              =   3.2438329367646E+00
(PID.TID 0000.0001) %MON exf_apressure_max            =   0.0000000000000E+00
(PID.TID 0000.0001) %MON exf_apressure_min            =   0.0000000000000E+00
(PID.TID 0000.0001) %MON exf_apressure_mean           =   0.0000000000000E+00
(PID.TID 0000.0001) %MON exf_apressure_sd             =   0.0000000000000E+00
(PID.TID 0000.0001) %MON exf_apressure_del2           =   0.0000000000000E+00
(PID.TID 0000.0001) %MON exf_runoff_max               =   0.0000000000000E+00
(PID.TID 0000.0001) %MON exf_runoff_min               =   0.0000000000000E+00
(PID.TID 0000.0001) %MON exf_runoff_mean              =   0.0000000000000E+00
(PID.TID 0000.0001) %MON exf_runoff_sd                =   0.0000000000000E+00
(PID.TID 0000.0001) %MON exf_runoff_del2              =   0.0000000000000E+00
(PID.TID 0000.0001) %MON exf_climsst_max              =   0.0000000000000E+00
(PID.TID 0000.0001) %MON exf_climsst_min              =   0.0000000000000E+00
(PID.TID 0000.0001) %MON exf_climsst_mean             =   0.0000000000000E+00
(PID.TID 0000.0001) %MON exf_climsst_sd               =   0.0000000000000E+00
(PID.TID 0000.0001) %MON exf_climsst_del2             =   0.0000000000000E+00
(PID.TID 0000.0001) %MON exf_climsss_max              =   3.5040515633880E+01
(PID.TID 0000.0001) %MON exf_climsss_min              =   3.0667072499385E+01
(PID.TID 0000.0001) %MON exf_climsss_mean             =   3.3459840934468E+01
(PID.TID 0000.0001) %MON exf_climsss_sd               =   1.0318832207269E+00
(PID.TID 0000.0001) %MON exf_climsss_del2             =   1.0017673217099E-01
(PID.TID 0000.0001) // =======================================================
(PID.TID 0000.0001) // End MONITOR EXF statistics
(PID.TID 0000.0001) // =======================================================
 ph-ice B  1  0.  0.  0.
 ph-ice C  1  1.03662085E+11
 cg2d: Sum(rhs),rhsMax =   9.71447922104574E-10  1.19254195625089E+00
(PID.TID 0000.0001) // =======================================================
(PID.TID 0000.0001) // Begin MONITOR SEAICE statistics
(PID.TID 0000.0001) // =======================================================
(PID.TID 0000.0001) %MON seaice_tsnumber              =                     2
(PID.TID 0000.0001) %MON seaice_time_sec              =   7.2000000000000E+03
(PID.TID 0000.0001) %MON seaice_uice_max              =   1.5575757117815E-01
(PID.TID 0000.0001) %MON seaice_uice_min              =  -8.0942741430966E-02
(PID.TID 0000.0001) %MON seaice_uice_mean             =   6.5168649829382E-02
(PID.TID 0000.0001) %MON seaice_uice_sd               =   6.1631643089350E-02
(PID.TID 0000.0001) %MON seaice_uice_del2             =   6.8706904523403E-03
(PID.TID 0000.0001) %MON seaice_vice_max              =   7.0616929390505E-02
(PID.TID 0000.0001) %MON seaice_vice_min              =  -1.3662299947234E-01
(PID.TID 0000.0001) %MON seaice_vice_mean             =  -2.1829812692631E-02
(PID.TID 0000.0001) %MON seaice_vice_sd               =   4.1312329526262E-02
(PID.TID 0000.0001) %MON seaice_vice_del2             =   5.3521934566396E-03
(PID.TID 0000.0001) %MON seaice_area_max              =   1.0000000000000E+00
(PID.TID 0000.0001) %MON seaice_area_min              =   0.0000000000000E+00
(PID.TID 0000.0001) %MON seaice_area_mean             =   6.2511455210173E-01
(PID.TID 0000.0001) %MON seaice_area_sd               =   4.5918073702415E-01
(PID.TID 0000.0001) %MON seaice_area_del2             =   5.3309150568192E-02
(PID.TID 0000.0001) %MON seaice_heff_max              =   5.5572638142240E-01
(PID.TID 0000.0001) %MON seaice_heff_min              =   0.0000000000000E+00
(PID.TID 0000.0001) %MON seaice_heff_mean             =   1.4211256278540E-01
(PID.TID 0000.0001) %MON seaice_heff_sd               =   1.7471336181798E-01
(PID.TID 0000.0001) %MON seaice_heff_del2             =   1.3300800072063E-02
(PID.TID 0000.0001) %MON seaice_hsnow_max             =   2.0156957952176E-01
(PID.TID 0000.0001) %MON seaice_hsnow_min             =   0.0000000000000E+00
(PID.TID 0000.0001) %MON seaice_hsnow_mean            =   1.1798259565184E-01
(PID.TID 0000.0001) %MON seaice_hsnow_sd              =   9.6675387962263E-02
(PID.TID 0000.0001) %MON seaice_hsnow_del2            =   6.3372971187471E-03
(PID.TID 0000.0001) // =======================================================
(PID.TID 0000.0001) // End MONITOR SEAICE statistics
(PID.TID 0000.0001) // =======================================================
(PID.TID 0000.0001) // =======================================================
(PID.TID 0000.0001) // Begin MONITOR EXF statistics
(PID.TID 0000.0001) // =======================================================
(PID.TID 0000.0001) %MON exf_tsnumber                 =                     2
(PID.TID 0000.0001) %MON exf_time_sec                 =   7.2000000000000E+03
(PID.TID 0000.0001) %MON exf_ustress_max              =   5.2234389551241E-02
(PID.TID 0000.0001) %MON exf_ustress_min              =  -9.3783873525021E-02
(PID.TID 0000.0001) %MON exf_ustress_mean             =   1.7912600520103E-02
(PID.TID 0000.0001) %MON exf_ustress_sd               =   2.3689565395020E-02
(PID.TID 0000.0001) %MON exf_ustress_del2             =   2.8175398330115E-03
(PID.TID 0000.0001) %MON exf_vstress_max              =   5.3825403016462E-02
(PID.TID 0000.0001) %MON exf_vstress_min              =  -5.8501907463670E-02
(PID.TID 0000.0001) %MON exf_vstress_mean             =  -5.4571899217844E-03
(PID.TID 0000.0001) %MON exf_vstress_sd               =   1.4439148428154E-02
(PID.TID 0000.0001) %MON exf_vstress_del2             =   1.6937326092935E-03
(PID.TID 0000.0001) %MON exf_hflux_max                =   6.2473671698450E+02
(PID.TID 0000.0001) %MON exf_hflux_min                =  -5.1856944043789E+01
(PID.TID 0000.0001) %MON exf_hflux_mean               =   1.4603891725436E+02
(PID.TID 0000.0001) %MON exf_hflux_sd                 =   1.8006278821763E+02
(PID.TID 0000.0001) %MON exf_hflux_del2               =   1.6304064602312E+01
(PID.TID 0000.0001) %MON exf_sflux_max                =   3.9010172880204E-08
(PID.TID 0000.0001) %MON exf_sflux_min                =  -8.8920778732677E-08
(PID.TID 0000.0001) %MON exf_sflux_mean               =  -2.5980919541131E-08
(PID.TID 0000.0001) %MON exf_sflux_sd                 =   3.0374070296306E-08
(PID.TID 0000.0001) %MON exf_sflux_del2               =   3.1602147178832E-09
(PID.TID 0000.0001) %MON exf_uwind_max                =   6.4653894471340E+00
(PID.TID 0000.0001) %MON exf_uwind_min                =  -6.8372916367536E+00
(PID.TID 0000.0001) %MON exf_uwind_mean               =   2.7699878382920E+00
(PID.TID 0000.0001) %MON exf_uwind_sd                 =   2.9905922217476E+00
(PID.TID 0000.0001) %MON exf_uwind_del2               =   3.1572575583776E-01
(PID.TID 0000.0001) %MON exf_vwind_max                =   3.9241285741003E+00
(PID.TID 0000.0001) %MON exf_vwind_min                =  -6.0178915685643E+00
(PID.TID 0000.0001) %MON exf_vwind_mean               =  -7.5966313506940E-01
(PID.TID 0000.0001) %MON exf_vwind_sd                 =   1.7295599554900E+00
(PID.TID 0000.0001) %MON exf_vwind_del2               =   1.9331889614049E-01
(PID.TID 0000.0001) %MON exf_wspeed_max               =   7.8833585477315E+00
(PID.TID 0000.0001) %MON exf_wspeed_min               =   4.5986651533145E-01
(PID.TID 0000.0001) %MON exf_wspeed_mean              =   4.1983267266652E+00
(PID.TID 0000.0001) %MON exf_wspeed_sd                =   1.5996852426804E+00
(PID.TID 0000.0001) %MON exf_wspeed_del2              =   3.7704333058266E-01
(PID.TID 0000.0001) %MON exf_atemp_max                =   2.8187938819427E+02
(PID.TID 0000.0001) %MON exf_atemp_min                =   2.3645283916869E+02
(PID.TID 0000.0001) %MON exf_atemp_mean               =   2.6393677060956E+02
(PID.TID 0000.0001) %MON exf_atemp_sd                 =   1.1986339979747E+01
(PID.TID 0000.0001) %MON exf_atemp_del2               =   6.4946175644798E-01
(PID.TID 0000.0001) %MON exf_aqh_max                  =   6.3217798619445E-03
(PID.TID 0000.0001) %MON exf_aqh_min                  =   1.6350454117726E-04
(PID.TID 0000.0001) %MON exf_aqh_mean                 =   2.4792421973794E-03
(PID.TID 0000.0001) %MON exf_aqh_sd                   =   1.4263013062694E-03
(PID.TID 0000.0001) %MON exf_aqh_del2                 =   6.8114445477348E-05
(PID.TID 0000.0001) %MON exf_lwflux_max               =   1.8153743597504E+02
(PID.TID 0000.0001) %MON exf_lwflux_min               =   2.6999313161451E+01
(PID.TID 0000.0001) %MON exf_lwflux_mean              =   7.5148003036919E+01
(PID.TID 0000.0001) %MON exf_lwflux_sd                =   4.2803183324672E+01
(PID.TID 0000.0001) %MON exf_lwflux_del2              =   3.2353096159734E+00
(PID.TID 0000.0001) %MON exf_precip_max               =   1.0499042589295E-07
(PID.TID 0000.0001) %MON exf_precip_min               =   2.7332713399833E-10
(PID.TID 0000.0001) %MON exf_precip_mean              =   3.6390058855016E-08
(PID.TID 0000.0001) %MON exf_precip_sd                =   2.0579049691733E-08
(PID.TID 0000.0001) %MON exf_precip_del2              =   2.5562103721225E-09
(PID.TID 0000.0001) %MON exf_snowprecip_max           =   0.0000000000000E+00
(PID.TID 0000.0001) %MON exf_snowprecip_min           =   0.0000000000000E+00
(PID.TID 0000.0001) %MON exf_snowprecip_mean          =   0.0000000000000E+00
(PID.TID 0000.0001) %MON exf_snowprecip_sd            =   0.0000000000000E+00
(PID.TID 0000.0001) %MON exf_snowprecip_del2          =   0.0000000000000E+00
(PID.TID 0000.0001) %MON exf_swflux_max               =  -8.1206321227746E-02
(PID.TID 0000.0001) %MON exf_swflux_min               =  -6.4010854714816E+01
(PID.TID 0000.0001) %MON exf_swflux_mean              =  -2.6474287454698E+01
(PID.TID 0000.0001) %MON exf_swflux_sd                =   1.9633572905820E+01
(PID.TID 0000.0001) %MON exf_swflux_del2              =   4.7922651344477E-01
(PID.TID 0000.0001) %MON exf_evap_max                 =   4.5333055282436E-08
(PID.TID 0000.0001) %MON exf_evap_min                 =  -4.3262573270113E-09
(PID.TID 0000.0001) %MON exf_evap_mean                =   1.0409139313885E-08
(PID.TID 0000.0001) %MON exf_evap_sd                  =   1.1101640291272E-08
(PID.TID 0000.0001) %MON exf_evap_del2                =   1.3339356905873E-09
(PID.TID 0000.0001) %MON exf_swdown_max               =   7.1123171905351E+01
(PID.TID 0000.0001) %MON exf_swdown_min               =   9.0229245808607E-02
(PID.TID 0000.0001) %MON exf_swdown_mean              =   2.9415874949665E+01
(PID.TID 0000.0001) %MON exf_swdown_sd                =   2.1815081006466E+01
(PID.TID 0000.0001) %MON exf_swdown_del2              =   5.3247390382752E-01
(PID.TID 0000.0001) %MON exf_lwdown_max               =   3.0566206584993E+02
(PID.TID 0000.0001) %MON exf_lwdown_min               =   1.1596747835086E+02
(PID.TID 0000.0001) %MON exf_lwdown_mean              =   2.2591790230100E+02
(PID.TID 0000.0001) %MON exf_lwdown_sd                =   4.6285369157136E+01
(PID.TID 0000.0001) %MON exf_lwdown_del2              =   3.2438445768374E+00
(PID.TID 0000.0001) %MON exf_apressure_max            =   0.0000000000000E+00
(PID.TID 0000.0001) %MON exf_apressure_min            =   0.0000000000000E+00
(PID.TID 0000.0001) %MON exf_apressure_mean           =   0.0000000000000E+00
(PID.TID 0000.0001) %MON exf_apressure_sd             =   0.0000000000000E+00
(PID.TID 0000.0001) %MON exf_apressure_del2           =   0.0000000000000E+00
(PID.TID 0000.0001) %MON exf_runoff_max               =   0.0000000000000E+00
(PID.TID 0000.0001) %MON exf_runoff_min               =   0.0000000000000E+00
(PID.TID 0000.0001) %MON exf_runoff_mean              =   0.0000000000000E+00
(PID.TID 0000.0001) %MON exf_runoff_sd                =   0.0000000000000E+00
(PID.TID 0000.0001) %MON exf_runoff_del2              =   0.0000000000000E+00
(PID.TID 0000.0001) %MON exf_climsst_max              =   0.0000000000000E+00
(PID.TID 0000.0001) %MON exf_climsst_min              =   0.0000000000000E+00
(PID.TID 0000.0001) %MON exf_climsst_mean             =   0.0000000000000E+00
(PID.TID 0000.0001) %MON exf_climsst_sd               =   0.0000000000000E+00
(PID.TID 0000.0001) %MON exf_climsst_del2             =   0.0000000000000E+00
(PID.TID 0000.0001) %MON exf_climsss_max              =   3.5040700380919E+01
(PID.TID 0000.0001) %MON exf_climsss_min              =   3.0667831827383E+01
(PID.TID 0000.0001) %MON exf_climsss_mean             =   3.3460362267948E+01
(PID.TID 0000.0001) %MON exf_climsss_sd               =   1.0318117788237E+00
(PID.TID 0000.0001) %MON exf_climsss_del2             =   1.0015950288060E-01
(PID.TID 0000.0001) // =======================================================
(PID.TID 0000.0001) // End MONITOR EXF statistics
(PID.TID 0000.0001) // =======================================================
 ph-ice B  2  0.  0.  0.
 ph-ice C  2  1.54286126E+11
 cg2d: Sum(rhs),rhsMax =  -4.69102253569664E-10  1.21345933300094E+00
(PID.TID 0000.0001) // =======================================================
(PID.TID 0000.0001) // Begin MONITOR SEAICE statistics
(PID.TID 0000.0001) // =======================================================
(PID.TID 0000.0001) %MON seaice_tsnumber              =                     3
(PID.TID 0000.0001) %MON seaice_time_sec              =   1.0800000000000E+04
(PID.TID 0000.0001) %MON seaice_uice_max              =   1.7677554874389E-01
(PID.TID 0000.0001) %MON seaice_uice_min              =  -9.9473388719801E-02
(PID.TID 0000.0001) %MON seaice_uice_mean             =   7.5385001956746E-02
(PID.TID 0000.0001) %MON seaice_uice_sd               =   7.1157133033220E-02
(PID.TID 0000.0001) %MON seaice_uice_del2             =   8.3170555129244E-03
(PID.TID 0000.0001) %MON seaice_vice_max              =   8.9019954798205E-02
(PID.TID 0000.0001) %MON seaice_vice_min              =  -1.7696029804135E-01
(PID.TID 0000.0001) %MON seaice_vice_mean             =  -2.9256776295508E-02
(PID.TID 0000.0001) %MON seaice_vice_sd               =   5.2264404383244E-02
(PID.TID 0000.0001) %MON seaice_vice_del2             =   6.1178195490267E-03
(PID.TID 0000.0001) %MON seaice_area_max              =   1.0000000000000E+00
(PID.TID 0000.0001) %MON seaice_area_min              =   0.0000000000000E+00
(PID.TID 0000.0001) %MON seaice_area_mean             =   6.2473165128402E-01
(PID.TID 0000.0001) %MON seaice_area_sd               =   4.5913418284729E-01
(PID.TID 0000.0001) %MON seaice_area_del2             =   5.3480662076126E-02
(PID.TID 0000.0001) %MON seaice_heff_max              =   5.5368221576291E-01
(PID.TID 0000.0001) %MON seaice_heff_min              =   0.0000000000000E+00
(PID.TID 0000.0001) %MON seaice_heff_mean             =   1.4210539863368E-01
(PID.TID 0000.0001) %MON seaice_heff_sd               =   1.7434508667247E-01
(PID.TID 0000.0001) %MON seaice_heff_del2             =   1.3231250044033E-02
(PID.TID 0000.0001) %MON seaice_hsnow_max             =   2.0235454638389E-01
(PID.TID 0000.0001) %MON seaice_hsnow_min             =   0.0000000000000E+00
(PID.TID 0000.0001) %MON seaice_hsnow_mean            =   1.1801725658723E-01
(PID.TID 0000.0001) %MON seaice_hsnow_sd              =   9.6786605530351E-02
(PID.TID 0000.0001) %MON seaice_hsnow_del2            =   6.3531464967005E-03
(PID.TID 0000.0001) // =======================================================
(PID.TID 0000.0001) // End MONITOR SEAICE statistics
(PID.TID 0000.0001) // =======================================================
(PID.TID 0000.0001) // =======================================================
(PID.TID 0000.0001) // Begin MONITOR EXF statistics
(PID.TID 0000.0001) // =======================================================
(PID.TID 0000.0001) %MON exf_tsnumber                 =                     3
(PID.TID 0000.0001) %MON exf_time_sec                 =   1.0800000000000E+04
(PID.TID 0000.0001) %MON exf_ustress_max              =   5.2220278364568E-02
(PID.TID 0000.0001) %MON exf_ustress_min              =  -9.3786644941843E-02
(PID.TID 0000.0001) %MON exf_ustress_mean             =   1.7925093401662E-02
(PID.TID 0000.0001) %MON exf_ustress_sd               =   2.3700142219461E-02
(PID.TID 0000.0001) %MON exf_ustress_del2             =   2.8158755072480E-03
(PID.TID 0000.0001) %MON exf_vstress_max              =   5.3827196762903E-02
(PID.TID 0000.0001) %MON exf_vstress_min              =  -5.8480358160302E-02
(PID.TID 0000.0001) %MON exf_vstress_mean             =  -5.4532186547464E-03
(PID.TID 0000.0001) %MON exf_vstress_sd               =   1.4440792175415E-02
(PID.TID 0000.0001) %MON exf_vstress_del2             =   1.6929393308147E-03
(PID.TID 0000.0001) %MON exf_hflux_max                =   6.2482499785037E+02
(PID.TID 0000.0001) %MON exf_hflux_min                =  -5.1652096231151E+01
(PID.TID 0000.0001) %MON exf_hflux_mean               =   1.4608870704279E+02
(PID.TID 0000.0001) %MON exf_hflux_sd                 =   1.8003233925525E+02
(PID.TID 0000.0001) %MON exf_hflux_del2               =   1.6307605461816E+01
(PID.TID 0000.0001) %MON exf_sflux_max                =   3.9014761130189E-08
(PID.TID 0000.0001) %MON exf_sflux_min                =  -8.8949891199081E-08
(PID.TID 0000.0001) %MON exf_sflux_mean               =  -2.5974537210968E-08
(PID.TID 0000.0001) %MON exf_sflux_sd                 =   3.0366721000080E-08
(PID.TID 0000.0001) %MON exf_sflux_del2               =   3.1622834488466E-09
(PID.TID 0000.0001) %MON exf_uwind_max                =   6.4658968995829E+00
(PID.TID 0000.0001) %MON exf_uwind_min                =  -6.8373184184559E+00
(PID.TID 0000.0001) %MON exf_uwind_mean               =   2.7700953906364E+00
(PID.TID 0000.0001) %MON exf_uwind_sd                 =   2.9908682681638E+00
(PID.TID 0000.0001) %MON exf_uwind_del2               =   3.1573366006031E-01
(PID.TID 0000.0001) %MON exf_vwind_max                =   3.9241587548959E+00
(PID.TID 0000.0001) %MON exf_vwind_min                =  -6.0169856587394E+00
(PID.TID 0000.0001) %MON exf_vwind_mean               =  -7.5904536197929E-01
(PID.TID 0000.0001) %MON exf_vwind_sd                 =   1.7296682234552E+00
(PID.TID 0000.0001) %MON exf_vwind_del2               =   1.9331202479855E-01
(PID.TID 0000.0001) %MON exf_wspeed_max               =   7.8833967989048E+00
(PID.TID 0000.0001) %MON exf_wspeed_min               =   4.5962367887737E-01
(PID.TID 0000.0001) %MON exf_wspeed_mean              =   4.1984294286706E+00
(PID.TID 0000.0001) %MON exf_wspeed_sd                =   1.5999418201857E+00
(PID.TID 0000.0001) %MON exf_wspeed_del2              =   3.7709664625274E-01
(PID.TID 0000.0001) %MON exf_atemp_max                =   2.8187767604140E+02
(PID.TID 0000.0001) %MON exf_atemp_min                =   2.3644837420104E+02
(PID.TID 0000.0001) %MON exf_atemp_mean               =   2.6393212652025E+02
(PID.TID 0000.0001) %MON exf_atemp_sd                 =   1.1987801484169E+01
(PID.TID 0000.0001) %MON exf_atemp_del2               =   6.4948108800042E-01
(PID.TID 0000.0001) %MON exf_aqh_max                  =   6.3210833210834E-03
(PID.TID 0000.0001) %MON exf_aqh_min                  =   1.6341043767886E-04
(PID.TID 0000.0001) %MON exf_aqh_mean                 =   2.4786818409748E-03
(PID.TID 0000.0001) %MON exf_aqh_sd                   =   1.4261982746893E-03
(PID.TID 0000.0001) %MON exf_aqh_del2                 =   6.8100777916201E-05
(PID.TID 0000.0001) %MON exf_lwflux_max               =   1.8153866759519E+02
(PID.TID 0000.0001) %MON exf_lwflux_min               =   2.7117659268081E+01
(PID.TID 0000.0001) %MON exf_lwflux_mean              =   7.5167336269841E+01
(PID.TID 0000.0001) %MON exf_lwflux_sd                =   4.2791334916759E+01
(PID.TID 0000.0001) %MON exf_lwflux_del2              =   3.2353470330554E+00
(PID.TID 0000.0001) %MON exf_precip_max               =   1.0499180733557E-07
(PID.TID 0000.0001) %MON exf_precip_min               =   2.7319320752566E-10
(PID.TID 0000.0001) %MON exf_precip_mean              =   3.6390048010982E-08
(PID.TID 0000.0001) %MON exf_precip_sd                =   2.0579501435483E-08
(PID.TID 0000.0001) %MON exf_precip_del2              =   2.5567380653122E-09
(PID.TID 0000.0001) %MON exf_snowprecip_max           =   0.0000000000000E+00
(PID.TID 0000.0001) %MON exf_snowprecip_min           =   0.0000000000000E+00
(PID.TID 0000.0001) %MON exf_snowprecip_mean          =   0.0000000000000E+00
(PID.TID 0000.0001) %MON exf_snowprecip_sd            =   0.0000000000000E+00
(PID.TID 0000.0001) %MON exf_snowprecip_del2          =   0.0000000000000E+00
(PID.TID 0000.0001) %MON exf_swflux_max               =  -8.1206604105527E-02
(PID.TID 0000.0001) %MON exf_swflux_min               =  -6.4029725065388E+01
(PID.TID 0000.0001) %MON exf_swflux_mean              =  -2.6484819670573E+01
(PID.TID 0000.0001) %MON exf_swflux_sd                =   1.9637409707136E+01
(PID.TID 0000.0001) %MON exf_swflux_del2              =   4.7933338739073E-01
(PID.TID 0000.0001) %MON exf_evap_max                 =   4.5336980821491E-08
(PID.TID 0000.0001) %MON exf_evap_min                 =  -4.2852111096091E-09
(PID.TID 0000.0001) %MON exf_evap_mean                =   1.0415510800014E-08
(PID.TID 0000.0001) %MON exf_evap_sd                  =   1.1091288925577E-08
(PID.TID 0000.0001) %MON exf_evap_del2                =   1.3330271613427E-09
(PID.TID 0000.0001) %MON exf_swdown_max               =   7.1144138961542E+01
(PID.TID 0000.0001) %MON exf_swdown_min               =   9.0229560117253E-02
(PID.TID 0000.0001) %MON exf_swdown_mean              =   2.9427577411748E+01
(PID.TID 0000.0001) %MON exf_swdown_sd                =   2.1819344119040E+01
(PID.TID 0000.0001) %MON exf_swdown_del2              =   5.3259265265636E-01
(PID.TID 0000.0001) %MON exf_lwdown_max               =   3.0565323976611E+02
(PID.TID 0000.0001) %MON exf_lwdown_min               =   1.1595237147222E+02
(PID.TID 0000.0001) %MON exf_lwdown_mean              =   2.2590219497194E+02
(PID.TID 0000.0001) %MON exf_lwdown_sd                =   4.6289340871590E+01
(PID.TID 0000.0001) %MON exf_lwdown_del2              =   3.2438562169101E+00
(PID.TID 0000.0001) %MON exf_apressure_max            =   0.0000000000000E+00
(PID.TID 0000.0001) %MON exf_apressure_min            =   0.0000000000000E+00
(PID.TID 0000.0001) %MON exf_apressure_mean           =   0.0000000000000E+00
(PID.TID 0000.0001) %MON exf_apressure_sd             =   0.0000000000000E+00
(PID.TID 0000.0001) %MON exf_apressure_del2           =   0.0000000000000E+00
(PID.TID 0000.0001) %MON exf_runoff_max               =   0.0000000000000E+00
(PID.TID 0000.0001) %MON exf_runoff_min               =   0.0000000000000E+00
(PID.TID 0000.0001) %MON exf_runoff_mean              =   0.0000000000000E+00
(PID.TID 0000.0001) %MON exf_runoff_sd                =   0.0000000000000E+00
(PID.TID 0000.0001) %MON exf_runoff_del2              =   0.0000000000000E+00
(PID.TID 0000.0001) %MON exf_climsst_max              =   0.0000000000000E+00
(PID.TID 0000.0001) %MON exf_climsst_min              =   0.0000000000000E+00
(PID.TID 0000.0001) %MON exf_climsst_mean             =   0.0000000000000E+00
(PID.TID 0000.0001) %MON exf_climsst_sd               =   0.0000000000000E+00
(PID.TID 0000.0001) %MON exf_climsst_del2             =   0.0000000000000E+00
(PID.TID 0000.0001) %MON exf_climsss_max              =   3.5040885127959E+01
(PID.TID 0000.0001) %MON exf_climsss_min              =   3.0668591155380E+01
(PID.TID 0000.0001) %MON exf_climsss_mean             =   3.3460883601427E+01
(PID.TID 0000.0001) %MON exf_climsss_sd               =   1.0317405668875E+00
(PID.TID 0000.0001) %MON exf_climsss_del2             =   1.0014227359021E-01
(PID.TID 0000.0001) // =======================================================
(PID.TID 0000.0001) // End MONITOR EXF statistics
(PID.TID 0000.0001) // =======================================================
 ph-ice B  3  0.  0.  0.
 ph-ice C  3  2.0493353E+11
 cg2d: Sum(rhs),rhsMax =   3.25073724327662E-08  1.21053584901985E+00
(PID.TID 0000.0001) // =======================================================
(PID.TID 0000.0001) // Begin MONITOR SEAICE statistics
(PID.TID 0000.0001) // =======================================================
(PID.TID 0000.0001) %MON seaice_tsnumber              =                     4
(PID.TID 0000.0001) %MON seaice_time_sec              =   1.4400000000000E+04
(PID.TID 0000.0001) %MON seaice_uice_max              =   2.0410589054023E-01
(PID.TID 0000.0001) %MON seaice_uice_min              =  -1.0820664027345E-01
(PID.TID 0000.0001) %MON seaice_uice_mean             =   8.1218833010061E-02
(PID.TID 0000.0001) %MON seaice_uice_sd               =   7.8521023939514E-02
(PID.TID 0000.0001) %MON seaice_uice_del2             =   9.4129555539965E-03
(PID.TID 0000.0001) %MON seaice_vice_max              =   9.9288347350704E-02
(PID.TID 0000.0001) %MON seaice_vice_min              =  -1.9612309365178E-01
(PID.TID 0000.0001) %MON seaice_vice_mean             =  -3.7794415629416E-02
(PID.TID 0000.0001) %MON seaice_vice_sd               =   6.1057438535262E-02
(PID.TID 0000.0001) %MON seaice_vice_del2             =   6.9481563116317E-03
(PID.TID 0000.0001) %MON seaice_area_max              =   1.0000000000000E+00
(PID.TID 0000.0001) %MON seaice_area_min              =   0.0000000000000E+00
(PID.TID 0000.0001) %MON seaice_area_mean             =   6.2448964134080E-01
(PID.TID 0000.0001) %MON seaice_area_sd               =   4.5884276157119E-01
(PID.TID 0000.0001) %MON seaice_area_del2             =   5.3567607320515E-02
(PID.TID 0000.0001) %MON seaice_heff_max              =   5.5146835059086E-01
(PID.TID 0000.0001) %MON seaice_heff_min              =   0.0000000000000E+00
(PID.TID 0000.0001) %MON seaice_heff_mean             =   1.4217098028152E-01
(PID.TID 0000.0001) %MON seaice_heff_sd               =   1.7417998529705E-01
(PID.TID 0000.0001) %MON seaice_heff_del2             =   1.3240081984527E-02
(PID.TID 0000.0001) %MON seaice_hsnow_max             =   2.0313961711978E-01
(PID.TID 0000.0001) %MON seaice_hsnow_min             =   0.0000000000000E+00
(PID.TID 0000.0001) %MON seaice_hsnow_mean            =   1.1810788894580E-01
(PID.TID 0000.0001) %MON seaice_hsnow_sd              =   9.6917239052665E-02
(PID.TID 0000.0001) %MON seaice_hsnow_del2            =   6.4249667990911E-03
(PID.TID 0000.0001) // =======================================================
(PID.TID 0000.0001) // End MONITOR SEAICE statistics
(PID.TID 0000.0001) // =======================================================
(PID.TID 0000.0001) // =======================================================
(PID.TID 0000.0001) // Begin MONITOR EXF statistics
(PID.TID 0000.0001) // =======================================================
(PID.TID 0000.0001) %MON exf_tsnumber                 =                     4
(PID.TID 0000.0001) %MON exf_time_sec                 =   1.4400000000000E+04
(PID.TID 0000.0001) %MON exf_ustress_max              =   5.2222749041035E-02
(PID.TID 0000.0001) %MON exf_ustress_min              =  -9.3790194486454E-02
(PID.TID 0000.0001) %MON exf_ustress_mean             =   1.7935661247120E-02
(PID.TID 0000.0001) %MON exf_ustress_sd               =   2.3707710912896E-02
(PID.TID 0000.0001) %MON exf_ustress_del2             =   2.8164281397030E-03
(PID.TID 0000.0001) %MON exf_vstress_max              =   5.3829437114216E-02
(PID.TID 0000.0001) %MON exf_vstress_min              =  -5.8464476572370E-02
(PID.TID 0000.0001) %MON exf_vstress_mean             =  -5.4495379389544E-03
(PID.TID 0000.0001) %MON exf_vstress_sd               =   1.4442680198847E-02
(PID.TID 0000.0001) %MON exf_vstress_del2             =   1.6931341919180E-03
(PID.TID 0000.0001) %MON exf_hflux_max                =   6.2496267398704E+02
(PID.TID 0000.0001) %MON exf_hflux_min                =  -5.1565362857365E+01
(PID.TID 0000.0001) %MON exf_hflux_mean               =   1.4615660613101E+02
(PID.TID 0000.0001) %MON exf_hflux_sd                 =   1.8002235784350E+02
(PID.TID 0000.0001) %MON exf_hflux_del2               =   1.6301998342607E+01
(PID.TID 0000.0001) %MON exf_sflux_max                =   3.9025647077273E-08
(PID.TID 0000.0001) %MON exf_sflux_min                =  -8.8952139752029E-08
(PID.TID 0000.0001) %MON exf_sflux_mean               =  -2.5966971389910E-08
(PID.TID 0000.0001) %MON exf_sflux_sd                 =   3.0361915163948E-08
(PID.TID 0000.0001) %MON exf_sflux_del2               =   3.1623401575520E-09
(PID.TID 0000.0001) %MON exf_uwind_max                =   6.4664043520318E+00
(PID.TID 0000.0001) %MON exf_uwind_min                =  -6.8373452001582E+00
(PID.TID 0000.0001) %MON exf_uwind_mean               =   2.7702029429808E+00
(PID.TID 0000.0001) %MON exf_uwind_sd                 =   2.9911443548250E+00
(PID.TID 0000.0001) %MON exf_uwind_del2               =   3.1574156428286E-01
(PID.TID 0000.0001) %MON exf_vwind_max                =   3.9241889356915E+00
(PID.TID 0000.0001) %MON exf_vwind_min                =  -6.0160797489145E+00
(PID.TID 0000.0001) %MON exf_vwind_mean               =  -7.5842758888917E-01
(PID.TID 0000.0001) %MON exf_vwind_sd                 =   1.7297766046368E+00
(PID.TID 0000.0001) %MON exf_vwind_del2               =   1.9330515345662E-01
(PID.TID 0000.0001) %MON exf_wspeed_max               =   7.8834350500991E+00
(PID.TID 0000.0001) %MON exf_wspeed_min               =   4.5938084481311E-01
(PID.TID 0000.0001) %MON exf_wspeed_mean              =   4.1985322596174E+00
(PID.TID 0000.0001) %MON exf_wspeed_sd                =   1.6001985099325E+00
(PID.TID 0000.0001) %MON exf_wspeed_del2              =   3.7714995543655E-01
(PID.TID 0000.0001) %MON exf_atemp_max                =   2.8187596388853E+02
(PID.TID 0000.0001) %MON exf_atemp_min                =   2.3644390923339E+02
(PID.TID 0000.0001) %MON exf_atemp_mean               =   2.6392748243095E+02
(PID.TID 0000.0001) %MON exf_atemp_sd                 =   1.1989263476045E+01
(PID.TID 0000.0001) %MON exf_atemp_del2               =   6.4950041955286E-01
(PID.TID 0000.0001) %MON exf_aqh_max                  =   6.3203867802223E-03
(PID.TID 0000.0001) %MON exf_aqh_min                  =   1.6331633418045E-04
(PID.TID 0000.0001) %MON exf_aqh_mean                 =   2.4781214845702E-03
(PID.TID 0000.0001) %MON exf_aqh_sd                   =   1.4260952789855E-03
(PID.TID 0000.0001) %MON exf_aqh_del2                 =   6.8087110355054E-05
(PID.TID 0000.0001) %MON exf_lwflux_max               =   1.8154800702574E+02
(PID.TID 0000.0001) %MON exf_lwflux_min               =   2.7104463753194E+01
(PID.TID 0000.0001) %MON exf_lwflux_mean              =   7.5190183478752E+01
(PID.TID 0000.0001) %MON exf_lwflux_sd                =   4.2783226611951E+01
(PID.TID 0000.0001) %MON exf_lwflux_del2              =   3.2333536710224E+00
(PID.TID 0000.0001) %MON exf_precip_max               =   1.0499318877820E-07
(PID.TID 0000.0001) %MON exf_precip_min               =   2.7305928105298E-10
(PID.TID 0000.0001) %MON exf_precip_mean              =   3.6390037166947E-08
(PID.TID 0000.0001) %MON exf_precip_sd                =   2.0579953834835E-08
(PID.TID 0000.0001) %MON exf_precip_del2              =   2.5572657585019E-09
(PID.TID 0000.0001) %MON exf_snowprecip_max           =   0.0000000000000E+00
(PID.TID 0000.0001) %MON exf_snowprecip_min           =   0.0000000000000E+00
(PID.TID 0000.0001) %MON exf_snowprecip_mean          =   0.0000000000000E+00
(PID.TID 0000.0001) %MON exf_snowprecip_sd            =   0.0000000000000E+00
(PID.TID 0000.0001) %MON exf_snowprecip_del2          =   0.0000000000000E+00
(PID.TID 0000.0001) %MON exf_swflux_max               =  -8.1206886983309E-02
(PID.TID 0000.0001) %MON exf_swflux_min               =  -6.4048595415960E+01
(PID.TID 0000.0001) %MON exf_swflux_mean              =  -2.6495351886448E+01
(PID.TID 0000.0001) %MON exf_swflux_sd                =   1.9641247100083E+01
(PID.TID 0000.0001) %MON exf_swflux_del2              =   4.7944026133668E-01
(PID.TID 0000.0001) %MON exf_evap_max                 =   4.5347204057645E-08
(PID.TID 0000.0001) %MON exf_evap_min                 =  -4.2663929315360E-09
(PID.TID 0000.0001) %MON exf_evap_mean                =   1.0423065777038E-08
(PID.TID 0000.0001) %MON exf_evap_sd                  =   1.1085437805436E-08
(PID.TID 0000.0001) %MON exf_evap_del2                =   1.3323751162761E-09
(PID.TID 0000.0001) %MON exf_swdown_max               =   7.1165106017733E+01
(PID.TID 0000.0001) %MON exf_swdown_min               =   9.0229874425898E-02
(PID.TID 0000.0001) %MON exf_swdown_mean              =   2.9439279873831E+01
(PID.TID 0000.0001) %MON exf_swdown_sd                =   2.1823607888981E+01
(PID.TID 0000.0001) %MON exf_swdown_del2              =   5.3271140148521E-01
(PID.TID 0000.0001) %MON exf_lwdown_max               =   3.0564441368228E+02
(PID.TID 0000.0001) %MON exf_lwdown_min               =   1.1593726459357E+02
(PID.TID 0000.0001) %MON exf_lwdown_mean              =   2.2588648764287E+02
(PID.TID 0000.0001) %MON exf_lwdown_sd                =   4.6293313753333E+01
(PID.TID 0000.0001) %MON exf_lwdown_del2              =   3.2438678569828E+00
(PID.TID 0000.0001) %MON exf_apressure_max            =   0.0000000000000E+00
(PID.TID 0000.0001) %MON exf_apressure_min            =   0.0000000000000E+00
(PID.TID 0000.0001) %MON exf_apressure_mean           =   0.0000000000000E+00
(PID.TID 0000.0001) %MON exf_apressure_sd             =   0.0000000000000E+00
(PID.TID 0000.0001) %MON exf_apressure_del2           =   0.0000000000000E+00
(PID.TID 0000.0001) %MON exf_runoff_max               =   0.0000000000000E+00
(PID.TID 0000.0001) %MON exf_runoff_min               =   0.0000000000000E+00
(PID.TID 0000.0001) %MON exf_runoff_mean              =   0.0000000000000E+00
(PID.TID 0000.0001) %MON exf_runoff_sd                =   0.0000000000000E+00
(PID.TID 0000.0001) %MON exf_runoff_del2              =   0.0000000000000E+00
(PID.TID 0000.0001) %MON exf_climsst_max              =   0.0000000000000E+00
(PID.TID 0000.0001) %MON exf_climsst_min              =   0.0000000000000E+00
(PID.TID 0000.0001) %MON exf_climsst_mean             =   0.0000000000000E+00
(PID.TID 0000.0001) %MON exf_climsst_sd               =   0.0000000000000E+00
(PID.TID 0000.0001) %MON exf_climsst_del2             =   0.0000000000000E+00
(PID.TID 0000.0001) %MON exf_climsss_max              =   3.5041069874998E+01
(PID.TID 0000.0001) %MON exf_climsss_min              =   3.0669350483378E+01
(PID.TID 0000.0001) %MON exf_climsss_mean             =   3.3461404934907E+01
(PID.TID 0000.0001) %MON exf_climsss_sd               =   1.0316695849659E+00
(PID.TID 0000.0001) %MON exf_climsss_del2             =   1.0012504429982E-01
(PID.TID 0000.0001) // =======================================================
(PID.TID 0000.0001) // End MONITOR EXF statistics
(PID.TID 0000.0001) // =======================================================
 ph-ice B  4  0.  0.  0.
 ph-ice C  4  2.5560436E+11
 cg2d: Sum(rhs),rhsMax =   3.22653887531443E-08  1.20538351228502E+00
(PID.TID 0000.0001) // =======================================================
(PID.TID 0000.0001) // Begin MONITOR SEAICE statistics
(PID.TID 0000.0001) // =======================================================
(PID.TID 0000.0001) %MON seaice_tsnumber              =                     5
(PID.TID 0000.0001) %MON seaice_time_sec              =   1.8000000000000E+04
(PID.TID 0000.0001) %MON seaice_uice_max              =   2.1945388185154E-01
(PID.TID 0000.0001) %MON seaice_uice_min              =  -1.0939009902184E-01
(PID.TID 0000.0001) %MON seaice_uice_mean             =   8.3081273465691E-02
(PID.TID 0000.0001) %MON seaice_uice_sd               =   8.3462883124168E-02
(PID.TID 0000.0001) %MON seaice_uice_del2             =   1.0024723852945E-02
(PID.TID 0000.0001) %MON seaice_vice_max              =   1.0086664902945E-01
(PID.TID 0000.0001) %MON seaice_vice_min              =  -1.9808188883580E-01
(PID.TID 0000.0001) %MON seaice_vice_mean             =  -4.6968652065249E-02
(PID.TID 0000.0001) %MON seaice_vice_sd               =   6.7920791827269E-02
(PID.TID 0000.0001) %MON seaice_vice_del2             =   7.5957084096733E-03
(PID.TID 0000.0001) %MON seaice_area_max              =   1.0000000000000E+00
(PID.TID 0000.0001) %MON seaice_area_min              =   0.0000000000000E+00
(PID.TID 0000.0001) %MON seaice_area_mean             =   6.2430150051329E-01
(PID.TID 0000.0001) %MON seaice_area_sd               =   4.5848056987901E-01
(PID.TID 0000.0001) %MON seaice_area_del2             =   5.3615010687425E-02
(PID.TID 0000.0001) %MON seaice_heff_max              =   5.4903937822394E-01
(PID.TID 0000.0001) %MON seaice_heff_min              =   0.0000000000000E+00
(PID.TID 0000.0001) %MON seaice_heff_mean             =   1.4223673562379E-01
(PID.TID 0000.0001) %MON seaice_heff_sd               =   1.7414942824096E-01
(PID.TID 0000.0001) %MON seaice_heff_del2             =   1.3251248745217E-02
(PID.TID 0000.0001) %MON seaice_hsnow_max             =   2.0392476353420E-01
(PID.TID 0000.0001) %MON seaice_hsnow_min             =   0.0000000000000E+00
(PID.TID 0000.0001) %MON seaice_hsnow_mean            =   1.1825099134485E-01
(PID.TID 0000.0001) %MON seaice_hsnow_sd              =   9.7044356048799E-02
(PID.TID 0000.0001) %MON seaice_hsnow_del2            =   6.4762509707392E-03
(PID.TID 0000.0001) // =======================================================
(PID.TID 0000.0001) // End MONITOR SEAICE statistics
(PID.TID 0000.0001) // =======================================================
(PID.TID 0000.0001) // =======================================================
(PID.TID 0000.0001) // Begin MONITOR EXF statistics
(PID.TID 0000.0001) // =======================================================
(PID.TID 0000.0001) %MON exf_tsnumber                 =                     5
(PID.TID 0000.0001) %MON exf_time_sec                 =   1.8000000000000E+04
(PID.TID 0000.0001) %MON exf_ustress_max              =   5.2230884117565E-02
(PID.TID 0000.0001) %MON exf_ustress_min              =  -9.3792692313509E-02
(PID.TID 0000.0001) %MON exf_ustress_mean             =   1.7944937891056E-02
(PID.TID 0000.0001) %MON exf_ustress_sd               =   2.3713962155484E-02
(PID.TID 0000.0001) %MON exf_ustress_del2             =   2.8173058860490E-03
(PID.TID 0000.0001) %MON exf_vstress_max              =   5.3831073859947E-02
(PID.TID 0000.0001) %MON exf_vstress_min              =  -5.8456785540499E-02
(PID.TID 0000.0001) %MON exf_vstress_mean             =  -5.4464517375208E-03
(PID.TID 0000.0001) %MON exf_vstress_sd               =   1.4444944648355E-02
(PID.TID 0000.0001) %MON exf_vstress_del2             =   1.6932729612107E-03
(PID.TID 0000.0001) %MON exf_hflux_max                =   6.2503361232607E+02
(PID.TID 0000.0001) %MON exf_hflux_min                =  -5.1451597535012E+01
(PID.TID 0000.0001) %MON exf_hflux_mean               =   1.4623261960420E+02
(PID.TID 0000.0001) %MON exf_hflux_sd                 =   1.8002328795136E+02
(PID.TID 0000.0001) %MON exf_hflux_del2               =   1.6301001094804E+01
(PID.TID 0000.0001) %MON exf_sflux_max                =   3.9028023656347E-08
(PID.TID 0000.0001) %MON exf_sflux_min                =  -8.8915527500756E-08
(PID.TID 0000.0001) %MON exf_sflux_mean               =  -2.5958891107248E-08
(PID.TID 0000.0001) %MON exf_sflux_sd                 =   3.0357857739815E-08
(PID.TID 0000.0001) %MON exf_sflux_del2               =   3.1625225240188E-09
(PID.TID 0000.0001) %MON exf_uwind_max                =   6.4669118044806E+00
(PID.TID 0000.0001) %MON exf_uwind_min                =  -6.8373719818605E+00
(PID.TID 0000.0001) %MON exf_uwind_mean               =   2.7703104953252E+00
(PID.TID 0000.0001) %MON exf_uwind_sd                 =   2.9914204817202E+00
(PID.TID 0000.0001) %MON exf_uwind_del2               =   3.1574946850541E-01
(PID.TID 0000.0001) %MON exf_vwind_max                =   3.9242191164871E+00
(PID.TID 0000.0001) %MON exf_vwind_min                =  -6.0151738390896E+00
(PID.TID 0000.0001) %MON exf_vwind_mean               =  -7.5780981579906E-01
(PID.TID 0000.0001) %MON exf_vwind_sd                 =   1.7298850990135E+00
(PID.TID 0000.0001) %MON exf_vwind_del2               =   1.9329828211469E-01
(PID.TID 0000.0001) %MON exf_wspeed_max               =   7.8834733013142E+00
(PID.TID 0000.0001) %MON exf_wspeed_min               =   4.5913801314248E-01
(PID.TID 0000.0001) %MON exf_wspeed_mean              =   4.1986352194932E+00
(PID.TID 0000.0001) %MON exf_wspeed_sd                =   1.6004553118739E+00
(PID.TID 0000.0001) %MON exf_wspeed_del2              =   3.7720325813743E-01
(PID.TID 0000.0001) %MON exf_atemp_max                =   2.8187425173567E+02
(PID.TID 0000.0001) %MON exf_atemp_min                =   2.3643944426573E+02
(PID.TID 0000.0001) %MON exf_atemp_mean               =   2.6392283834165E+02
(PID.TID 0000.0001) %MON exf_atemp_sd                 =   1.1990725955197E+01
(PID.TID 0000.0001) %MON exf_atemp_del2               =   6.4951975110530E-01
(PID.TID 0000.0001) %MON exf_aqh_max                  =   6.3196902393613E-03
(PID.TID 0000.0001) %MON exf_aqh_min                  =   1.6322223068205E-04
(PID.TID 0000.0001) %MON exf_aqh_mean                 =   2.4775611281656E-03
(PID.TID 0000.0001) %MON exf_aqh_sd                   =   1.4259923191659E-03
(PID.TID 0000.0001) %MON exf_aqh_del2                 =   6.8073442793907E-05
(PID.TID 0000.0001) %MON exf_lwflux_max               =   1.8156112611884E+02
(PID.TID 0000.0001) %MON exf_lwflux_min               =   2.7075633016196E+01
(PID.TID 0000.0001) %MON exf_lwflux_mean              =   7.5214636538197E+01
(PID.TID 0000.0001) %MON exf_lwflux_sd                =   4.2777639492492E+01
(PID.TID 0000.0001) %MON exf_lwflux_del2              =   3.2323849870411E+00
(PID.TID 0000.0001) %MON exf_precip_max               =   1.0499457022082E-07
(PID.TID 0000.0001) %MON exf_precip_min               =   2.7292535458031E-10
(PID.TID 0000.0001) %MON exf_precip_mean              =   3.6390026322913E-08
(PID.TID 0000.0001) %MON exf_precip_sd                =   2.0580406889746E-08
(PID.TID 0000.0001) %MON exf_precip_del2              =   2.5577934516916E-09
(PID.TID 0000.0001) %MON exf_snowprecip_max           =   0.0000000000000E+00
(PID.TID 0000.0001) %MON exf_snowprecip_min           =   0.0000000000000E+00
(PID.TID 0000.0001) %MON exf_snowprecip_mean          =   0.0000000000000E+00
(PID.TID 0000.0001) %MON exf_snowprecip_sd            =   0.0000000000000E+00
(PID.TID 0000.0001) %MON exf_snowprecip_del2          =   0.0000000000000E+00
(PID.TID 0000.0001) %MON exf_swflux_max               =  -8.1207169861090E-02
(PID.TID 0000.0001) %MON exf_swflux_min               =  -6.4067465766532E+01
(PID.TID 0000.0001) %MON exf_swflux_mean              =  -2.6505884102323E+01
(PID.TID 0000.0001) %MON exf_swflux_sd                =   1.9645085084315E+01
(PID.TID 0000.0001) %MON exf_swflux_del2              =   4.7954713528264E-01
(PID.TID 0000.0001) %MON exf_evap_max                 =   4.5348917925788E-08
(PID.TID 0000.0001) %MON exf_evap_min                 =  -4.2424751733491E-09
(PID.TID 0000.0001) %MON exf_evap_mean                =   1.0431135215665E-08
(PID.TID 0000.0001) %MON exf_evap_sd                  =   1.1081500208236E-08
(PID.TID 0000.0001) %MON exf_evap_del2                =   1.3323453532645E-09
(PID.TID 0000.0001) %MON exf_swdown_max               =   7.1186073073924E+01
(PID.TID 0000.0001) %MON exf_swdown_min               =   9.0230188734544E-02
(PID.TID 0000.0001) %MON exf_swdown_mean              =   2.9450982335914E+01
(PID.TID 0000.0001) %MON exf_swdown_sd                =   2.1827872315905E+01
(PID.TID 0000.0001) %MON exf_swdown_del2              =   5.3283015031405E-01
(PID.TID 0000.0001) %MON exf_lwdown_max               =   3.0563558759846E+02
(PID.TID 0000.0001) %MON exf_lwdown_min               =   1.1592215771493E+02
(PID.TID 0000.0001) %MON exf_lwdown_mean              =   2.2587078031381E+02
(PID.TID 0000.0001) %MON exf_lwdown_sd                =   4.6297287802066E+01
(PID.TID 0000.0001) %MON exf_lwdown_del2              =   3.2438794970556E+00
(PID.TID 0000.0001) %MON exf_apressure_max            =   0.0000000000000E+00
(PID.TID 0000.0001) %MON exf_apressure_min            =   0.0000000000000E+00
(PID.TID 0000.0001) %MON exf_apressure_mean           =   0.0000000000000E+00
(PID.TID 0000.0001) %MON exf_apressure_sd             =   0.0000000000000E+00
(PID.TID 0000.0001) %MON exf_apressure_del2           =   0.0000000000000E+00
(PID.TID 0000.0001) %MON exf_runoff_max               =   0.0000000000000E+00
(PID.TID 0000.0001) %MON exf_runoff_min               =   0.0000000000000E+00
(PID.TID 0000.0001) %MON exf_runoff_mean              =   0.0000000000000E+00
(PID.TID 0000.0001) %MON exf_runoff_sd                =   0.0000000000000E+00
(PID.TID 0000.0001) %MON exf_runoff_del2              =   0.0000000000000E+00
(PID.TID 0000.0001) %MON exf_climsst_max              =   0.0000000000000E+00
(PID.TID 0000.0001) %MON exf_climsst_min              =   0.0000000000000E+00
(PID.TID 0000.0001) %MON exf_climsst_mean             =   0.0000000000000E+00
(PID.TID 0000.0001) %MON exf_climsst_sd               =   0.0000000000000E+00
(PID.TID 0000.0001) %MON exf_climsst_del2             =   0.0000000000000E+00
(PID.TID 0000.0001) %MON exf_climsss_max              =   3.5041254622037E+01
(PID.TID 0000.0001) %MON exf_climsss_min              =   3.0670109811376E+01
(PID.TID 0000.0001) %MON exf_climsss_mean             =   3.3461926268386E+01
(PID.TID 0000.0001) %MON exf_climsss_sd               =   1.0315988331065E+00
(PID.TID 0000.0001) %MON exf_climsss_del2             =   1.0010781500943E-01
(PID.TID 0000.0001) // =======================================================
(PID.TID 0000.0001) // End MONITOR EXF statistics
(PID.TID 0000.0001) // =======================================================
 ph-ice B  5  0.  0.  0.
 ph-ice C  5  3.0628154E+11
 cg2d: Sum(rhs),rhsMax =   3.20071660217525E-08  1.19996672208343E+00
(PID.TID 0000.0001) // =======================================================
(PID.TID 0000.0001) // Begin MONITOR SEAICE statistics
(PID.TID 0000.0001) // =======================================================
(PID.TID 0000.0001) %MON seaice_tsnumber              =                     6
(PID.TID 0000.0001) %MON seaice_time_sec              =   2.1600000000000E+04
(PID.TID 0000.0001) %MON seaice_uice_max              =   2.3992733253730E-01
(PID.TID 0000.0001) %MON seaice_uice_min              =  -1.0534849502402E-01
(PID.TID 0000.0001) %MON seaice_uice_mean             =   8.0979508017724E-02
(PID.TID 0000.0001) %MON seaice_uice_sd               =   8.5693754290984E-02
(PID.TID 0000.0001) %MON seaice_uice_del2             =   1.0079236994237E-02
(PID.TID 0000.0001) %MON seaice_vice_max              =   9.8351447678423E-02
(PID.TID 0000.0001) %MON seaice_vice_min              =  -2.1228924534342E-01
(PID.TID 0000.0001) %MON seaice_vice_mean             =  -5.4937468589106E-02
(PID.TID 0000.0001) %MON seaice_vice_sd               =   7.2061951035530E-02
(PID.TID 0000.0001) %MON seaice_vice_del2             =   8.0226514437599E-03
(PID.TID 0000.0001) %MON seaice_area_max              =   1.0000000000000E+00
(PID.TID 0000.0001) %MON seaice_area_min              =   0.0000000000000E+00
(PID.TID 0000.0001) %MON seaice_area_mean             =   6.2417688263827E-01
(PID.TID 0000.0001) %MON seaice_area_sd               =   4.5808407274518E-01
(PID.TID 0000.0001) %MON seaice_area_del2             =   5.3631206531887E-02
(PID.TID 0000.0001) %MON seaice_heff_max              =   5.4790358803125E-01
(PID.TID 0000.0001) %MON seaice_heff_min              =   0.0000000000000E+00
(PID.TID 0000.0001) %MON seaice_heff_mean             =   1.4225456455267E-01
(PID.TID 0000.0001) %MON seaice_heff_sd               =   1.7422547489596E-01
(PID.TID 0000.0001) %MON seaice_heff_del2             =   1.3240993462010E-02
(PID.TID 0000.0001) %MON seaice_hsnow_max             =   2.0470995401277E-01
(PID.TID 0000.0001) %MON seaice_hsnow_min             =   0.0000000000000E+00
(PID.TID 0000.0001) %MON seaice_hsnow_mean            =   1.1841143347347E-01
(PID.TID 0000.0001) %MON seaice_hsnow_sd              =   9.7165681939511E-02
(PID.TID 0000.0001) %MON seaice_hsnow_del2            =   6.5148328842055E-03
(PID.TID 0000.0001) // =======================================================
(PID.TID 0000.0001) // End MONITOR SEAICE statistics
(PID.TID 0000.0001) // =======================================================
(PID.TID 0000.0001) // =======================================================
(PID.TID 0000.0001) // Begin MONITOR EXF statistics
(PID.TID 0000.0001) // =======================================================
(PID.TID 0000.0001) %MON exf_tsnumber                 =                     6
(PID.TID 0000.0001) %MON exf_time_sec                 =   2.1600000000000E+04
(PID.TID 0000.0001) %MON exf_ustress_max              =   5.2237984457478E-02
(PID.TID 0000.0001) %MON exf_ustress_min              =  -9.3794680426842E-02
(PID.TID 0000.0001) %MON exf_ustress_mean             =   1.7953011029687E-02
(PID.TID 0000.0001) %MON exf_ustress_sd               =   2.3720085338176E-02
(PID.TID 0000.0001) %MON exf_ustress_del2             =   2.8182309337898E-03
(PID.TID 0000.0001) %MON exf_vstress_max              =   5.3832418070363E-02
(PID.TID 0000.0001) %MON exf_vstress_min              =  -5.8451170700528E-02
(PID.TID 0000.0001) %MON exf_vstress_mean             =  -5.4433705801052E-03
(PID.TID 0000.0001) %MON exf_vstress_sd               =   1.4447187157150E-02
(PID.TID 0000.0001) %MON exf_vstress_del2             =   1.6932776917476E-03
(PID.TID 0000.0001) %MON exf_hflux_max                =   6.2507220073314E+02
(PID.TID 0000.0001) %MON exf_hflux_min                =  -5.1351197185993E+01
(PID.TID 0000.0001) %MON exf_hflux_mean               =   1.4630893693009E+02
(PID.TID 0000.0001) %MON exf_hflux_sd                 =   1.8003246139521E+02
(PID.TID 0000.0001) %MON exf_hflux_del2               =   1.6303858234079E+01
(PID.TID 0000.0001) %MON exf_sflux_max                =   3.9026275524021E-08
(PID.TID 0000.0001) %MON exf_sflux_min                =  -8.8868954899162E-08
(PID.TID 0000.0001) %MON exf_sflux_mean               =  -2.5950942545555E-08
(PID.TID 0000.0001) %MON exf_sflux_sd                 =   3.0354684863231E-08
(PID.TID 0000.0001) %MON exf_sflux_del2               =   3.1631150338134E-09
(PID.TID 0000.0001) %MON exf_uwind_max                =   6.4674192569295E+00
(PID.TID 0000.0001) %MON exf_uwind_min                =  -6.8373987635628E+00
(PID.TID 0000.0001) %MON exf_uwind_mean               =   2.7704180476696E+00
(PID.TID 0000.0001) %MON exf_uwind_sd                 =   2.9916966488382E+00
(PID.TID 0000.0001) %MON exf_uwind_del2               =   3.1575737272796E-01
(PID.TID 0000.0001) %MON exf_vwind_max                =   3.9242492972827E+00
(PID.TID 0000.0001) %MON exf_vwind_min                =  -6.0142679292648E+00
(PID.TID 0000.0001) %MON exf_vwind_mean               =  -7.5719204270894E-01
(PID.TID 0000.0001) %MON exf_vwind_sd                 =   1.7299937065642E+00
(PID.TID 0000.0001) %MON exf_vwind_del2               =   1.9329141077275E-01
(PID.TID 0000.0001) %MON exf_wspeed_max               =   7.8835115525503E+00
(PID.TID 0000.0001) %MON exf_wspeed_min               =   4.5889518386928E-01
(PID.TID 0000.0001) %MON exf_wspeed_mean              =   4.1987383082859E+00
(PID.TID 0000.0001) %MON exf_wspeed_sd                =   1.6007122259633E+00
(PID.TID 0000.0001) %MON exf_wspeed_del2              =   3.7725655435875E-01
(PID.TID 0000.0001) %MON exf_atemp_max                =   2.8187253958280E+02
(PID.TID 0000.0001) %MON exf_atemp_min                =   2.3643497929808E+02
(PID.TID 0000.0001) %MON exf_atemp_mean               =   2.6391819425235E+02
(PID.TID 0000.0001) %MON exf_atemp_sd                 =   1.1992188921447E+01
(PID.TID 0000.0001) %MON exf_atemp_del2               =   6.4953908265774E-01
(PID.TID 0000.0001) %MON exf_aqh_max                  =   6.3189936985002E-03
(PID.TID 0000.0001) %MON exf_aqh_min                  =   1.6312812718364E-04
(PID.TID 0000.0001) %MON exf_aqh_mean                 =   2.4770007717611E-03
(PID.TID 0000.0001) %MON exf_aqh_sd                   =   1.4258893952382E-03
(PID.TID 0000.0001) %MON exf_aqh_del2                 =   6.8059775232760E-05
(PID.TID 0000.0001) %MON exf_lwflux_max               =   1.8157457967829E+02
(PID.TID 0000.0001) %MON exf_lwflux_min               =   2.7062314427398E+01
(PID.TID 0000.0001) %MON exf_lwflux_mean              =   7.5238123660605E+01
(PID.TID 0000.0001) %MON exf_lwflux_sd                =   4.2774668018769E+01
(PID.TID 0000.0001) %MON exf_lwflux_del2              =   3.2322310797360E+00
(PID.TID 0000.0001) %MON exf_precip_max               =   1.0499595166344E-07
(PID.TID 0000.0001) %MON exf_precip_min               =   2.7279142810763E-10
(PID.TID 0000.0001) %MON exf_precip_mean              =   3.6390015478879E-08
(PID.TID 0000.0001) %MON exf_precip_sd                =   2.0580860600171E-08
(PID.TID 0000.0001) %MON exf_precip_del2              =   2.5583211448813E-09
(PID.TID 0000.0001) %MON exf_snowprecip_max           =   0.0000000000000E+00
(PID.TID 0000.0001) %MON exf_snowprecip_min           =   0.0000000000000E+00
(PID.TID 0000.0001) %MON exf_snowprecip_mean          =   0.0000000000000E+00
(PID.TID 0000.0001) %MON exf_snowprecip_sd            =   0.0000000000000E+00
(PID.TID 0000.0001) %MON exf_snowprecip_del2          =   0.0000000000000E+00
(PID.TID 0000.0001) %MON exf_swflux_max               =  -8.1207452738871E-02
(PID.TID 0000.0001) %MON exf_swflux_min               =  -6.4086336117103E+01
(PID.TID 0000.0001) %MON exf_swflux_mean              =  -2.6516416318198E+01
(PID.TID 0000.0001) %MON exf_swflux_sd                =   1.9648923659484E+01
(PID.TID 0000.0001) %MON exf_swflux_del2              =   4.7965400922860E-01
(PID.TID 0000.0001) %MON exf_evap_max                 =   4.5346507082531E-08
(PID.TID 0000.0001) %MON exf_evap_min                 =  -4.2210682165472E-09
(PID.TID 0000.0001) %MON exf_evap_mean                =   1.0439072933324E-08
(PID.TID 0000.0001) %MON exf_evap_sd                  =   1.1078853755712E-08
(PID.TID 0000.0001) %MON exf_evap_del2                =   1.3326443312146E-09
(PID.TID 0000.0001) %MON exf_swdown_max               =   7.1207040130115E+01
(PID.TID 0000.0001) %MON exf_swdown_min               =   9.0230503043190E-02
(PID.TID 0000.0001) %MON exf_swdown_mean              =   2.9462684797997E+01
(PID.TID 0000.0001) %MON exf_swdown_sd                =   2.1832137399427E+01
(PID.TID 0000.0001) %MON exf_swdown_del2              =   5.3294889914289E-01
(PID.TID 0000.0001) %MON exf_lwdown_max               =   3.0562676151463E+02
(PID.TID 0000.0001) %MON exf_lwdown_min               =   1.1590705083628E+02
(PID.TID 0000.0001) %MON exf_lwdown_mean              =   2.2585507298474E+02
(PID.TID 0000.0001) %MON exf_lwdown_sd                =   4.6301263017486E+01
(PID.TID 0000.0001) %MON exf_lwdown_del2              =   3.2438911371283E+00
(PID.TID 0000.0001) %MON exf_apressure_max            =   0.0000000000000E+00
(PID.TID 0000.0001) %MON exf_apressure_min            =   0.0000000000000E+00
(PID.TID 0000.0001) %MON exf_apressure_mean           =   0.0000000000000E+00
(PID.TID 0000.0001) %MON exf_apressure_sd             =   0.0000000000000E+00
(PID.TID 0000.0001) %MON exf_apressure_del2           =   0.0000000000000E+00
(PID.TID 0000.0001) %MON exf_runoff_max               =   0.0000000000000E+00
(PID.TID 0000.0001) %MON exf_runoff_min               =   0.0000000000000E+00
(PID.TID 0000.0001) %MON exf_runoff_mean              =   0.0000000000000E+00
(PID.TID 0000.0001) %MON exf_runoff_sd                =   0.0000000000000E+00
(PID.TID 0000.0001) %MON exf_runoff_del2              =   0.0000000000000E+00
(PID.TID 0000.0001) %MON exf_climsst_max              =   0.0000000000000E+00
(PID.TID 0000.0001) %MON exf_climsst_min              =   0.0000000000000E+00
(PID.TID 0000.0001) %MON exf_climsst_mean             =   0.0000000000000E+00
(PID.TID 0000.0001) %MON exf_climsst_sd               =   0.0000000000000E+00
(PID.TID 0000.0001) %MON exf_climsst_del2             =   0.0000000000000E+00
(PID.TID 0000.0001) %MON exf_climsss_max              =   3.5041439369077E+01
(PID.TID 0000.0001) %MON exf_climsss_min              =   3.0670869139374E+01
(PID.TID 0000.0001) %MON exf_climsss_mean             =   3.3462447601866E+01
(PID.TID 0000.0001) %MON exf_climsss_sd               =   1.0315283113566E+00
(PID.TID 0000.0001) %MON exf_climsss_del2             =   1.0009058571904E-01
(PID.TID 0000.0001) // =======================================================
(PID.TID 0000.0001) // End MONITOR EXF statistics
(PID.TID 0000.0001) // =======================================================
 ph-ice B  6  0.  0.  0.
 ph-ice C  6  3.56942936E+11
 cg2d: Sum(rhs),rhsMax =   3.26974109766953E-08  1.19247381596871E+00
(PID.TID 0000.0001) // =======================================================
(PID.TID 0000.0001) // Begin MONITOR SEAICE statistics
(PID.TID 0000.0001) // =======================================================
(PID.TID 0000.0001) %MON seaice_tsnumber              =                     7
(PID.TID 0000.0001) %MON seaice_time_sec              =   2.5200000000000E+04
(PID.TID 0000.0001) %MON seaice_uice_max              =   2.5685233969608E-01
(PID.TID 0000.0001) %MON seaice_uice_min              =  -9.7750591653113E-02
(PID.TID 0000.0001) %MON seaice_uice_mean             =   7.6053109867580E-02
(PID.TID 0000.0001) %MON seaice_uice_sd               =   8.5420404818499E-02
(PID.TID 0000.0001) %MON seaice_uice_del2             =   9.6585233662523E-03
(PID.TID 0000.0001) %MON seaice_vice_max              =   9.3826162066232E-02
(PID.TID 0000.0001) %MON seaice_vice_min              =  -2.2536421284109E-01
(PID.TID 0000.0001) %MON seaice_vice_mean             =  -6.0012497033074E-02
(PID.TID 0000.0001) %MON seaice_vice_sd               =   7.2852775930914E-02
(PID.TID 0000.0001) %MON seaice_vice_del2             =   8.1655850773474E-03
(PID.TID 0000.0001) %MON seaice_area_max              =   1.0000000000000E+00
(PID.TID 0000.0001) %MON seaice_area_min              =   0.0000000000000E+00
(PID.TID 0000.0001) %MON seaice_area_mean             =   6.2408688453799E-01
(PID.TID 0000.0001) %MON seaice_area_sd               =   4.5772399766353E-01
(PID.TID 0000.0001) %MON seaice_area_del2             =   5.3629428803529E-02
(PID.TID 0000.0001) %MON seaice_heff_max              =   5.4815057630976E-01
(PID.TID 0000.0001) %MON seaice_heff_min              =   0.0000000000000E+00
(PID.TID 0000.0001) %MON seaice_heff_mean             =   1.4221025567796E-01
(PID.TID 0000.0001) %MON seaice_heff_sd               =   1.7437212947677E-01
(PID.TID 0000.0001) %MON seaice_heff_del2             =   1.3220440890307E-02
(PID.TID 0000.0001) %MON seaice_hsnow_max             =   2.0549515084231E-01
(PID.TID 0000.0001) %MON seaice_hsnow_min             =   0.0000000000000E+00
(PID.TID 0000.0001) %MON seaice_hsnow_mean            =   1.1857184786338E-01
(PID.TID 0000.0001) %MON seaice_hsnow_sd              =   9.7287286136823E-02
(PID.TID 0000.0001) %MON seaice_hsnow_del2            =   6.5537586332812E-03
(PID.TID 0000.0001) // =======================================================
(PID.TID 0000.0001) // End MONITOR SEAICE statistics
(PID.TID 0000.0001) // =======================================================
(PID.TID 0000.0001) // =======================================================
(PID.TID 0000.0001) // Begin MONITOR EXF statistics
(PID.TID 0000.0001) // =======================================================
(PID.TID 0000.0001) %MON exf_tsnumber                 =                     7
(PID.TID 0000.0001) %MON exf_time_sec                 =   2.5200000000000E+04
(PID.TID 0000.0001) %MON exf_ustress_max              =   5.2243932821800E-02
(PID.TID 0000.0001) %MON exf_ustress_min              =  -9.3796695311269E-02
(PID.TID 0000.0001) %MON exf_ustress_mean             =   1.7960116644224E-02
(PID.TID 0000.0001) %MON exf_ustress_sd               =   2.3726165603178E-02
(PID.TID 0000.0001) %MON exf_ustress_del2             =   2.8191131070976E-03
(PID.TID 0000.0001) %MON exf_vstress_max              =   5.3833777652829E-02
(PID.TID 0000.0001) %MON exf_vstress_min              =  -5.8440994812624E-02
(PID.TID 0000.0001) %MON exf_vstress_mean             =  -5.4400594478949E-03
(PID.TID 0000.0001) %MON exf_vstress_sd               =   1.4449139830824E-02
(PID.TID 0000.0001) %MON exf_vstress_del2             =   1.6932578815770E-03
(PID.TID 0000.0001) %MON exf_hflux_max                =   6.2511249114512E+02
(PID.TID 0000.0001) %MON exf_hflux_min                =  -5.1292187891824E+01
(PID.TID 0000.0001) %MON exf_hflux_mean               =   1.4638059061902E+02
(PID.TID 0000.0001) %MON exf_hflux_sd                 =   1.8004880384597E+02
(PID.TID 0000.0001) %MON exf_hflux_del2               =   1.6307671783706E+01
(PID.TID 0000.0001) %MON exf_sflux_max                =   3.9024744508729E-08
(PID.TID 0000.0001) %MON exf_sflux_min                =  -8.8844029801120E-08
(PID.TID 0000.0001) %MON exf_sflux_mean               =  -2.5943660780252E-08
(PID.TID 0000.0001) %MON exf_sflux_sd                 =   3.0352932027032E-08
(PID.TID 0000.0001) %MON exf_sflux_del2               =   3.1638712184523E-09
(PID.TID 0000.0001) %MON exf_uwind_max                =   6.4679267093784E+00
(PID.TID 0000.0001) %MON exf_uwind_min                =  -6.8374255452651E+00
(PID.TID 0000.0001) %MON exf_uwind_mean               =   2.7705256000140E+00
(PID.TID 0000.0001) %MON exf_uwind_sd                 =   2.9919728561678E+00
(PID.TID 0000.0001) %MON exf_uwind_del2               =   3.1576527695052E-01
(PID.TID 0000.0001) %MON exf_vwind_max                =   3.9242794780783E+00
(PID.TID 0000.0001) %MON exf_vwind_min                =  -6.0133620194399E+00
(PID.TID 0000.0001) %MON exf_vwind_mean               =  -7.5657426961883E-01
(PID.TID 0000.0001) %MON exf_vwind_sd                 =   1.7301024272674E+00
(PID.TID 0000.0001) %MON exf_vwind_del2               =   1.9328456693798E-01
(PID.TID 0000.0001) %MON exf_wspeed_max               =   7.8835498038073E+00
(PID.TID 0000.0001) %MON exf_wspeed_min               =   4.5865235699732E-01
(PID.TID 0000.0001) %MON exf_wspeed_mean              =   4.1988415259832E+00
(PID.TID 0000.0001) %MON exf_wspeed_sd                =   1.6009692521540E+00
(PID.TID 0000.0001) %MON exf_wspeed_del2              =   3.7730984410389E-01
(PID.TID 0000.0001) %MON exf_atemp_max                =   2.8187082742993E+02
(PID.TID 0000.0001) %MON exf_atemp_min                =   2.3643051433042E+02
(PID.TID 0000.0001) %MON exf_atemp_mean               =   2.6391355016305E+02
(PID.TID 0000.0001) %MON exf_atemp_sd                 =   1.1993652374616E+01
(PID.TID 0000.0001) %MON exf_atemp_del2               =   6.4955841421018E-01
(PID.TID 0000.0001) %MON exf_aqh_max                  =   6.3182971576392E-03
(PID.TID 0000.0001) %MON exf_aqh_min                  =   1.6303402368524E-04
(PID.TID 0000.0001) %MON exf_aqh_mean                 =   2.4764404153565E-03
(PID.TID 0000.0001) %MON exf_aqh_sd                   =   1.4257865072101E-03
(PID.TID 0000.0001) %MON exf_aqh_del2                 =   6.8046107671613E-05
(PID.TID 0000.0001) %MON exf_lwflux_max               =   1.8159055041551E+02
(PID.TID 0000.0001) %MON exf_lwflux_min               =   2.7054912714007E+01
(PID.TID 0000.0001) %MON exf_lwflux_mean              =   7.5259484581461E+01
(PID.TID 0000.0001) %MON exf_lwflux_sd                =   4.2774121536537E+01
(PID.TID 0000.0001) %MON exf_lwflux_del2              =   3.2322913945503E+00
(PID.TID 0000.0001) %MON exf_precip_max               =   1.0499733310606E-07
(PID.TID 0000.0001) %MON exf_precip_min               =   2.7265750163496E-10
(PID.TID 0000.0001) %MON exf_precip_mean              =   3.6390004634845E-08
(PID.TID 0000.0001) %MON exf_precip_sd                =   2.0581314966068E-08
(PID.TID 0000.0001) %MON exf_precip_del2              =   2.5588488380710E-09
(PID.TID 0000.0001) %MON exf_snowprecip_max           =   0.0000000000000E+00
(PID.TID 0000.0001) %MON exf_snowprecip_min           =   0.0000000000000E+00
(PID.TID 0000.0001) %MON exf_snowprecip_mean          =   0.0000000000000E+00
(PID.TID 0000.0001) %MON exf_snowprecip_sd            =   0.0000000000000E+00
(PID.TID 0000.0001) %MON exf_snowprecip_del2          =   0.0000000000000E+00
(PID.TID 0000.0001) %MON exf_swflux_max               =  -8.1207735616653E-02
(PID.TID 0000.0001) %MON exf_swflux_min               =  -6.4105206467675E+01
(PID.TID 0000.0001) %MON exf_swflux_mean              =  -2.6526948534072E+01
(PID.TID 0000.0001) %MON exf_swflux_sd                =   1.9652762825246E+01
(PID.TID 0000.0001) %MON exf_swflux_del2              =   4.7976088317456E-01
(PID.TID 0000.0001) %MON exf_evap_max                 =   4.5344313356309E-08
(PID.TID 0000.0001) %MON exf_evap_min                 =  -4.2074596011988E-09
(PID.TID 0000.0001) %MON exf_evap_mean                =   1.0446343854593E-08
(PID.TID 0000.0001) %MON exf_evap_sd                  =   1.1077264264093E-08
(PID.TID 0000.0001) %MON exf_evap_del2                =   1.3331719802954E-09
(PID.TID 0000.0001) %MON exf_swdown_max               =   7.1228007186306E+01
(PID.TID 0000.0001) %MON exf_swdown_min               =   9.0230817351836E-02
(PID.TID 0000.0001) %MON exf_swdown_mean              =   2.9474387260081E+01
(PID.TID 0000.0001) %MON exf_swdown_sd                =   2.1836403139162E+01
(PID.TID 0000.0001) %MON exf_swdown_del2              =   5.3306764797174E-01
(PID.TID 0000.0001) %MON exf_lwdown_max               =   3.0561793543081E+02
(PID.TID 0000.0001) %MON exf_lwdown_min               =   1.1589194395764E+02
(PID.TID 0000.0001) %MON exf_lwdown_mean              =   2.2583936565568E+02
(PID.TID 0000.0001) %MON exf_lwdown_sd                =   4.6305239399294E+01
(PID.TID 0000.0001) %MON exf_lwdown_del2              =   3.2439027772011E+00
(PID.TID 0000.0001) %MON exf_apressure_max            =   0.0000000000000E+00
(PID.TID 0000.0001) %MON exf_apressure_min            =   0.0000000000000E+00
(PID.TID 0000.0001) %MON exf_apressure_mean           =   0.0000000000000E+00
(PID.TID 0000.0001) %MON exf_apressure_sd             =   0.0000000000000E+00
(PID.TID 0000.0001) %MON exf_apressure_del2           =   0.0000000000000E+00
(PID.TID 0000.0001) %MON exf_runoff_max               =   0.0000000000000E+00
(PID.TID 0000.0001) %MON exf_runoff_min               =   0.0000000000000E+00
(PID.TID 0000.0001) %MON exf_runoff_mean              =   0.0000000000000E+00
(PID.TID 0000.0001) %MON exf_runoff_sd                =   0.0000000000000E+00
(PID.TID 0000.0001) %MON exf_runoff_del2              =   0.0000000000000E+00
(PID.TID 0000.0001) %MON exf_climsst_max              =   0.0000000000000E+00
(PID.TID 0000.0001) %MON exf_climsst_min              =   0.0000000000000E+00
(PID.TID 0000.0001) %MON exf_climsst_mean             =   0.0000000000000E+00
(PID.TID 0000.0001) %MON exf_climsst_sd               =   0.0000000000000E+00
(PID.TID 0000.0001) %MON exf_climsst_del2             =   0.0000000000000E+00
(PID.TID 0000.0001) %MON exf_climsss_max              =   3.5041624116116E+01
(PID.TID 0000.0001) %MON exf_climsss_min              =   3.0671628467372E+01
(PID.TID 0000.0001) %MON exf_climsss_mean             =   3.3462968935345E+01
(PID.TID 0000.0001) %MON exf_climsss_sd               =   1.0314580197633E+00
(PID.TID 0000.0001) %MON exf_climsss_del2             =   1.0007335642865E-01
(PID.TID 0000.0001) // =======================================================
(PID.TID 0000.0001) // End MONITOR EXF statistics
(PID.TID 0000.0001) // =======================================================
 ph-ice B  7  0.  0.  0.
 ph-ice C  7  4.07568372E+11
 cg2d: Sum(rhs),rhsMax =   3.08543183398513E-08  1.18167591126968E+00
(PID.TID 0000.0001) // =======================================================
(PID.TID 0000.0001) // Begin MONITOR SEAICE statistics
(PID.TID 0000.0001) // =======================================================
(PID.TID 0000.0001) %MON seaice_tsnumber              =                     8
(PID.TID 0000.0001) %MON seaice_time_sec              =   2.8800000000000E+04
(PID.TID 0000.0001) %MON seaice_uice_max              =   2.6752976876006E-01
(PID.TID 0000.0001) %MON seaice_uice_min              =  -8.8502450661948E-02
(PID.TID 0000.0001) %MON seaice_uice_mean             =   6.9612601911715E-02
(PID.TID 0000.0001) %MON seaice_uice_sd               =   8.3091215230617E-02
(PID.TID 0000.0001) %MON seaice_uice_del2             =   8.8606813253990E-03
(PID.TID 0000.0001) %MON seaice_vice_max              =   8.6568020765773E-02
(PID.TID 0000.0001) %MON seaice_vice_min              =  -2.2434575859471E-01
(PID.TID 0000.0001) %MON seaice_vice_mean             =  -6.1223738182863E-02
(PID.TID 0000.0001) %MON seaice_vice_sd               =   7.0132228865949E-02
(PID.TID 0000.0001) %MON seaice_vice_del2             =   8.0005779845353E-03
(PID.TID 0000.0001) %MON seaice_area_max              =   1.0000000000000E+00
(PID.TID 0000.0001) %MON seaice_area_min              =   0.0000000000000E+00
(PID.TID 0000.0001) %MON seaice_area_mean             =   6.2402840602195E-01
(PID.TID 0000.0001) %MON seaice_area_sd               =   4.5740422314323E-01
(PID.TID 0000.0001) %MON seaice_area_del2             =   5.3616903147517E-02
(PID.TID 0000.0001) %MON seaice_heff_max              =   5.4845941034830E-01
(PID.TID 0000.0001) %MON seaice_heff_min              =   0.0000000000000E+00
(PID.TID 0000.0001) %MON seaice_heff_mean             =   1.4210931121986E-01
(PID.TID 0000.0001) %MON seaice_heff_sd               =   1.7454222817138E-01
(PID.TID 0000.0001) %MON seaice_heff_del2             =   1.3200061467677E-02
(PID.TID 0000.0001) %MON seaice_hsnow_max             =   2.0628031960974E-01
(PID.TID 0000.0001) %MON seaice_hsnow_min             =   0.0000000000000E+00
(PID.TID 0000.0001) %MON seaice_hsnow_mean            =   1.1873224112763E-01
(PID.TID 0000.0001) %MON seaice_hsnow_sd              =   9.7409172568425E-02
(PID.TID 0000.0001) %MON seaice_hsnow_del2            =   6.5932180722017E-03
(PID.TID 0000.0001) // =======================================================
(PID.TID 0000.0001) // End MONITOR SEAICE statistics
(PID.TID 0000.0001) // =======================================================
(PID.TID 0000.0001) // =======================================================
(PID.TID 0000.0001) // Begin MONITOR EXF statistics
(PID.TID 0000.0001) // =======================================================
(PID.TID 0000.0001) %MON exf_tsnumber                 =                     8
(PID.TID 0000.0001) %MON exf_time_sec                 =   2.8800000000000E+04
(PID.TID 0000.0001) %MON exf_ustress_max              =   5.2249214879485E-02
(PID.TID 0000.0001) %MON exf_ustress_min              =  -9.3798929022902E-02
(PID.TID 0000.0001) %MON exf_ustress_mean             =   1.7966527308175E-02
(PID.TID 0000.0001) %MON exf_ustress_sd               =   2.3731955700519E-02
(PID.TID 0000.0001) %MON exf_ustress_del2             =   2.8199339681086E-03
(PID.TID 0000.0001) %MON exf_vstress_max              =   5.3835262836833E-02
(PID.TID 0000.0001) %MON exf_vstress_min              =  -5.8423863255191E-02
(PID.TID 0000.0001) %MON exf_vstress_mean             =  -5.4366066205840E-03
(PID.TID 0000.0001) %MON exf_vstress_sd               =   1.4450709169990E-02
(PID.TID 0000.0001) %MON exf_vstress_del2             =   1.6932444007285E-03
(PID.TID 0000.0001) %MON exf_hflux_max                =   6.2516667571595E+02
(PID.TID 0000.0001) %MON exf_hflux_min                =  -5.1290005254315E+01
(PID.TID 0000.0001) %MON exf_hflux_mean               =   1.4644491214607E+02
(PID.TID 0000.0001) %MON exf_hflux_sd                 =   1.8007068130782E+02
(PID.TID 0000.0001) %MON exf_hflux_del2               =   1.6310911031826E+01
(PID.TID 0000.0001) %MON exf_sflux_max                =   3.9024984842029E-08
(PID.TID 0000.0001) %MON exf_sflux_min                =  -8.8852274144965E-08
(PID.TID 0000.0001) %MON exf_sflux_mean               =  -2.5937375764315E-08
(PID.TID 0000.0001) %MON exf_sflux_sd                 =   3.0352646516747E-08
(PID.TID 0000.0001) %MON exf_sflux_del2               =   3.1646044895806E-09
(PID.TID 0000.0001) %MON exf_uwind_max                =   6.4684341618272E+00
(PID.TID 0000.0001) %MON exf_uwind_min                =  -6.8374523269674E+00
(PID.TID 0000.0001) %MON exf_uwind_mean               =   2.7706331523584E+00
(PID.TID 0000.0001) %MON exf_uwind_sd                 =   2.9922491036980E+00
(PID.TID 0000.0001) %MON exf_uwind_del2               =   3.1577589455021E-01
(PID.TID 0000.0001) %MON exf_vwind_max                =   3.9243096588739E+00
(PID.TID 0000.0001) %MON exf_vwind_min                =  -6.0124561096150E+00
(PID.TID 0000.0001) %MON exf_vwind_mean               =  -7.5595649652871E-01
(PID.TID 0000.0001) %MON exf_vwind_sd                 =   1.7302112611019E+00
(PID.TID 0000.0001) %MON exf_vwind_del2               =   1.9327792057372E-01
(PID.TID 0000.0001) %MON exf_wspeed_max               =   7.8835880550853E+00
(PID.TID 0000.0001) %MON exf_wspeed_min               =   4.5840953253040E-01
(PID.TID 0000.0001) %MON exf_wspeed_mean              =   4.1989448725728E+00
(PID.TID 0000.0001) %MON exf_wspeed_sd                =   1.6012263903992E+00
(PID.TID 0000.0001) %MON exf_wspeed_del2              =   3.7736312737620E-01
(PID.TID 0000.0001) %MON exf_atemp_max                =   2.8186911527707E+02
(PID.TID 0000.0001) %MON exf_atemp_min                =   2.3642604936277E+02
(PID.TID 0000.0001) %MON exf_atemp_mean               =   2.6390890607375E+02
(PID.TID 0000.0001) %MON exf_atemp_sd                 =   1.1995116314526E+01
(PID.TID 0000.0001) %MON exf_atemp_del2               =   6.4957774576263E-01
(PID.TID 0000.0001) %MON exf_aqh_max                  =   6.3176006167781E-03
(PID.TID 0000.0001) %MON exf_aqh_min                  =   1.6293992018683E-04
(PID.TID 0000.0001) %MON exf_aqh_mean                 =   2.4758800589519E-03
(PID.TID 0000.0001) %MON exf_aqh_sd                   =   1.4256836550895E-03
(PID.TID 0000.0001) %MON exf_aqh_del2                 =   6.8032440110466E-05
(PID.TID 0000.0001) %MON exf_lwflux_max               =   1.8160657786430E+02
(PID.TID 0000.0001) %MON exf_lwflux_min               =   2.7042773776997E+01
(PID.TID 0000.0001) %MON exf_lwflux_mean              =   7.5278592297443E+01
(PID.TID 0000.0001) %MON exf_lwflux_sd                =   4.2775417747825E+01
(PID.TID 0000.0001) %MON exf_lwflux_del2              =   3.2322486105903E+00
(PID.TID 0000.0001) %MON exf_precip_max               =   1.0499871454869E-07
(PID.TID 0000.0001) %MON exf_precip_min               =   2.7252357516229E-10
(PID.TID 0000.0001) %MON exf_precip_mean              =   3.6389993790810E-08
(PID.TID 0000.0001) %MON exf_precip_sd                =   2.0581769987393E-08
(PID.TID 0000.0001) %MON exf_precip_del2              =   2.5593765312607E-09
(PID.TID 0000.0001) %MON exf_snowprecip_max           =   0.0000000000000E+00
(PID.TID 0000.0001) %MON exf_snowprecip_min           =   0.0000000000000E+00
(PID.TID 0000.0001) %MON exf_snowprecip_mean          =   0.0000000000000E+00
(PID.TID 0000.0001) %MON exf_snowprecip_sd            =   0.0000000000000E+00
(PID.TID 0000.0001) %MON exf_snowprecip_del2          =   0.0000000000000E+00
(PID.TID 0000.0001) %MON exf_swflux_max               =  -8.1208018494434E-02
(PID.TID 0000.0001) %MON exf_swflux_min               =  -6.4124076818247E+01
(PID.TID 0000.0001) %MON exf_swflux_mean              =  -2.6537480749947E+01
(PID.TID 0000.0001) %MON exf_swflux_sd                =   1.9656602581253E+01
(PID.TID 0000.0001) %MON exf_swflux_del2              =   4.7986775712052E-01
(PID.TID 0000.0001) %MON exf_evap_max                 =   4.5343890978678E-08
(PID.TID 0000.0001) %MON exf_evap_min                 =  -4.2045649080152E-09
(PID.TID 0000.0001) %MON exf_evap_mean                =   1.0452618026495E-08
(PID.TID 0000.0001) %MON exf_evap_sd                  =   1.1076423358091E-08
(PID.TID 0000.0001) %MON exf_evap_del2                =   1.3335946522871E-09
(PID.TID 0000.0001) %MON exf_swdown_max               =   7.1248974242497E+01
(PID.TID 0000.0001) %MON exf_swdown_min               =   9.0231131660482E-02
(PID.TID 0000.0001) %MON exf_swdown_mean              =   2.9486089722164E+01
(PID.TID 0000.0001) %MON exf_swdown_sd                =   2.1840669534725E+01
(PID.TID 0000.0001) %MON exf_swdown_del2              =   5.3318639680058E-01
(PID.TID 0000.0001) %MON exf_lwdown_max               =   3.0560910934698E+02
(PID.TID 0000.0001) %MON exf_lwdown_min               =   1.1587683707899E+02
(PID.TID 0000.0001) %MON exf_lwdown_mean              =   2.2582365832661E+02
(PID.TID 0000.0001) %MON exf_lwdown_sd                =   4.6309216947189E+01
(PID.TID 0000.0001) %MON exf_lwdown_del2              =   3.2439144172738E+00
(PID.TID 0000.0001) %MON exf_apressure_max            =   0.0000000000000E+00
(PID.TID 0000.0001) %MON exf_apressure_min            =   0.0000000000000E+00
(PID.TID 0000.0001) %MON exf_apressure_mean           =   0.0000000000000E+00
(PID.TID 0000.0001) %MON exf_apressure_sd             =   0.0000000000000E+00
(PID.TID 0000.0001) %MON exf_apressure_del2           =   0.0000000000000E+00
(PID.TID 0000.0001) %MON exf_runoff_max               =   0.0000000000000E+00
(PID.TID 0000.0001) %MON exf_runoff_min               =   0.0000000000000E+00
(PID.TID 0000.0001) %MON exf_runoff_mean              =   0.0000000000000E+00
(PID.TID 0000.0001) %MON exf_runoff_sd                =   0.0000000000000E+00
(PID.TID 0000.0001) %MON exf_runoff_del2              =   0.0000000000000E+00
(PID.TID 0000.0001) %MON exf_climsst_max              =   0.0000000000000E+00
(PID.TID 0000.0001) %MON exf_climsst_min              =   0.0000000000000E+00
(PID.TID 0000.0001) %MON exf_climsst_mean             =   0.0000000000000E+00
(PID.TID 0000.0001) %MON exf_climsst_sd               =   0.0000000000000E+00
(PID.TID 0000.0001) %MON exf_climsst_del2             =   0.0000000000000E+00
(PID.TID 0000.0001) %MON exf_climsss_max              =   3.5041808863155E+01
(PID.TID 0000.0001) %MON exf_climsss_min              =   3.0672387795370E+01
(PID.TID 0000.0001) %MON exf_climsss_mean             =   3.3463490268825E+01
(PID.TID 0000.0001) %MON exf_climsss_sd               =   1.0313879583737E+00
(PID.TID 0000.0001) %MON exf_climsss_del2             =   1.0005612713826E-01
(PID.TID 0000.0001) // =======================================================
(PID.TID 0000.0001) // End MONITOR EXF statistics
(PID.TID 0000.0001) // =======================================================
 ph-ice B  8  0.  0.  0.
 ph-ice C  8  4.58145007E+11
 cg2d: Sum(rhs),rhsMax =   2.95455384671794E-08  1.16732732321105E+00
(PID.TID 0000.0001) // =======================================================
(PID.TID 0000.0001) // Begin MONITOR SEAICE statistics
(PID.TID 0000.0001) // =======================================================
(PID.TID 0000.0001) %MON seaice_tsnumber              =                     9
(PID.TID 0000.0001) %MON seaice_time_sec              =   3.2400000000000E+04
(PID.TID 0000.0001) %MON seaice_uice_max              =   2.6896677340690E-01
(PID.TID 0000.0001) %MON seaice_uice_min              =  -8.0042763880125E-02
(PID.TID 0000.0001) %MON seaice_uice_mean             =   6.2852938657614E-02
(PID.TID 0000.0001) %MON seaice_uice_sd               =   7.9022820174334E-02
(PID.TID 0000.0001) %MON seaice_uice_del2             =   7.8429005627635E-03
(PID.TID 0000.0001) %MON seaice_vice_max              =   7.8808436809056E-02
(PID.TID 0000.0001) %MON seaice_vice_min              =  -2.0876036226312E-01
(PID.TID 0000.0001) %MON seaice_vice_mean             =  -5.8595993643865E-02
(PID.TID 0000.0001) %MON seaice_vice_sd               =   6.4348757736705E-02
(PID.TID 0000.0001) %MON seaice_vice_del2             =   7.5771843885769E-03
(PID.TID 0000.0001) %MON seaice_area_max              =   1.0000000000000E+00
(PID.TID 0000.0001) %MON seaice_area_min              =   0.0000000000000E+00
(PID.TID 0000.0001) %MON seaice_area_mean             =   6.2385269776132E-01
(PID.TID 0000.0001) %MON seaice_area_sd               =   4.5701603212167E-01
(PID.TID 0000.0001) %MON seaice_area_del2             =   5.3473207424019E-02
(PID.TID 0000.0001) %MON seaice_heff_max              =   5.4880172478785E-01
(PID.TID 0000.0001) %MON seaice_heff_min              =   0.0000000000000E+00
(PID.TID 0000.0001) %MON seaice_heff_mean             =   1.4197232537833E-01
(PID.TID 0000.0001) %MON seaice_heff_sd               =   1.7470058837977E-01
(PID.TID 0000.0001) %MON seaice_heff_del2             =   1.3179512316086E-02
(PID.TID 0000.0001) %MON seaice_hsnow_max             =   2.0706544703537E-01
(PID.TID 0000.0001) %MON seaice_hsnow_min             =   0.0000000000000E+00
(PID.TID 0000.0001) %MON seaice_hsnow_mean            =   1.1888097080576E-01
(PID.TID 0000.0001) %MON seaice_hsnow_sd              =   9.7521343287809E-02
(PID.TID 0000.0001) %MON seaice_hsnow_del2            =   6.6252286489901E-03
(PID.TID 0000.0001) // =======================================================
(PID.TID 0000.0001) // End MONITOR SEAICE statistics
(PID.TID 0000.0001) // =======================================================
(PID.TID 0000.0001) // =======================================================
(PID.TID 0000.0001) // Begin MONITOR EXF statistics
(PID.TID 0000.0001) // =======================================================
(PID.TID 0000.0001) %MON exf_tsnumber                 =                     9
(PID.TID 0000.0001) %MON exf_time_sec                 =   3.2400000000000E+04
(PID.TID 0000.0001) %MON exf_ustress_max              =   5.2253931426585E-02
(PID.TID 0000.0001) %MON exf_ustress_min              =  -9.3801402378650E-02
(PID.TID 0000.0001) %MON exf_ustress_mean             =   1.7972507439763E-02
(PID.TID 0000.0001) %MON exf_ustress_sd               =   2.3737458927748E-02
(PID.TID 0000.0001) %MON exf_ustress_del2             =   2.8207099974739E-03
(PID.TID 0000.0001) %MON exf_vstress_max              =   5.3836885571563E-02
(PID.TID 0000.0001) %MON exf_vstress_min              =  -5.8402245566971E-02
(PID.TID 0000.0001) %MON exf_vstress_mean             =  -5.4330607178604E-03
(PID.TID 0000.0001) %MON exf_vstress_sd               =   1.4451995262067E-02
(PID.TID 0000.0001) %MON exf_vstress_del2             =   1.6932502015867E-03
(PID.TID 0000.0001) %MON exf_hflux_max                =   6.2523607820795E+02
(PID.TID 0000.0001) %MON exf_hflux_min                =  -5.1341825204639E+01
(PID.TID 0000.0001) %MON exf_hflux_mean               =   1.4650265401815E+02
(PID.TID 0000.0001) %MON exf_hflux_sd                 =   1.8009642091533E+02
(PID.TID 0000.0001) %MON exf_hflux_del2               =   1.6313465212124E+01
(PID.TID 0000.0001) %MON exf_sflux_max                =   3.9027165063391E-08
(PID.TID 0000.0001) %MON exf_sflux_min                =  -8.8881916014011E-08
(PID.TID 0000.0001) %MON exf_sflux_mean               =  -2.5931971282888E-08
(PID.TID 0000.0001) %MON exf_sflux_sd                 =   3.0353380826135E-08
(PID.TID 0000.0001) %MON exf_sflux_del2               =   3.1652666358372E-09
(PID.TID 0000.0001) %MON exf_uwind_max                =   6.4689416142761E+00
(PID.TID 0000.0001) %MON exf_uwind_min                =  -6.8374791086697E+00
(PID.TID 0000.0001) %MON exf_uwind_mean               =   2.7707407047028E+00
(PID.TID 0000.0001) %MON exf_uwind_sd                 =   2.9925253914175E+00
(PID.TID 0000.0001) %MON exf_uwind_del2               =   3.1578823099586E-01
(PID.TID 0000.0001) %MON exf_vwind_max                =   3.9243398396695E+00
(PID.TID 0000.0001) %MON exf_vwind_min                =  -6.0115501997901E+00
(PID.TID 0000.0001) %MON exf_vwind_mean               =  -7.5533872343860E-01
(PID.TID 0000.0001) %MON exf_vwind_sd                 =   1.7303202080462E+00
(PID.TID 0000.0001) %MON exf_vwind_del2               =   1.9327127420947E-01
(PID.TID 0000.0001) %MON exf_wspeed_max               =   7.8836263063842E+00
(PID.TID 0000.0001) %MON exf_wspeed_min               =   4.5816671047235E-01
(PID.TID 0000.0001) %MON exf_wspeed_mean              =   4.1990483480424E+00
(PID.TID 0000.0001) %MON exf_wspeed_sd                =   1.6014836406520E+00
(PID.TID 0000.0001) %MON exf_wspeed_del2              =   3.7741640417905E-01
(PID.TID 0000.0001) %MON exf_atemp_max                =   2.8186740312420E+02
(PID.TID 0000.0001) %MON exf_atemp_min                =   2.3642158439511E+02
(PID.TID 0000.0001) %MON exf_atemp_mean               =   2.6390426198445E+02
(PID.TID 0000.0001) %MON exf_atemp_sd                 =   1.1996580740999E+01
(PID.TID 0000.0001) %MON exf_atemp_del2               =   6.4959707731507E-01
(PID.TID 0000.0001) %MON exf_aqh_max                  =   6.3169040759170E-03
(PID.TID 0000.0001) %MON exf_aqh_min                  =   1.6284581668843E-04
(PID.TID 0000.0001) %MON exf_aqh_mean                 =   2.4753197025473E-03
(PID.TID 0000.0001) %MON exf_aqh_sd                   =   1.4255808388841E-03
(PID.TID 0000.0001) %MON exf_aqh_del2                 =   6.8018772549319E-05
(PID.TID 0000.0001) %MON exf_lwflux_max               =   1.8162256096872E+02
(PID.TID 0000.0001) %MON exf_lwflux_min               =   2.7024547892941E+01
(PID.TID 0000.0001) %MON exf_lwflux_mean              =   7.5295927428475E+01
(PID.TID 0000.0001) %MON exf_lwflux_sd                =   4.2777927990102E+01
(PID.TID 0000.0001) %MON exf_lwflux_del2              =   3.2320775329387E+00
(PID.TID 0000.0001) %MON exf_precip_max               =   1.0500009599131E-07
(PID.TID 0000.0001) %MON exf_precip_min               =   2.7238964868961E-10
(PID.TID 0000.0001) %MON exf_precip_mean              =   3.6389982946776E-08
(PID.TID 0000.0001) %MON exf_precip_sd                =   2.0582225664103E-08
(PID.TID 0000.0001) %MON exf_precip_del2              =   2.5599042244504E-09
(PID.TID 0000.0001) %MON exf_snowprecip_max           =   0.0000000000000E+00
(PID.TID 0000.0001) %MON exf_snowprecip_min           =   0.0000000000000E+00
(PID.TID 0000.0001) %MON exf_snowprecip_mean          =   0.0000000000000E+00
(PID.TID 0000.0001) %MON exf_snowprecip_sd            =   0.0000000000000E+00
(PID.TID 0000.0001) %MON exf_snowprecip_del2          =   0.0000000000000E+00
(PID.TID 0000.0001) %MON exf_swflux_max               =  -8.1208301372215E-02
(PID.TID 0000.0001) %MON exf_swflux_min               =  -6.4142947168819E+01
(PID.TID 0000.0001) %MON exf_swflux_mean              =  -2.6548012965822E+01
(PID.TID 0000.0001) %MON exf_swflux_sd                =   1.9660442927159E+01
(PID.TID 0000.0001) %MON exf_swflux_del2              =   4.7997463106648E-01
(PID.TID 0000.0001) %MON exf_evap_max                 =   4.5345408489110E-08
(PID.TID 0000.0001) %MON exf_evap_min                 =  -4.2118523674700E-09
(PID.TID 0000.0001) %MON exf_evap_mean                =   1.0458011663888E-08
(PID.TID 0000.0001) %MON exf_evap_sd                  =   1.1076056166306E-08
(PID.TID 0000.0001) %MON exf_evap_del2                =   1.3338739227799E-09
(PID.TID 0000.0001) %MON exf_swdown_max               =   7.1269941298688E+01
(PID.TID 0000.0001) %MON exf_swdown_min               =   9.0231445969128E-02
(PID.TID 0000.0001) %MON exf_swdown_mean              =   2.9497792184247E+01
(PID.TID 0000.0001) %MON exf_swdown_sd                =   2.1844936585733E+01
(PID.TID 0000.0001) %MON exf_swdown_del2              =   5.3330514562942E-01
(PID.TID 0000.0001) %MON exf_lwdown_max               =   3.0560028326316E+02
(PID.TID 0000.0001) %MON exf_lwdown_min               =   1.1586173020035E+02
(PID.TID 0000.0001) %MON exf_lwdown_mean              =   2.2580795099755E+02
(PID.TID 0000.0001) %MON exf_lwdown_sd                =   4.6313195660870E+01
(PID.TID 0000.0001) %MON exf_lwdown_del2              =   3.2439260573465E+00
(PID.TID 0000.0001) %MON exf_apressure_max            =   0.0000000000000E+00
(PID.TID 0000.0001) %MON exf_apressure_min            =   0.0000000000000E+00
(PID.TID 0000.0001) %MON exf_apressure_mean           =   0.0000000000000E+00
(PID.TID 0000.0001) %MON exf_apressure_sd             =   0.0000000000000E+00
(PID.TID 0000.0001) %MON exf_apressure_del2           =   0.0000000000000E+00
(PID.TID 0000.0001) %MON exf_runoff_max               =   0.0000000000000E+00
(PID.TID 0000.0001) %MON exf_runoff_min               =   0.0000000000000E+00
(PID.TID 0000.0001) %MON exf_runoff_mean              =   0.0000000000000E+00
(PID.TID 0000.0001) %MON exf_runoff_sd                =   0.0000000000000E+00
(PID.TID 0000.0001) %MON exf_runoff_del2              =   0.0000000000000E+00
(PID.TID 0000.0001) %MON exf_climsst_max              =   0.0000000000000E+00
(PID.TID 0000.0001) %MON exf_climsst_min              =   0.0000000000000E+00
(PID.TID 0000.0001) %MON exf_climsst_mean             =   0.0000000000000E+00
(PID.TID 0000.0001) %MON exf_climsst_sd               =   0.0000000000000E+00
(PID.TID 0000.0001) %MON exf_climsst_del2             =   0.0000000000000E+00
(PID.TID 0000.0001) %MON exf_climsss_max              =   3.5041993610194E+01
(PID.TID 0000.0001) %MON exf_climsss_min              =   3.0673147123368E+01
(PID.TID 0000.0001) %MON exf_climsss_mean             =   3.3464011602304E+01
(PID.TID 0000.0001) %MON exf_climsss_sd               =   1.0313181272348E+00
(PID.TID 0000.0001) %MON exf_climsss_del2             =   1.0003889784787E-01
(PID.TID 0000.0001) // =======================================================
(PID.TID 0000.0001) // End MONITOR EXF statistics
(PID.TID 0000.0001) // =======================================================
 ph-ice B  9  0.  0.  0.
 ph-ice C  9  5.08667606E+11
 cg2d: Sum(rhs),rhsMax =   2.90785062487253E-08  1.15038865690916E+00
(PID.TID 0000.0001) // =======================================================
(PID.TID 0000.0001) // Begin MONITOR SEAICE statistics
(PID.TID 0000.0001) // =======================================================
(PID.TID 0000.0001) %MON seaice_tsnumber              =                    10
(PID.TID 0000.0001) %MON seaice_time_sec              =   3.6000000000000E+04
(PID.TID 0000.0001) %MON seaice_uice_max              =   2.6070669380701E-01
(PID.TID 0000.0001) %MON seaice_uice_min              =  -7.4569485539494E-02
(PID.TID 0000.0001) %MON seaice_uice_mean             =   5.6947557484762E-02
(PID.TID 0000.0001) %MON seaice_uice_sd               =   7.3693890444908E-02
(PID.TID 0000.0001) %MON seaice_uice_del2             =   6.9822308660200E-03
(PID.TID 0000.0001) %MON seaice_vice_max              =   7.2855153885514E-02
(PID.TID 0000.0001) %MON seaice_vice_min              =  -1.8167527169764E-01
(PID.TID 0000.0001) %MON seaice_vice_mean             =  -5.2953407696339E-02
(PID.TID 0000.0001) %MON seaice_vice_sd               =   5.6405642257463E-02
(PID.TID 0000.0001) %MON seaice_vice_del2             =   6.8591510421472E-03
(PID.TID 0000.0001) %MON seaice_area_max              =   1.0000000000000E+00
(PID.TID 0000.0001) %MON seaice_area_min              =   0.0000000000000E+00
(PID.TID 0000.0001) %MON seaice_area_mean             =   6.2310743728462E-01
(PID.TID 0000.0001) %MON seaice_area_sd               =   4.5675715948245E-01
(PID.TID 0000.0001) %MON seaice_area_del2             =   5.3102397820719E-02
(PID.TID 0000.0001) %MON seaice_heff_max              =   5.4914440244195E-01
(PID.TID 0000.0001) %MON seaice_heff_min              =   0.0000000000000E+00
(PID.TID 0000.0001) %MON seaice_heff_mean             =   1.4182064200595E-01
(PID.TID 0000.0001) %MON seaice_heff_sd               =   1.7482810779911E-01
(PID.TID 0000.0001) %MON seaice_heff_del2             =   1.3170078229148E-02
(PID.TID 0000.0001) %MON seaice_hsnow_max             =   2.0785054838239E-01
(PID.TID 0000.0001) %MON seaice_hsnow_min             =   0.0000000000000E+00
(PID.TID 0000.0001) %MON seaice_hsnow_mean            =   1.1901259285744E-01
(PID.TID 0000.0001) %MON seaice_hsnow_sd              =   9.7627028706551E-02
(PID.TID 0000.0001) %MON seaice_hsnow_del2            =   6.6467676957751E-03
(PID.TID 0000.0001) // =======================================================
(PID.TID 0000.0001) // End MONITOR SEAICE statistics
(PID.TID 0000.0001) // =======================================================
(PID.TID 0000.0001)  MDS_READ_FIELD: opening file: xx_atemp.0000000000.001.001.data
(PID.TID 0000.0001)  MDS_READ_FIELD: opening file: xx_atemp.0000000000.001.001.data
(PID.TID 0000.0001)  MDS_READ_FIELD: opening file: xx_atemp.0000000000.001.001.data
(PID.TID 0000.0001)  MDS_READ_FIELD: opening file: xx_atemp.0000000000.001.001.data
(PID.TID 0000.0001)  MDS_READ_FIELD: opening file: xx_aqh.0000000000.001.001.data
(PID.TID 0000.0001)  MDS_READ_FIELD: opening file: xx_aqh.0000000000.001.001.data
(PID.TID 0000.0001)  MDS_READ_FIELD: opening file: xx_aqh.0000000000.001.001.data
(PID.TID 0000.0001)  MDS_READ_FIELD: opening file: xx_aqh.0000000000.001.001.data
(PID.TID 0000.0001)  MDS_READ_FIELD: opening file: xx_uwind.0000000000.001.001.data
(PID.TID 0000.0001)  MDS_READ_FIELD: opening file: xx_uwind.0000000000.001.001.data
(PID.TID 0000.0001)  MDS_READ_FIELD: opening file: xx_uwind.0000000000.001.001.data
(PID.TID 0000.0001)  MDS_READ_FIELD: opening file: xx_uwind.0000000000.001.001.data
(PID.TID 0000.0001)  MDS_READ_FIELD: opening file: xx_vwind.0000000000.001.001.data
(PID.TID 0000.0001)  MDS_READ_FIELD: opening file: xx_vwind.0000000000.001.001.data
(PID.TID 0000.0001)  MDS_READ_FIELD: opening file: xx_vwind.0000000000.001.001.data
(PID.TID 0000.0001)  MDS_READ_FIELD: opening file: xx_vwind.0000000000.001.001.data
(PID.TID 0000.0001)  MDS_READ_FIELD: opening file: xx_precip.0000000000.001.001.data
(PID.TID 0000.0001)  MDS_READ_FIELD: opening file: xx_precip.0000000000.001.001.data
(PID.TID 0000.0001)  MDS_READ_FIELD: opening file: xx_precip.0000000000.001.001.data
(PID.TID 0000.0001)  MDS_READ_FIELD: opening file: xx_precip.0000000000.001.001.data
(PID.TID 0000.0001)  MDS_READ_FIELD: opening file: xx_swdown.0000000000.001.001.data
(PID.TID 0000.0001)  MDS_READ_FIELD: opening file: xx_swdown.0000000000.001.001.data
(PID.TID 0000.0001)  MDS_READ_FIELD: opening file: xx_swdown.0000000000.001.001.data
(PID.TID 0000.0001)  MDS_READ_FIELD: opening file: xx_swdown.0000000000.001.001.data
(PID.TID 0000.0001)  MDS_READ_FIELD: opening file: xx_lwdown.0000000000.001.001.data
(PID.TID 0000.0001)  MDS_READ_FIELD: opening file: xx_lwdown.0000000000.001.001.data
(PID.TID 0000.0001)  MDS_READ_FIELD: opening file: xx_lwdown.0000000000.001.001.data
(PID.TID 0000.0001)  MDS_READ_FIELD: opening file: xx_lwdown.0000000000.001.001.data
(PID.TID 0000.0001)  MDS_READ_FIELD: opening file: xx_snowprecip.0000000000.001.001.data
(PID.TID 0000.0001)  MDS_READ_FIELD: opening file: xx_snowprecip.0000000000.001.001.data
(PID.TID 0000.0001)  MDS_READ_FIELD: opening file: xx_snowprecip.0000000000.001.001.data
(PID.TID 0000.0001)  MDS_READ_FIELD: opening file: xx_snowprecip.0000000000.001.001.data
(PID.TID 0000.0001)  MDS_READ_FIELD: opening file: xx_apressure.0000000000.001.001.data
(PID.TID 0000.0001)  MDS_READ_FIELD: opening file: xx_apressure.0000000000.001.001.data
(PID.TID 0000.0001)  MDS_READ_FIELD: opening file: xx_apressure.0000000000.001.001.data
(PID.TID 0000.0001)  MDS_READ_FIELD: opening file: xx_apressure.0000000000.001.001.data
(PID.TID 0000.0001)  MDS_READ_FIELD: opening file: psbar.0000000000.001.001.data
(PID.TID 0000.0001)  cost_ssh: offset_sum =  0.710000000000000E+02
(PID.TID 0000.0001)  MDS_READ_FIELD: opening file: psbar.0000000000.001.001.data
(PID.TID 0000.0001) ph-cost call cost_sst
(PID.TID 0000.0001)  MDS_READ_FIELD: opening file: tbar.0000000000.001.001.data
(PID.TID 0000.0001) ph-cost call cost_theta
(PID.TID 0000.0001)  MDS_READ_FIELD: opening file: tbar.0000000000.001.001.data
(PID.TID 0000.0001) ph-cost call cost_salt
(PID.TID 0000.0001)  MDS_READ_FIELD: opening file: sbar.0000000000.001.001.data
(PID.TID 0000.0001) ph-cost call cost_smrarea
(PID.TID 0000.0001) ph-cost smrarea   0.0000000000E+00  0.0000000000E+00
 --> f_ice     = 0.508667605603471E+12
 --> f_smrarea = 0.000000000000000E+00
 --> f_temp    = 0.000000000000000E+00
 --> f_salt    = 0.000000000000000E+00
 --> f_temp0   = 0.000000000000000E+00
 --> f_salt0   = 0.000000000000000E+00
 --> f_temp0smoo = 0.000000000000000E+00
 --> f_salt0smoo = 0.000000000000000E+00
 --> f_sst     = 0.423905205989916E+04
 --> f_tmi     = 0.000000000000000E+00
 --> f_sss     = 0.000000000000000E+00
 --> f_ssh       = 0.000000000000000E+00
 --> f_tp        = 0.000000000000000E+00
 --> f_ers       = 0.000000000000000E+00
 --> f_gfo       = 0.000000000000000E+00
 --> f_tauu    = 0.000000000000000E+00
 --> f_tauum   = 0.000000000000000E+00
 --> f_tauusmoo = 0.000000000000000E+00
 --> f_tauv    = 0.000000000000000E+00
 --> f_tauvm   = 0.000000000000000E+00
 --> f_tauvsmoo = 0.000000000000000E+00
 --> f_hflux   = 0.000000000000000E+00
 --> f_hfluxm  = 0.000000000000000E+00
 --> f_hfluxmm = 0.000000000000000E+00
 --> f_hfluxsmoo = 0.000000000000000E+00
 --> f_sflux   = 0.000000000000000E+00
 --> f_sfluxm  = 0.000000000000000E+00
 --> f_sfluxmm = 0.000000000000000E+00
 --> f_sfluxsmoo = 0.000000000000000E+00
 --> f_uwind     = 0.000000000000000E+00
 --> f_vwind     = 0.000000000000000E+00
 --> f_atemp     = 0.200000000000000E-07
 --> f_aqh     = 0.000000000000000E+00
 --> f_precip  = 0.000000000000000E+00
 --> f_swflux  = 0.000000000000000E+00
 --> f_swdown  = 0.000000000000000E+00
 --> f_uwindm     = 0.000000000000000E+00
 --> f_vwindm     = 0.000000000000000E+00
 --> f_atempm     = 0.250000000000000E-08
 --> f_aqhm     = 0.000000000000000E+00
 --> f_precipm  = 0.000000000000000E+00
 --> f_swfluxm  = 0.000000000000000E+00
 --> f_swdownm  = 0.000000000000000E+00
 --> f_uwindsmoo     = 0.000000000000000E+00
 --> f_vwindsmoo     = 0.000000000000000E+00
 --> f_atempsmoo     = 0.000000000000000E+00
 --> f_aqhsmoo     = 0.000000000000000E+00
 --> f_precipsmoo  = 0.000000000000000E+00
 --> f_swfluxsmoo  = 0.000000000000000E+00
 --> f_swdownsmoo  = 0.000000000000000E+00
 --> f_atl     = 0.000000000000000E+00
 --> f_ctdt    = 0.000000000000000E+00
 --> f_ctds    = 0.000000000000000E+00
 --> f_ctdtclim= 0.000000000000000E+00
 --> f_ctdsclim= 0.000000000000000E+00
 --> f_xbt     = 0.000000000000000E+00
 --> f_argot   = 0.000000000000000E+00
 --> f_argos   = 0.000000000000000E+00
 --> f_drifter   = 0.000000000000000E+00
 --> f_tdrift  = 0.000000000000000E+00
 --> f_sdrift  = 0.000000000000000E+00
 --> f_wdrift  = 0.000000000000000E+00
 --> f_scatx   = 0.000000000000000E+00
 --> f_scaty   = 0.000000000000000E+00
 --> f_scatxm  = 0.000000000000000E+00
 --> f_scatym  = 0.000000000000000E+00
 --> f_obcsn   = 0.000000000000000E+00
 --> f_obcss   = 0.000000000000000E+00
 --> f_obcsw   = 0.000000000000000E+00
 --> f_obcse   = 0.000000000000000E+00
 --> f_ageos   = 0.000000000000000E+00
 --> f_curmtr  = 0.000000000000000E+00
 --> f_kapgm   = 0.000000000000000E+00
 --> f_diffkr  = 0.000000000000000E+00
 --> f_eddytau = 0.000000000000000E+00
 --> f_hfluxmm2           = 0.000000000000000E+00
 --> f_sfluxmm2           = 0.000000000000000E+00
 --> objf_hmean           = 0.920256474009242E-02
 --> fc               = 0.508667609842523E+12
 ph-check fcpertplus =   5.0866761E+11
(PID.TID 0000.0001)  MDS_READ_FIELD: opening file: xx_atemp.0000000000.001.001.data
 ph-check fcpertminus =   5.08667309E+11
(PID.TID 0000.0001)  MDS_READ_FIELD: opening file: xx_atemp.0000000000.001.001.data
(PID.TID 0000.0001) 
(PID.TID 0000.0001)  cal_TimeStamp: iter =          0 time =  0.00000000E+00
(PID.TID 0000.0001)                 date =   19790101           0
(PID.TID 0000.0001) 
(PID.TID 0000.0001) // =======================================================
(PID.TID 0000.0001) // Field Model R_low (ini_masks_etc) at iteration          1
(PID.TID 0000.0001) // CMIN =         -4.200000000000000E+03
(PID.TID 0000.0001) // CMAX =         -5.500000000000000E+01
(PID.TID 0000.0001) // CINT =          1.535185185185185E+02
(PID.TID 0000.0001) // SYMBOLS (CMIN->CMAX): -abcdefghijklmnopqrstuvwxyz+
(PID.TID 0000.0001) //                  0.0: .
(PID.TID 0000.0001) // RANGE I (Lo:Hi:Step):(  -2:  23:   1)
(PID.TID 0000.0001) // RANGE J (Lo:Hi:Step):(  19:  -2:  -1)
(PID.TID 0000.0001) // RANGE K (Lo:Hi:Step):(   1:   1:   1)
(PID.TID 0000.0001) // =======================================================
(PID.TID 0000.0001) K =   1
(PID.TID 0000.0001) //                I=7       I=17
(PID.TID 0000.0001) // |--J--|210123456|890123456|890123
(PID.TID 0000.0001) //     19 cc-..........+.zzxmgcc-...
(PID.TID 0000.0001) //     18 jc-.......+zzz..zzsmjc-...
(PID.TID 0000.0001) //     17 wc-........++z+++z+wwc-...
(PID.TID 0000.0001) //     16 ....zyyz................zy
(PID.TID 0000.0001) //     15 ...yxwwuspxyxz.........yxw
(PID.TID 0000.0001) //     14 ....+wwspppsxzz.........+w
(PID.TID 0000.0001) //     13 .......zwsppsyz...........
(PID.TID 0000.0001) //     12 .........+ypswzz+.........
(PID.TID 0000.0001) //     11 ...........+wwy+..........
(PID.TID 0000.0001) //     10 ..........zzzywy+.........
(PID.TID 0000.0001) //      9 ..z.......+zxsmmm+....z...
(PID.TID 0000.0001) //      8 ..s.....zzzxumjjjjuz..s...
(PID.TID 0000.0001) //      7 pmj......z.+zmjggggjpmj...
(PID.TID 0000.0001) //      6 ggg.........zxmjggggggg...
(PID.TID 0000.0001) //      5 ggg..........zzsjgggggg...
(PID.TID 0000.0001) //      4 ccg............zzmgcccg...
(PID.TID 0000.0001) //      3 cc-..........+.zzxmgcc-...
(PID.TID 0000.0001) //      2 jc-.......+zzz..zzsmjc-...
(PID.TID 0000.0001) //      1 wc-........++z+++z+wwc-...
(PID.TID 0000.0001) //      0 ....zyyz................zy
(PID.TID 0000.0001) //     -1 ...yxwwuspxyxz.........yxw
(PID.TID 0000.0001) //     -2 ....+wwspppsxzz.........+w
(PID.TID 0000.0001) // =======================================================
(PID.TID 0000.0001) // END OF FIELD                                          =
(PID.TID 0000.0001) // =======================================================
(PID.TID 0000.0001) 
(PID.TID 0000.0001) // =======================================================
(PID.TID 0000.0001) // Field Model Ro_surf (ini_masks_etc) at iteration          1
(PID.TID 0000.0001) // CMIN =          1.000000000000000E+32
(PID.TID 0000.0001) // CMAX =         -1.000000000000000E+32
(PID.TID 0000.0001) // CINT =          0.000000000000000E+00
(PID.TID 0000.0001) // SYMBOLS (CMIN->CMAX): -abcdefghijklmnopqrstuvwxyz+
(PID.TID 0000.0001) //                  0.0: .
(PID.TID 0000.0001) // RANGE I (Lo:Hi:Step):(  -2:  23:   1)
(PID.TID 0000.0001) // RANGE J (Lo:Hi:Step):(  19:  -2:  -1)
(PID.TID 0000.0001) // RANGE K (Lo:Hi:Step):(   1:   1:   1)
(PID.TID 0000.0001) // =======================================================
(PID.TID 0000.0001) // =======================================================
(PID.TID 0000.0001) // END OF FIELD                                          =
(PID.TID 0000.0001) // =======================================================
(PID.TID 0000.0001) 
(PID.TID 0000.0001) // =======================================================
(PID.TID 0000.0001) // Field hFacC at iteration          1
(PID.TID 0000.0001) // CMIN =          1.000000000000000E+00
(PID.TID 0000.0001) // CMAX =          1.000000000000000E+00
(PID.TID 0000.0001) // CINT =          0.000000000000000E+00
(PID.TID 0000.0001) // SYMBOLS (CMIN->CMAX): -abcdefghijklmnopqrstuvwxyz+
(PID.TID 0000.0001) //                  0.0: .
(PID.TID 0000.0001) // RANGE I (Lo:Hi:Step):(  -2:  23:   1)
(PID.TID 0000.0001) // RANGE J (Lo:Hi:Step):(  19:  -2:  -1)
(PID.TID 0000.0001) // RANGE K (Lo:Hi:Step):(   1:   1:   1)
(PID.TID 0000.0001) // =======================================================
(PID.TID 0000.0001) // =======================================================
(PID.TID 0000.0001) // END OF FIELD                                          =
(PID.TID 0000.0001) // =======================================================
(PID.TID 0000.0001) 
(PID.TID 0000.0001) // =======================================================
(PID.TID 0000.0001) // Field hFacW at iteration          1
(PID.TID 0000.0001) // CMIN =          1.000000000000000E+00
(PID.TID 0000.0001) // CMAX =          1.000000000000000E+00
(PID.TID 0000.0001) // CINT =          0.000000000000000E+00
(PID.TID 0000.0001) // SYMBOLS (CMIN->CMAX): -abcdefghijklmnopqrstuvwxyz+
(PID.TID 0000.0001) //                  0.0: .
(PID.TID 0000.0001) // RANGE I (Lo:Hi:Step):(  -2:  23:   1)
(PID.TID 0000.0001) // RANGE J (Lo:Hi:Step):(  19:  -2:  -1)
(PID.TID 0000.0001) // RANGE K (Lo:Hi:Step):(   1:   1:   1)
(PID.TID 0000.0001) // =======================================================
(PID.TID 0000.0001) // =======================================================
(PID.TID 0000.0001) // END OF FIELD                                          =
(PID.TID 0000.0001) // =======================================================
(PID.TID 0000.0001) 
(PID.TID 0000.0001) // =======================================================
(PID.TID 0000.0001) // Field hFacS at iteration          1
(PID.TID 0000.0001) // CMIN =          1.000000000000000E+00
(PID.TID 0000.0001) // CMAX =          1.000000000000000E+00
(PID.TID 0000.0001) // CINT =          0.000000000000000E+00
(PID.TID 0000.0001) // SYMBOLS (CMIN->CMAX): -abcdefghijklmnopqrstuvwxyz+
(PID.TID 0000.0001) //                  0.0: .
(PID.TID 0000.0001) // RANGE I (Lo:Hi:Step):(  -2:  23:   1)
(PID.TID 0000.0001) // RANGE J (Lo:Hi:Step):(  19:  -2:  -1)
(PID.TID 0000.0001) // RANGE K (Lo:Hi:Step):(   1:   1:   1)
(PID.TID 0000.0001) // =======================================================
(PID.TID 0000.0001) // =======================================================
(PID.TID 0000.0001) // END OF FIELD                                          =
(PID.TID 0000.0001) // =======================================================
(PID.TID 0000.0001) 
(PID.TID 0000.0001) %MON seaicefCori_max              =   1.4210453727344E-04
(PID.TID 0000.0001) %MON seaicefCori_min              =   1.0666243053630E-04
(PID.TID 0000.0001) %MON seaicefCori_mean             =   1.2711058365303E-04
(PID.TID 0000.0001) %MON seaicefCori_sd               =   1.1031533875266E-05
(PID.TID 0000.0001) %MON seaicefCoriG_max             =   1.4151032568025E-04
(PID.TID 0000.0001) %MON seaicefCoriG_min             =   1.0491029349513E-04
(PID.TID 0000.0001) %MON seaicefCoriG_mean            =   1.2591168756569E-04
(PID.TID 0000.0001) %MON seaicefCoriG_sd              =   1.1383815633153E-05
(PID.TID 0000.0001) %MON seaicefCoriCos_max           =   9.9464325599212E-05
(PID.TID 0000.0001) %MON seaicefCoriCos_min           =   3.2807417471054E-05
(PID.TID 0000.0001) %MON seaicefCoriCos_mean          =   6.7585896192312E-05
(PID.TID 0000.0001) %MON seaicefCoriCos_sd            =   2.0576140902612E-05
(PID.TID 0000.0001) INI_CG2D: CG2D normalisation factor =  1.6094939840939192E-04
(PID.TID 0000.0001) 
(PID.TID 0000.0001) // =======================================================
(PID.TID 0000.0001) // Field Initial Temperature at iteration          1
(PID.TID 0000.0001) // CMIN =          9.205863475799561E-01
(PID.TID 0000.0001) // CMAX =          1.333307647705078E+01
(PID.TID 0000.0001) // CINT =          4.597218566470676E-01
(PID.TID 0000.0001) // SYMBOLS (CMIN->CMAX): -abcdefghijklmnopqrstuvwxyz+
(PID.TID 0000.0001) //                  0.0: .
(PID.TID 0000.0001) // RANGE I (Lo:Hi:Step):(   1:  20:   1)
(PID.TID 0000.0001) // RANGE J (Lo:Hi:Step):(  16:   1:  -1)
(PID.TID 0000.0001) // RANGE K (Lo:Hi:Step):(   1:   1:   1)
(PID.TID 0000.0001) // =======================================================
(PID.TID 0000.0001) K =   1
(PID.TID 0000.0001)                I=10      I=20
(PID.TID 0000.0001) |--J--|123456789|123456789|
(PID.TID 0000.0001)     16 .----...............
(PID.TID 0000.0001)     15 aabaaaaaaaa.........
(PID.TID 0000.0001)     14 .ccccccbbbbc........
(PID.TID 0000.0001)     13 ....dddddddd........
(PID.TID 0000.0001)     12 ......dcdddddd......
(PID.TID 0000.0001)     11 ........cccdd.......
(PID.TID 0000.0001)     10 .......bbcdddd......
(PID.TID 0000.0001)      9 .......cdeeffff....j
(PID.TID 0000.0001)      8 .....ccdefgghhggh..k
(PID.TID 0000.0001)      7 ......d.fghiiiiiijkl
(PID.TID 0000.0001)      6 .........ghhijjjkklm
(PID.TID 0000.0001)      5 ..........hhhijklmnn
(PID.TID 0000.0001)      4 ............ghikmopq
(PID.TID 0000.0001)      3 ..........k.hhiknqsu
(PID.TID 0000.0001)      2 .......oonm..ijknqux
(PID.TID 0000.0001)      1 ........qponlkklosw+
(PID.TID 0000.0001) // =======================================================
(PID.TID 0000.0001) // END OF FIELD                                          =
(PID.TID 0000.0001) // =======================================================
(PID.TID 0000.0001) 
(PID.TID 0000.0001) // =======================================================
(PID.TID 0000.0001) // Field Initial Salinity at iteration          1
(PID.TID 0000.0001) // CMIN =          3.012869834899902E+01
(PID.TID 0000.0001) // CMAX =          3.487366104125977E+01
(PID.TID 0000.0001) // CINT =          1.757393589726201E-01
(PID.TID 0000.0001) // SYMBOLS (CMIN->CMAX): -abcdefghijklmnopqrstuvwxyz+
(PID.TID 0000.0001) //                  0.0: .
(PID.TID 0000.0001) // RANGE I (Lo:Hi:Step):(   1:  20:   1)
(PID.TID 0000.0001) // RANGE J (Lo:Hi:Step):(  16:   1:  -1)
(PID.TID 0000.0001) // RANGE K (Lo:Hi:Step):(   1:   1:   1)
(PID.TID 0000.0001) // =======================================================
(PID.TID 0000.0001) K =   1
(PID.TID 0000.0001)                I=10      I=20
(PID.TID 0000.0001) |--J--|123456789|123456789|
(PID.TID 0000.0001)     16 .nnos...............
(PID.TID 0000.0001)     15 lnoppppppol.........
(PID.TID 0000.0001)     14 .nponmllllmn........
(PID.TID 0000.0001)     13 ....ljhijkmo........
(PID.TID 0000.0001)     12 ......ghjlmors......
(PID.TID 0000.0001)     11 ........jmnpr.......
(PID.TID 0000.0001)     10 .......jlnpqrq......
(PID.TID 0000.0001)      9 .......noqsttts....w
(PID.TID 0000.0001)      8 .....jlnpsuvwwutu..x
(PID.TID 0000.0001)      7 ......j.rruwxyxxwxxy
(PID.TID 0000.0001)      6 .........ppruxyyzzzz
(PID.TID 0000.0001)      5 ..........ijoswyzzzz
(PID.TID 0000.0001)      4 ............iotwyzzz
(PID.TID 0000.0001)      3 ..........g.imquwyzz
(PID.TID 0000.0001)      2 .......-bef..knqtvxz
(PID.TID 0000.0001)      1 ........-cegijlosvy+
(PID.TID 0000.0001) // =======================================================
(PID.TID 0000.0001) // END OF FIELD                                          =
(PID.TID 0000.0001) // =======================================================
(PID.TID 0000.0001) 
(PID.TID 0000.0001) Start initial hydrostatic pressure computation
(PID.TID 0000.0001) Pressure is predetermined for buoyancyRelation OCEANIC
(PID.TID 0000.0001) 
(PID.TID 0000.0001)  MDS_READ_FIELD: opening file: xx_theta.0000000000.001.001.data
 ph-ctrl theta0 a   0.
 ph-ctrl theta0 b   0.
(PID.TID 0000.0001)  MDS_READ_FIELD: opening file: xx_salt.0000000000.001.001.data
(PID.TID 0000.0001) // =======================================================
(PID.TID 0000.0001) // Model current state
(PID.TID 0000.0001) // =======================================================
(PID.TID 0000.0001) 
(PID.TID 0000.0001) // =======================================================
(PID.TID 0000.0001) // Begin MONITOR SEAICE statistics
(PID.TID 0000.0001) // =======================================================
(PID.TID 0000.0001) %MON seaice_tsnumber              =                     0
(PID.TID 0000.0001) %MON seaice_time_sec              =   0.0000000000000E+00
(PID.TID 0000.0001) %MON seaice_uice_max              =   0.0000000000000E+00
(PID.TID 0000.0001) %MON seaice_uice_min              =   0.0000000000000E+00
(PID.TID 0000.0001) %MON seaice_uice_mean             =   0.0000000000000E+00
(PID.TID 0000.0001) %MON seaice_uice_sd               =   0.0000000000000E+00
(PID.TID 0000.0001) %MON seaice_uice_del2             =   0.0000000000000E+00
(PID.TID 0000.0001) %MON seaice_vice_max              =   0.0000000000000E+00
(PID.TID 0000.0001) %MON seaice_vice_min              =   0.0000000000000E+00
(PID.TID 0000.0001) %MON seaice_vice_mean             =   0.0000000000000E+00
(PID.TID 0000.0001) %MON seaice_vice_sd               =   0.0000000000000E+00
(PID.TID 0000.0001) %MON seaice_vice_del2             =   0.0000000000000E+00
(PID.TID 0000.0001) %MON seaice_area_max              =   1.0000000000000E+00
(PID.TID 0000.0001) %MON seaice_area_min              =   1.0000000000000E+00
(PID.TID 0000.0001) %MON seaice_area_mean             =   1.0000000000000E+00
(PID.TID 0000.0001) %MON seaice_area_sd               =   0.0000000000000E+00
(PID.TID 0000.0001) %MON seaice_area_del2             =   0.0000000000000E+00
(PID.TID 0000.0001) %MON seaice_heff_max              =   1.0000000000000E+00
(PID.TID 0000.0001) %MON seaice_heff_min              =   1.0000000000000E+00
(PID.TID 0000.0001) %MON seaice_heff_mean             =   1.0000000000000E+00
(PID.TID 0000.0001) %MON seaice_heff_sd               =   0.0000000000000E+00
(PID.TID 0000.0001) %MON seaice_heff_del2             =   0.0000000000000E+00
(PID.TID 0000.0001) %MON seaice_hsnow_max             =   2.0000000298023E-01
(PID.TID 0000.0001) %MON seaice_hsnow_min             =   2.0000000298023E-01
(PID.TID 0000.0001) %MON seaice_hsnow_mean            =   2.0000000298023E-01
(PID.TID 0000.0001) %MON seaice_hsnow_sd              =   5.8286708792821E-16
(PID.TID 0000.0001) %MON seaice_hsnow_del2            =   0.0000000000000E+00
(PID.TID 0000.0001) // =======================================================
(PID.TID 0000.0001) // End MONITOR SEAICE statistics
(PID.TID 0000.0001) // =======================================================
(PID.TID 0000.0001)  MDS_READ_FIELD: opening file: xx_atemp.0000000000.001.001.data
(PID.TID 0000.0001)  MDS_READ_FIELD: opening file: xx_atemp.0000000000.001.001.data
(PID.TID 0000.0001)  MDS_READ_FIELD: opening file: xx_aqh.0000000000.001.001.data
(PID.TID 0000.0001)  MDS_READ_FIELD: opening file: xx_aqh.0000000000.001.001.data
(PID.TID 0000.0001)  MDS_READ_FIELD: opening file: xx_precip.0000000000.001.001.data
(PID.TID 0000.0001)  MDS_READ_FIELD: opening file: xx_precip.0000000000.001.001.data
(PID.TID 0000.0001)  MDS_READ_FIELD: opening file: xx_swdown.0000000000.001.001.data
(PID.TID 0000.0001)  MDS_READ_FIELD: opening file: xx_swdown.0000000000.001.001.data
(PID.TID 0000.0001)  MDS_READ_FIELD: opening file: xx_lwdown.0000000000.001.001.data
(PID.TID 0000.0001)  MDS_READ_FIELD: opening file: xx_lwdown.0000000000.001.001.data
(PID.TID 0000.0001)  MDS_READ_FIELD: opening file: xx_snowprecip.0000000000.001.001.data
(PID.TID 0000.0001)  MDS_READ_FIELD: opening file: xx_snowprecip.0000000000.001.001.data
(PID.TID 0000.0001)  MDS_READ_FIELD: opening file: xx_apressure.0000000000.001.001.data
(PID.TID 0000.0001)  MDS_READ_FIELD: opening file: xx_apressure.0000000000.001.001.data
(PID.TID 0000.0001)  MDS_READ_FIELD: opening file: xx_uwind.0000000000.001.001.data
(PID.TID 0000.0001)  MDS_READ_FIELD: opening file: xx_uwind.0000000000.001.001.data
(PID.TID 0000.0001)  MDS_READ_FIELD: opening file: xx_vwind.0000000000.001.001.data
(PID.TID 0000.0001)  MDS_READ_FIELD: opening file: xx_vwind.0000000000.001.001.data
(PID.TID 0000.0001) // =======================================================
(PID.TID 0000.0001) // Begin MONITOR EXF statistics
(PID.TID 0000.0001) // =======================================================
(PID.TID 0000.0001) %MON exf_tsnumber                 =                     0
(PID.TID 0000.0001) %MON exf_time_sec                 =   0.0000000000000E+00
(PID.TID 0000.0001) %MON exf_ustress_max              =   6.3903775845771E-02
(PID.TID 0000.0001) %MON exf_ustress_min              =  -9.5324050318348E-02
(PID.TID 0000.0001) %MON exf_ustress_mean             =   2.2585162591112E-02
(PID.TID 0000.0001) %MON exf_ustress_sd               =   2.7275780414072E-02
(PID.TID 0000.0001) %MON exf_ustress_del2             =   2.9464926336656E-03
(PID.TID 0000.0001) %MON exf_vstress_max              =   5.4708944127586E-02
(PID.TID 0000.0001) %MON exf_vstress_min              =  -6.2488440618747E-02
(PID.TID 0000.0001) %MON exf_vstress_mean             =  -5.6174742143666E-03
(PID.TID 0000.0001) %MON exf_vstress_sd               =   1.5596129846466E-02
(PID.TID 0000.0001) %MON exf_vstress_del2             =   1.7930354012150E-03
(PID.TID 0000.0001) %MON exf_hflux_max                =   7.3111020636161E+02
(PID.TID 0000.0001) %MON exf_hflux_min                =   1.0991726570245E+02
(PID.TID 0000.0001) %MON exf_hflux_mean               =   2.7655956145300E+02
(PID.TID 0000.0001) %MON exf_hflux_sd                 =   1.5872018365081E+02
(PID.TID 0000.0001) %MON exf_hflux_del2               =   1.9324676655133E+01
(PID.TID 0000.0001) %MON exf_sflux_max                =   5.3473262221640E-08
(PID.TID 0000.0001) %MON exf_sflux_min                =  -6.1385296755754E-08
(PID.TID 0000.0001) %MON exf_sflux_mean               =  -7.3062642466798E-09
(PID.TID 0000.0001) %MON exf_sflux_sd                 =   2.6562207480778E-08
(PID.TID 0000.0001) %MON exf_sflux_del2               =   3.6392853489216E-09
(PID.TID 0000.0001) %MON exf_uwind_max                =   6.4643745422363E+00
(PID.TID 0000.0001) %MON exf_uwind_min                =  -6.8372380733490E+00
(PID.TID 0000.0001) %MON exf_uwind_mean               =   2.7697727336031E+00
(PID.TID 0000.0001) %MON exf_uwind_sd                 =   2.9900402496951E+00
(PID.TID 0000.0001) %MON exf_uwind_del2               =   3.1570994739265E-01
(PID.TID 0000.0001) %MON exf_vwind_max                =   3.9240682125092E+00
(PID.TID 0000.0001) %MON exf_vwind_min                =  -6.0197033882141E+00
(PID.TID 0000.0001) %MON exf_vwind_mean               =  -7.6089868124963E-01
(PID.TID 0000.0001) %MON exf_vwind_sd                 =   1.7293437592941E+00
(PID.TID 0000.0001) %MON exf_vwind_del2               =   1.9333263882436E-01
(PID.TID 0000.0001) %MON exf_wspeed_max               =   7.8832820454477E+00
(PID.TID 0000.0001) %MON exf_wspeed_min               =   4.6035219539401E-01
(PID.TID 0000.0001) %MON exf_wspeed_mean              =   4.1981217095273E+00
(PID.TID 0000.0001) %MON exf_wspeed_sd                =   1.5991724245810E+00
(PID.TID 0000.0001) %MON exf_wspeed_del2              =   3.7693667977018E-01
(PID.TID 0000.0001) %MON exf_atemp_max                =   2.8188281250000E+02
(PID.TID 0000.0001) %MON exf_atemp_min                =   2.3646176910400E+02
(PID.TID 0000.0001) %MON exf_atemp_mean               =   2.6394605689467E+02
(PID.TID 0000.0001) %MON exf_atemp_sd                 =   1.1983416955253E+01
(PID.TID 0000.0001) %MON exf_atemp_del2               =   6.4942242667643E-01
(PID.TID 0000.0001) %MON exf_aqh_max                  =   6.3231729436666E-03
(PID.TID 0000.0001) %MON exf_aqh_min                  =   1.6369274817407E-04
(PID.TID 0000.0001) %MON exf_aqh_mean                 =   2.4803629101886E-03
(PID.TID 0000.0001) %MON exf_aqh_sd                   =   1.4265074770275E-03
(PID.TID 0000.0001) %MON exf_aqh_del2                 =   6.8141780599641E-05
(PID.TID 0000.0001) %MON exf_lwflux_max               =   1.9978966060501E+02
(PID.TID 0000.0001) %MON exf_lwflux_min               =   6.3304595803996E+01
(PID.TID 0000.0001) %MON exf_lwflux_mean              =   1.0410079899302E+02
(PID.TID 0000.0001) %MON exf_lwflux_sd                =   3.6519264181786E+01
(PID.TID 0000.0001) %MON exf_lwflux_del2              =   3.1286635970398E+00
(PID.TID 0000.0001) %MON exf_precip_max               =   1.0498766300771E-07
(PID.TID 0000.0001) %MON exf_precip_min               =   2.7359498694368E-10
(PID.TID 0000.0001) %MON exf_precip_mean              =   3.6390080543085E-08
(PID.TID 0000.0001) %MON exf_precip_sd                =   2.0578148171209E-08
(PID.TID 0000.0001) %MON exf_precip_del2              =   2.5551549857431E-09
(PID.TID 0000.0001) %MON exf_snowprecip_max           =   0.0000000000000E+00
(PID.TID 0000.0001) %MON exf_snowprecip_min           =   0.0000000000000E+00
(PID.TID 0000.0001) %MON exf_snowprecip_mean          =   0.0000000000000E+00
(PID.TID 0000.0001) %MON exf_snowprecip_sd            =   0.0000000000000E+00
(PID.TID 0000.0001) %MON exf_snowprecip_del2          =   0.0000000000000E+00
(PID.TID 0000.0001) %MON exf_swflux_max               =  -8.1205755472183E-02
(PID.TID 0000.0001) %MON exf_swflux_min               =  -6.3973114013672E+01
(PID.TID 0000.0001) %MON exf_swflux_mean              =  -2.6453223022948E+01
(PID.TID 0000.0001) %MON exf_swflux_sd                =   1.9625901079469E+01
(PID.TID 0000.0001) %MON exf_swflux_del2              =   4.7901276555285E-01
(PID.TID 0000.0001) %MON exf_evap_max                 =   5.9797470045733E-08
(PID.TID 0000.0001) %MON exf_evap_min                 =   1.0729148721654E-08
(PID.TID 0000.0001) %MON exf_evap_mean                =   2.9083816296405E-08
(PID.TID 0000.0001) %MON exf_evap_sd                  =   9.2938019162313E-09
(PID.TID 0000.0001) %MON exf_evap_del2                =   2.0154589379086E-09
(PID.TID 0000.0001) %MON exf_swdown_max               =   7.1081237792969E+01
(PID.TID 0000.0001) %MON exf_swdown_min               =   9.0228617191315E-02
(PID.TID 0000.0001) %MON exf_swdown_mean              =   2.9392470025498E+01
(PID.TID 0000.0001) %MON exf_swdown_sd                =   2.1806556754965E+01
(PID.TID 0000.0001) %MON exf_swdown_del2              =   5.3223640616983E-01
(PID.TID 0000.0001) %MON exf_lwdown_max               =   3.0567971801758E+02
(PID.TID 0000.0001) %MON exf_lwdown_min               =   1.1599769210815E+02
(PID.TID 0000.0001) %MON exf_lwdown_mean              =   2.2594931695913E+02
(PID.TID 0000.0001) %MON exf_lwdown_sd                =   4.6277429231296E+01
(PID.TID 0000.0001) %MON exf_lwdown_del2              =   3.2438212966919E+00
(PID.TID 0000.0001) %MON exf_apressure_max            =   0.0000000000000E+00
(PID.TID 0000.0001) %MON exf_apressure_min            =   0.0000000000000E+00
(PID.TID 0000.0001) %MON exf_apressure_mean           =   0.0000000000000E+00
(PID.TID 0000.0001) %MON exf_apressure_sd             =   0.0000000000000E+00
(PID.TID 0000.0001) %MON exf_apressure_del2           =   0.0000000000000E+00
(PID.TID 0000.0001) %MON exf_runoff_max               =   0.0000000000000E+00
(PID.TID 0000.0001) %MON exf_runoff_min               =   0.0000000000000E+00
(PID.TID 0000.0001) %MON exf_runoff_mean              =   0.0000000000000E+00
(PID.TID 0000.0001) %MON exf_runoff_sd                =   0.0000000000000E+00
(PID.TID 0000.0001) %MON exf_runoff_del2              =   0.0000000000000E+00
(PID.TID 0000.0001) %MON exf_climsst_max              =   0.0000000000000E+00
(PID.TID 0000.0001) %MON exf_climsst_min              =   0.0000000000000E+00
(PID.TID 0000.0001) %MON exf_climsst_mean             =   0.0000000000000E+00
(PID.TID 0000.0001) %MON exf_climsst_sd               =   0.0000000000000E+00
(PID.TID 0000.0001) %MON exf_climsst_del2             =   0.0000000000000E+00
(PID.TID 0000.0001) %MON exf_climsss_max              =   3.5040330886841E+01
(PID.TID 0000.0001) %MON exf_climsss_min              =   3.0666313171387E+01
(PID.TID 0000.0001) %MON exf_climsss_mean             =   3.3459319600989E+01
(PID.TID 0000.0001) %MON exf_climsss_sd               =   1.0319548925494E+00
(PID.TID 0000.0001) %MON exf_climsss_del2             =   1.0019396146139E-01
(PID.TID 0000.0001) // =======================================================
(PID.TID 0000.0001) // End MONITOR EXF statistics
(PID.TID 0000.0001) // =======================================================
 ph-ice B  0  0.  0.  0.
 ph-ice C  0  5.30354909E+10
 cg2d: Sum(rhs),rhsMax =   1.05818132034585E-15  9.93037467350620E-01
(PID.TID 0000.0001) // =======================================================
(PID.TID 0000.0001) // Begin MONITOR SEAICE statistics
(PID.TID 0000.0001) // =======================================================
(PID.TID 0000.0001) %MON seaice_tsnumber              =                     1
(PID.TID 0000.0001) %MON seaice_time_sec              =   3.6000000000000E+03
(PID.TID 0000.0001) %MON seaice_uice_max              =   1.1830188588838E-01
(PID.TID 0000.0001) %MON seaice_uice_min              =  -3.6947667601810E-02
(PID.TID 0000.0001) %MON seaice_uice_mean             =   4.6351011395841E-02
(PID.TID 0000.0001) %MON seaice_uice_sd               =   4.4551623876367E-02
(PID.TID 0000.0001) %MON seaice_uice_del2             =   2.6893939150909E-03
(PID.TID 0000.0001) %MON seaice_vice_max              =   3.8048078875392E-02
(PID.TID 0000.0001) %MON seaice_vice_min              =  -7.2208311040469E-02
(PID.TID 0000.0001) %MON seaice_vice_mean             =  -1.7212953413442E-02
(PID.TID 0000.0001) %MON seaice_vice_sd               =   2.7498420195410E-02
(PID.TID 0000.0001) %MON seaice_vice_del2             =   2.2712992187913E-03
(PID.TID 0000.0001) %MON seaice_area_max              =   1.0000000000000E+00
(PID.TID 0000.0001) %MON seaice_area_min              =   0.0000000000000E+00
(PID.TID 0000.0001) %MON seaice_area_mean             =   6.3240418008182E-01
(PID.TID 0000.0001) %MON seaice_area_sd               =   4.5166862134438E-01
(PID.TID 0000.0001) %MON seaice_area_del2             =   4.7454801422287E-02
(PID.TID 0000.0001) %MON seaice_heff_max              =   6.0076635272005E-01
(PID.TID 0000.0001) %MON seaice_heff_min              =   0.0000000000000E+00
(PID.TID 0000.0001) %MON seaice_heff_mean             =   1.4887451421175E-01
(PID.TID 0000.0001) %MON seaice_heff_sd               =   1.8287366826742E-01
(PID.TID 0000.0001) %MON seaice_heff_del2             =   1.0146605918607E-02
(PID.TID 0000.0001) %MON seaice_hsnow_max             =   2.0078474686707E-01
(PID.TID 0000.0001) %MON seaice_hsnow_min             =   0.0000000000000E+00
(PID.TID 0000.0001) %MON seaice_hsnow_mean            =   1.1848697056338E-01
(PID.TID 0000.0001) %MON seaice_hsnow_sd              =   9.6623972770983E-02
(PID.TID 0000.0001) %MON seaice_hsnow_del2            =   6.2688952170602E-03
(PID.TID 0000.0001) // =======================================================
(PID.TID 0000.0001) // End MONITOR SEAICE statistics
(PID.TID 0000.0001) // =======================================================
(PID.TID 0000.0001) // =======================================================
(PID.TID 0000.0001) // Begin MONITOR EXF statistics
(PID.TID 0000.0001) // =======================================================
(PID.TID 0000.0001) %MON exf_tsnumber                 =                     1
(PID.TID 0000.0001) %MON exf_time_sec                 =   3.6000000000000E+03
(PID.TID 0000.0001) %MON exf_ustress_max              =   5.2215336216899E-02
(PID.TID 0000.0001) %MON exf_ustress_min              =  -9.3781516255246E-02
(PID.TID 0000.0001) %MON exf_ustress_mean             =   1.7908667136599E-02
(PID.TID 0000.0001) %MON exf_ustress_sd               =   2.3677825827805E-02
(PID.TID 0000.0001) %MON exf_ustress_del2             =   2.8185936943940E-03
(PID.TID 0000.0001) %MON exf_vstress_max              =   5.3823846971061E-02
(PID.TID 0000.0001) %MON exf_vstress_min              =  -5.8521115502029E-02
(PID.TID 0000.0001) %MON exf_vstress_mean             =  -5.4709252842812E-03
(PID.TID 0000.0001) %MON exf_vstress_sd               =   1.4440702651639E-02
(PID.TID 0000.0001) %MON exf_vstress_del2             =   1.6942466375470E-03
(PID.TID 0000.0001) %MON exf_hflux_max                =   6.2467472133264E+02
(PID.TID 0000.0001) %MON exf_hflux_min                =  -5.4116825759641E+01
(PID.TID 0000.0001) %MON exf_hflux_mean               =   1.4693365185994E+02
(PID.TID 0000.0001) %MON exf_hflux_sd                 =   1.8156698528998E+02
(PID.TID 0000.0001) %MON exf_hflux_del2               =   1.6567547708346E+01
(PID.TID 0000.0001) %MON exf_sflux_max                =   3.9008935708334E-08
(PID.TID 0000.0001) %MON exf_sflux_min                =  -8.8902774357601E-08
(PID.TID 0000.0001) %MON exf_sflux_mean               =  -2.5876940647063E-08
(PID.TID 0000.0001) %MON exf_sflux_sd                 =   3.0537598392394E-08
(PID.TID 0000.0001) %MON exf_sflux_del2               =   3.1605976450935E-09
(PID.TID 0000.0001) %MON exf_uwind_max                =   6.4648819946852E+00
(PID.TID 0000.0001) %MON exf_uwind_min                =  -6.8372648550513E+00
(PID.TID 0000.0001) %MON exf_uwind_mean               =   2.7698802859476E+00
(PID.TID 0000.0001) %MON exf_uwind_sd                 =   2.9903162155877E+00
(PID.TID 0000.0001) %MON exf_uwind_del2               =   3.1571785161521E-01
(PID.TID 0000.0001) %MON exf_vwind_max                =   3.9240983933048E+00
(PID.TID 0000.0001) %MON exf_vwind_min                =  -6.0187974783892E+00
(PID.TID 0000.0001) %MON exf_vwind_mean               =  -7.6028090815952E-01
(PID.TID 0000.0001) %MON exf_vwind_sd                 =   1.7294518007626E+00
(PID.TID 0000.0001) %MON exf_vwind_del2               =   1.9332576748242E-01
(PID.TID 0000.0001) %MON exf_wspeed_max               =   7.8833202965791E+00
(PID.TID 0000.0001) %MON exf_wspeed_min               =   4.6010935417159E-01
(PID.TID 0000.0001) %MON exf_wspeed_mean              =   4.1982241536133E+00
(PID.TID 0000.0001) %MON exf_wspeed_sd                =   1.5994287774633E+00
(PID.TID 0000.0001) %MON exf_wspeed_del2              =   3.7699000842292E-01
(PID.TID 0000.0001) %MON exf_atemp_max                =   2.8188110034713E+02
(PID.TID 0000.0001) %MON exf_atemp_min                =   2.3645730413635E+02
(PID.TID 0000.0001) %MON exf_atemp_mean               =   2.6394141281326E+02
(PID.TID 0000.0001) %MON exf_atemp_sd                 =   1.1984877490314E+01
(PID.TID 0000.0001) %MON exf_atemp_del2               =   6.4944176100665E-01
(PID.TID 0000.0001) %MON exf_aqh_max                  =   6.3224764028055E-03
(PID.TID 0000.0001) %MON exf_aqh_min                  =   1.6359864467567E-04
(PID.TID 0000.0001) %MON exf_aqh_mean                 =   2.4798025537840E-03
(PID.TID 0000.0001) %MON exf_aqh_sd                   =   1.4264043737180E-03
(PID.TID 0000.0001) %MON exf_aqh_del2                 =   6.8128113038494E-05
(PID.TID 0000.0001) %MON exf_lwflux_max               =   1.8380784776361E+02
(PID.TID 0000.0001) %MON exf_lwflux_min               =   2.6472644798215E+01
(PID.TID 0000.0001) %MON exf_lwflux_mean              =   7.5350572632781E+01
(PID.TID 0000.0001) %MON exf_lwflux_sd                =   4.3134595524536E+01
(PID.TID 0000.0001) %MON exf_lwflux_del2              =   3.2390977067912E+00
(PID.TID 0000.0001) %MON exf_precip_max               =   1.0498904445033E-07
(PID.TID 0000.0001) %MON exf_precip_min               =   2.7346106047101E-10
(PID.TID 0000.0001) %MON exf_precip_mean              =   3.6390069699050E-08
(PID.TID 0000.0001) %MON exf_precip_sd                =   2.0578598603627E-08
(PID.TID 0000.0001) %MON exf_precip_del2              =   2.5556826789328E-09
(PID.TID 0000.0001) %MON exf_snowprecip_max           =   0.0000000000000E+00
(PID.TID 0000.0001) %MON exf_snowprecip_min           =   0.0000000000000E+00
(PID.TID 0000.0001) %MON exf_snowprecip_mean          =   0.0000000000000E+00
(PID.TID 0000.0001) %MON exf_snowprecip_sd            =   0.0000000000000E+00
(PID.TID 0000.0001) %MON exf_snowprecip_del2          =   0.0000000000000E+00
(PID.TID 0000.0001) %MON exf_swflux_max               =  -8.1206038349965E-02
(PID.TID 0000.0001) %MON exf_swflux_min               =  -6.3991984364244E+01
(PID.TID 0000.0001) %MON exf_swflux_mean              =  -2.6463755238823E+01
(PID.TID 0000.0001) %MON exf_swflux_sd                =   1.9629736696482E+01
(PID.TID 0000.0001) %MON exf_swflux_del2              =   4.7911963949881E-01
(PID.TID 0000.0001) %MON exf_evap_max                 =   4.5332480821497E-08
(PID.TID 0000.0001) %MON exf_evap_min                 =  -4.7524365011618E-09
(PID.TID 0000.0001) %MON exf_evap_mean                =   1.0513129051987E-08
(PID.TID 0000.0001) %MON exf_evap_sd                  =   1.1274582988814E-08
(PID.TID 0000.0001) %MON exf_evap_del2                =   1.3716109799500E-09
(PID.TID 0000.0001) %MON exf_swdown_max               =   7.1102204849160E+01
(PID.TID 0000.0001) %MON exf_swdown_min               =   9.0228931499961E-02
(PID.TID 0000.0001) %MON exf_swdown_mean              =   2.9404172487581E+01
(PID.TID 0000.0001) %MON exf_swdown_sd                =   2.1810818551646E+01
(PID.TID 0000.0001) %MON exf_swdown_del2              =   5.3235515499868E-01
(PID.TID 0000.0001) %MON exf_lwdown_max               =   3.0567089193375E+02
(PID.TID 0000.0001) %MON exf_lwdown_min               =   1.1598258522951E+02
(PID.TID 0000.0001) %MON exf_lwdown_mean              =   2.2593360963007E+02
(PID.TID 0000.0001) %MON exf_lwdown_sd                =   4.6281398610271E+01
(PID.TID 0000.0001) %MON exf_lwdown_del2              =   3.2438329367646E+00
(PID.TID 0000.0001) %MON exf_apressure_max            =   0.0000000000000E+00
(PID.TID 0000.0001) %MON exf_apressure_min            =   0.0000000000000E+00
(PID.TID 0000.0001) %MON exf_apressure_mean           =   0.0000000000000E+00
(PID.TID 0000.0001) %MON exf_apressure_sd             =   0.0000000000000E+00
(PID.TID 0000.0001) %MON exf_apressure_del2           =   0.0000000000000E+00
(PID.TID 0000.0001) %MON exf_runoff_max               =   0.0000000000000E+00
(PID.TID 0000.0001) %MON exf_runoff_min               =   0.0000000000000E+00
(PID.TID 0000.0001) %MON exf_runoff_mean              =   0.0000000000000E+00
(PID.TID 0000.0001) %MON exf_runoff_sd                =   0.0000000000000E+00
(PID.TID 0000.0001) %MON exf_runoff_del2              =   0.0000000000000E+00
(PID.TID 0000.0001) %MON exf_climsst_max              =   0.0000000000000E+00
(PID.TID 0000.0001) %MON exf_climsst_min              =   0.0000000000000E+00
(PID.TID 0000.0001) %MON exf_climsst_mean             =   0.0000000000000E+00
(PID.TID 0000.0001) %MON exf_climsst_sd               =   0.0000000000000E+00
(PID.TID 0000.0001) %MON exf_climsst_del2             =   0.0000000000000E+00
(PID.TID 0000.0001) %MON exf_climsss_max              =   3.5040515633880E+01
(PID.TID 0000.0001) %MON exf_climsss_min              =   3.0667072499385E+01
(PID.TID 0000.0001) %MON exf_climsss_mean             =   3.3459840934468E+01
(PID.TID 0000.0001) %MON exf_climsss_sd               =   1.0318832207269E+00
(PID.TID 0000.0001) %MON exf_climsss_del2             =   1.0017673217099E-01
(PID.TID 0000.0001) // =======================================================
(PID.TID 0000.0001) // End MONITOR EXF statistics
(PID.TID 0000.0001) // =======================================================
 ph-ice B  1  0.  0.  0.
 ph-ice C  1  1.03662085E+11
 cg2d: Sum(rhs),rhsMax =   9.71447922104574E-10  1.19254195625089E+00
(PID.TID 0000.0001) // =======================================================
(PID.TID 0000.0001) // Begin MONITOR SEAICE statistics
(PID.TID 0000.0001) // =======================================================
(PID.TID 0000.0001) %MON seaice_tsnumber              =                     2
(PID.TID 0000.0001) %MON seaice_time_sec              =   7.2000000000000E+03
(PID.TID 0000.0001) %MON seaice_uice_max              =   1.5575757117815E-01
(PID.TID 0000.0001) %MON seaice_uice_min              =  -8.0942741430966E-02
(PID.TID 0000.0001) %MON seaice_uice_mean             =   6.5168649829382E-02
(PID.TID 0000.0001) %MON seaice_uice_sd               =   6.1631643089350E-02
(PID.TID 0000.0001) %MON seaice_uice_del2             =   6.8706904523403E-03
(PID.TID 0000.0001) %MON seaice_vice_max              =   7.0616929390505E-02
(PID.TID 0000.0001) %MON seaice_vice_min              =  -1.3662299947234E-01
(PID.TID 0000.0001) %MON seaice_vice_mean             =  -2.1829812692631E-02
(PID.TID 0000.0001) %MON seaice_vice_sd               =   4.1312329526262E-02
(PID.TID 0000.0001) %MON seaice_vice_del2             =   5.3521934566396E-03
(PID.TID 0000.0001) %MON seaice_area_max              =   1.0000000000000E+00
(PID.TID 0000.0001) %MON seaice_area_min              =   0.0000000000000E+00
(PID.TID 0000.0001) %MON seaice_area_mean             =   6.2511455210173E-01
(PID.TID 0000.0001) %MON seaice_area_sd               =   4.5918073702415E-01
(PID.TID 0000.0001) %MON seaice_area_del2             =   5.3309150568192E-02
(PID.TID 0000.0001) %MON seaice_heff_max              =   5.5572638142240E-01
(PID.TID 0000.0001) %MON seaice_heff_min              =   0.0000000000000E+00
(PID.TID 0000.0001) %MON seaice_heff_mean             =   1.4211256278540E-01
(PID.TID 0000.0001) %MON seaice_heff_sd               =   1.7471336181798E-01
(PID.TID 0000.0001) %MON seaice_heff_del2             =   1.3300800072063E-02
(PID.TID 0000.0001) %MON seaice_hsnow_max             =   2.0156957952176E-01
(PID.TID 0000.0001) %MON seaice_hsnow_min             =   0.0000000000000E+00
(PID.TID 0000.0001) %MON seaice_hsnow_mean            =   1.1798259565184E-01
(PID.TID 0000.0001) %MON seaice_hsnow_sd              =   9.6675387962263E-02
(PID.TID 0000.0001) %MON seaice_hsnow_del2            =   6.3372971187471E-03
(PID.TID 0000.0001) // =======================================================
(PID.TID 0000.0001) // End MONITOR SEAICE statistics
(PID.TID 0000.0001) // =======================================================
(PID.TID 0000.0001) // =======================================================
(PID.TID 0000.0001) // Begin MONITOR EXF statistics
(PID.TID 0000.0001) // =======================================================
(PID.TID 0000.0001) %MON exf_tsnumber                 =                     2
(PID.TID 0000.0001) %MON exf_time_sec                 =   7.2000000000000E+03
(PID.TID 0000.0001) %MON exf_ustress_max              =   5.2234389551241E-02
(PID.TID 0000.0001) %MON exf_ustress_min              =  -9.3783873525021E-02
(PID.TID 0000.0001) %MON exf_ustress_mean             =   1.7912605147419E-02
(PID.TID 0000.0001) %MON exf_ustress_sd               =   2.3689568008736E-02
(PID.TID 0000.0001) %MON exf_ustress_del2             =   2.8175382038091E-03
(PID.TID 0000.0001) %MON exf_vstress_max              =   5.3825403016462E-02
(PID.TID 0000.0001) %MON exf_vstress_min              =  -5.8501907463670E-02
(PID.TID 0000.0001) %MON exf_vstress_mean             =  -5.4571890324320E-03
(PID.TID 0000.0001) %MON exf_vstress_sd               =   1.4439149139329E-02
(PID.TID 0000.0001) %MON exf_vstress_del2             =   1.6937326092935E-03
(PID.TID 0000.0001) %MON exf_hflux_max                =   6.2473671698450E+02
(PID.TID 0000.0001) %MON exf_hflux_min                =  -5.1856944043789E+01
(PID.TID 0000.0001) %MON exf_hflux_mean               =   1.4603892401771E+02
(PID.TID 0000.0001) %MON exf_hflux_sd                 =   1.8006278159601E+02
(PID.TID 0000.0001) %MON exf_hflux_del2               =   1.6304064602314E+01
(PID.TID 0000.0001) %MON exf_sflux_max                =   3.9010172880204E-08
(PID.TID 0000.0001) %MON exf_sflux_min                =  -8.8920778732677E-08
(PID.TID 0000.0001) %MON exf_sflux_mean               =  -2.5980919463018E-08
(PID.TID 0000.0001) %MON exf_sflux_sd                 =   3.0374070266639E-08
(PID.TID 0000.0001) %MON exf_sflux_del2               =   3.1602146628783E-09
(PID.TID 0000.0001) %MON exf_uwind_max                =   6.4653894471340E+00
(PID.TID 0000.0001) %MON exf_uwind_min                =  -6.8372916367536E+00
(PID.TID 0000.0001) %MON exf_uwind_mean               =   2.7699878382920E+00
(PID.TID 0000.0001) %MON exf_uwind_sd                 =   2.9905922217476E+00
(PID.TID 0000.0001) %MON exf_uwind_del2               =   3.1572575583776E-01
(PID.TID 0000.0001) %MON exf_vwind_max                =   3.9241285741003E+00
(PID.TID 0000.0001) %MON exf_vwind_min                =  -6.0178915685643E+00
(PID.TID 0000.0001) %MON exf_vwind_mean               =  -7.5966313506940E-01
(PID.TID 0000.0001) %MON exf_vwind_sd                 =   1.7295599554900E+00
(PID.TID 0000.0001) %MON exf_vwind_del2               =   1.9331889614049E-01
(PID.TID 0000.0001) %MON exf_wspeed_max               =   7.8833585477315E+00
(PID.TID 0000.0001) %MON exf_wspeed_min               =   4.5986651533145E-01
(PID.TID 0000.0001) %MON exf_wspeed_mean              =   4.1983267266652E+00
(PID.TID 0000.0001) %MON exf_wspeed_sd                =   1.5996852426804E+00
(PID.TID 0000.0001) %MON exf_wspeed_del2              =   3.7704333058266E-01
(PID.TID 0000.0001) %MON exf_atemp_max                =   2.8187938819427E+02
(PID.TID 0000.0001) %MON exf_atemp_min                =   2.3645283916869E+02
(PID.TID 0000.0001) %MON exf_atemp_mean               =   2.6393676873185E+02
(PID.TID 0000.0001) %MON exf_atemp_sd                 =   1.1986338513186E+01
(PID.TID 0000.0001) %MON exf_atemp_del2               =   6.4946109533687E-01
(PID.TID 0000.0001) %MON exf_aqh_max                  =   6.3217798619445E-03
(PID.TID 0000.0001) %MON exf_aqh_min                  =   1.6350454117726E-04
(PID.TID 0000.0001) %MON exf_aqh_mean                 =   2.4792421973794E-03
(PID.TID 0000.0001) %MON exf_aqh_sd                   =   1.4263013062694E-03
(PID.TID 0000.0001) %MON exf_aqh_del2                 =   6.8114445477348E-05
(PID.TID 0000.0001) %MON exf_lwflux_max               =   1.8153743597504E+02
(PID.TID 0000.0001) %MON exf_lwflux_min               =   2.6999313161451E+01
(PID.TID 0000.0001) %MON exf_lwflux_mean              =   7.5148003034002E+01
(PID.TID 0000.0001) %MON exf_lwflux_sd                =   4.2803183327689E+01
(PID.TID 0000.0001) %MON exf_lwflux_del2              =   3.2353096159742E+00
(PID.TID 0000.0001) %MON exf_precip_max               =   1.0499042589295E-07
(PID.TID 0000.0001) %MON exf_precip_min               =   2.7332713399833E-10
(PID.TID 0000.0001) %MON exf_precip_mean              =   3.6390058855016E-08
(PID.TID 0000.0001) %MON exf_precip_sd                =   2.0579049691733E-08
(PID.TID 0000.0001) %MON exf_precip_del2              =   2.5562103721225E-09
(PID.TID 0000.0001) %MON exf_snowprecip_max           =   0.0000000000000E+00
(PID.TID 0000.0001) %MON exf_snowprecip_min           =   0.0000000000000E+00
(PID.TID 0000.0001) %MON exf_snowprecip_mean          =   0.0000000000000E+00
(PID.TID 0000.0001) %MON exf_snowprecip_sd            =   0.0000000000000E+00
(PID.TID 0000.0001) %MON exf_snowprecip_del2          =   0.0000000000000E+00
(PID.TID 0000.0001) %MON exf_swflux_max               =  -8.1206321227746E-02
(PID.TID 0000.0001) %MON exf_swflux_min               =  -6.4010854714816E+01
(PID.TID 0000.0001) %MON exf_swflux_mean              =  -2.6474287454698E+01
(PID.TID 0000.0001) %MON exf_swflux_sd                =   1.9633572905820E+01
(PID.TID 0000.0001) %MON exf_swflux_del2              =   4.7922651344477E-01
(PID.TID 0000.0001) %MON exf_evap_max                 =   4.5333055282436E-08
(PID.TID 0000.0001) %MON exf_evap_min                 =  -4.3262573270113E-09
(PID.TID 0000.0001) %MON exf_evap_mean                =   1.0409139391998E-08
(PID.TID 0000.0001) %MON exf_evap_sd                  =   1.1101640223938E-08
(PID.TID 0000.0001) %MON exf_evap_del2                =   1.3339356355825E-09
(PID.TID 0000.0001) %MON exf_swdown_max               =   7.1123171905351E+01
(PID.TID 0000.0001) %MON exf_swdown_min               =   9.0229245808607E-02
(PID.TID 0000.0001) %MON exf_swdown_mean              =   2.9415874949665E+01
(PID.TID 0000.0001) %MON exf_swdown_sd                =   2.1815081006466E+01
(PID.TID 0000.0001) %MON exf_swdown_del2              =   5.3247390382752E-01
(PID.TID 0000.0001) %MON exf_lwdown_max               =   3.0566206584993E+02
(PID.TID 0000.0001) %MON exf_lwdown_min               =   1.1596747835086E+02
(PID.TID 0000.0001) %MON exf_lwdown_mean              =   2.2591790230100E+02
(PID.TID 0000.0001) %MON exf_lwdown_sd                =   4.6285369157136E+01
(PID.TID 0000.0001) %MON exf_lwdown_del2              =   3.2438445768374E+00
(PID.TID 0000.0001) %MON exf_apressure_max            =   0.0000000000000E+00
(PID.TID 0000.0001) %MON exf_apressure_min            =   0.0000000000000E+00
(PID.TID 0000.0001) %MON exf_apressure_mean           =   0.0000000000000E+00
(PID.TID 0000.0001) %MON exf_apressure_sd             =   0.0000000000000E+00
(PID.TID 0000.0001) %MON exf_apressure_del2           =   0.0000000000000E+00
(PID.TID 0000.0001) %MON exf_runoff_max               =   0.0000000000000E+00
(PID.TID 0000.0001) %MON exf_runoff_min               =   0.0000000000000E+00
(PID.TID 0000.0001) %MON exf_runoff_mean              =   0.0000000000000E+00
(PID.TID 0000.0001) %MON exf_runoff_sd                =   0.0000000000000E+00
(PID.TID 0000.0001) %MON exf_runoff_del2              =   0.0000000000000E+00
(PID.TID 0000.0001) %MON exf_climsst_max              =   0.0000000000000E+00
(PID.TID 0000.0001) %MON exf_climsst_min              =   0.0000000000000E+00
(PID.TID 0000.0001) %MON exf_climsst_mean             =   0.0000000000000E+00
(PID.TID 0000.0001) %MON exf_climsst_sd               =   0.0000000000000E+00
(PID.TID 0000.0001) %MON exf_climsst_del2             =   0.0000000000000E+00
(PID.TID 0000.0001) %MON exf_climsss_max              =   3.5040700380919E+01
(PID.TID 0000.0001) %MON exf_climsss_min              =   3.0667831827383E+01
(PID.TID 0000.0001) %MON exf_climsss_mean             =   3.3460362267948E+01
(PID.TID 0000.0001) %MON exf_climsss_sd               =   1.0318117788237E+00
(PID.TID 0000.0001) %MON exf_climsss_del2             =   1.0015950288060E-01
(PID.TID 0000.0001) // =======================================================
(PID.TID 0000.0001) // End MONITOR EXF statistics
(PID.TID 0000.0001) // =======================================================
 ph-ice B  2  0.  0.  0.
 ph-ice C  2  1.54286126E+11
 cg2d: Sum(rhs),rhsMax =  -4.69102093975104E-10  1.21345933340378E+00
(PID.TID 0000.0001) // =======================================================
(PID.TID 0000.0001) // Begin MONITOR SEAICE statistics
(PID.TID 0000.0001) // =======================================================
(PID.TID 0000.0001) %MON seaice_tsnumber              =                     3
(PID.TID 0000.0001) %MON seaice_time_sec              =   1.0800000000000E+04
(PID.TID 0000.0001) %MON seaice_uice_max              =   1.7677554871743E-01
(PID.TID 0000.0001) %MON seaice_uice_min              =  -9.9473388719800E-02
(PID.TID 0000.0001) %MON seaice_uice_mean             =   7.5385002311559E-02
(PID.TID 0000.0001) %MON seaice_uice_sd               =   7.1157132817779E-02
(PID.TID 0000.0001) %MON seaice_uice_del2             =   8.3170545266718E-03
(PID.TID 0000.0001) %MON seaice_vice_max              =   8.9019948729084E-02
(PID.TID 0000.0001) %MON seaice_vice_min              =  -1.7696029803712E-01
(PID.TID 0000.0001) %MON seaice_vice_mean             =  -2.9256776638972E-02
(PID.TID 0000.0001) %MON seaice_vice_sd               =   5.2264403902499E-02
(PID.TID 0000.0001) %MON seaice_vice_del2             =   6.1178194289443E-03
(PID.TID 0000.0001) %MON seaice_area_max              =   1.0000000000000E+00
(PID.TID 0000.0001) %MON seaice_area_min              =   0.0000000000000E+00
(PID.TID 0000.0001) %MON seaice_area_mean             =   6.2473165128354E-01
(PID.TID 0000.0001) %MON seaice_area_sd               =   4.5913418284744E-01
(PID.TID 0000.0001) %MON seaice_area_del2             =   5.3480662075583E-02
(PID.TID 0000.0001) %MON seaice_heff_max              =   5.5368221576291E-01
(PID.TID 0000.0001) %MON seaice_heff_min              =   0.0000000000000E+00
(PID.TID 0000.0001) %MON seaice_heff_mean             =   1.4210539863367E-01
(PID.TID 0000.0001) %MON seaice_heff_sd               =   1.7434508667247E-01
(PID.TID 0000.0001) %MON seaice_heff_del2             =   1.3231250044037E-02
(PID.TID 0000.0001) %MON seaice_hsnow_max             =   2.0235454638389E-01
(PID.TID 0000.0001) %MON seaice_hsnow_min             =   0.0000000000000E+00
(PID.TID 0000.0001) %MON seaice_hsnow_mean            =   1.1801725658722E-01
(PID.TID 0000.0001) %MON seaice_hsnow_sd              =   9.6786605530349E-02
(PID.TID 0000.0001) %MON seaice_hsnow_del2            =   6.3531464967013E-03
(PID.TID 0000.0001) // =======================================================
(PID.TID 0000.0001) // End MONITOR SEAICE statistics
(PID.TID 0000.0001) // =======================================================
(PID.TID 0000.0001) // =======================================================
(PID.TID 0000.0001) // Begin MONITOR EXF statistics
(PID.TID 0000.0001) // =======================================================
(PID.TID 0000.0001) %MON exf_tsnumber                 =                     3
(PID.TID 0000.0001) %MON exf_time_sec                 =   1.0800000000000E+04
(PID.TID 0000.0001) %MON exf_ustress_max              =   5.2220278364576E-02
(PID.TID 0000.0001) %MON exf_ustress_min              =  -9.3786644941843E-02
(PID.TID 0000.0001) %MON exf_ustress_mean             =   1.7925098011445E-02
(PID.TID 0000.0001) %MON exf_ustress_sd               =   2.3700144832060E-02
(PID.TID 0000.0001) %MON exf_ustress_del2             =   2.8158738842886E-03
(PID.TID 0000.0001) %MON exf_vstress_max              =   5.3827196762903E-02
(PID.TID 0000.0001) %MON exf_vstress_min              =  -5.8480358160309E-02
(PID.TID 0000.0001) %MON exf_vstress_mean             =  -5.4532177683061E-03
(PID.TID 0000.0001) %MON exf_vstress_sd               =   1.4440792884900E-02
(PID.TID 0000.0001) %MON exf_vstress_del2             =   1.6929393308068E-03
(PID.TID 0000.0001) %MON exf_hflux_max                =   6.2482499785037E+02
(PID.TID 0000.0001) %MON exf_hflux_min                =  -5.1652096227842E+01
(PID.TID 0000.0001) %MON exf_hflux_mean               =   1.4608871379453E+02
(PID.TID 0000.0001) %MON exf_hflux_sd                 =   1.8003233265191E+02
(PID.TID 0000.0001) %MON exf_hflux_del2               =   1.6307605460984E+01
(PID.TID 0000.0001) %MON exf_sflux_max                =   3.9014761130189E-08
(PID.TID 0000.0001) %MON exf_sflux_min                =  -8.8949891199048E-08
(PID.TID 0000.0001) %MON exf_sflux_mean               =  -2.5974537130598E-08
(PID.TID 0000.0001) %MON exf_sflux_sd                 =   3.0366720969569E-08
(PID.TID 0000.0001) %MON exf_sflux_del2               =   3.1622833920879E-09
(PID.TID 0000.0001) %MON exf_uwind_max                =   6.4658968995829E+00
(PID.TID 0000.0001) %MON exf_uwind_min                =  -6.8373184184559E+00
(PID.TID 0000.0001) %MON exf_uwind_mean               =   2.7700953906364E+00
(PID.TID 0000.0001) %MON exf_uwind_sd                 =   2.9908682681638E+00
(PID.TID 0000.0001) %MON exf_uwind_del2               =   3.1573366006031E-01
(PID.TID 0000.0001) %MON exf_vwind_max                =   3.9241587548959E+00
(PID.TID 0000.0001) %MON exf_vwind_min                =  -6.0169856587394E+00
(PID.TID 0000.0001) %MON exf_vwind_mean               =  -7.5904536197929E-01
(PID.TID 0000.0001) %MON exf_vwind_sd                 =   1.7296682234552E+00
(PID.TID 0000.0001) %MON exf_vwind_del2               =   1.9331202479855E-01
(PID.TID 0000.0001) %MON exf_wspeed_max               =   7.8833967989048E+00
(PID.TID 0000.0001) %MON exf_wspeed_min               =   4.5962367887737E-01
(PID.TID 0000.0001) %MON exf_wspeed_mean              =   4.1984294286706E+00
(PID.TID 0000.0001) %MON exf_wspeed_sd                =   1.5999418201857E+00
(PID.TID 0000.0001) %MON exf_wspeed_del2              =   3.7709664625274E-01
(PID.TID 0000.0001) %MON exf_atemp_max                =   2.8187767604140E+02
(PID.TID 0000.0001) %MON exf_atemp_min                =   2.3644837420104E+02
(PID.TID 0000.0001) %MON exf_atemp_mean               =   2.6393212465043E+02
(PID.TID 0000.0001) %MON exf_atemp_sd                 =   1.1987800023691E+01
(PID.TID 0000.0001) %MON exf_atemp_del2               =   6.4948042966709E-01
(PID.TID 0000.0001) %MON exf_aqh_max                  =   6.3210833210834E-03
(PID.TID 0000.0001) %MON exf_aqh_min                  =   1.6341043767886E-04
(PID.TID 0000.0001) %MON exf_aqh_mean                 =   2.4786818409748E-03
(PID.TID 0000.0001) %MON exf_aqh_sd                   =   1.4261982746893E-03
(PID.TID 0000.0001) %MON exf_aqh_del2                 =   6.8100777916201E-05
(PID.TID 0000.0001) %MON exf_lwflux_max               =   1.8153866759519E+02
(PID.TID 0000.0001) %MON exf_lwflux_min               =   2.7117659270215E+01
(PID.TID 0000.0001) %MON exf_lwflux_mean              =   7.5167336264196E+01
(PID.TID 0000.0001) %MON exf_lwflux_sd                =   4.2791334922622E+01
(PID.TID 0000.0001) %MON exf_lwflux_del2              =   3.2353470327658E+00
(PID.TID 0000.0001) %MON exf_precip_max               =   1.0499180733557E-07
(PID.TID 0000.0001) %MON exf_precip_min               =   2.7319320752566E-10
(PID.TID 0000.0001) %MON exf_precip_mean              =   3.6390048010982E-08
(PID.TID 0000.0001) %MON exf_precip_sd                =   2.0579501435483E-08
(PID.TID 0000.0001) %MON exf_precip_del2              =   2.5567380653122E-09
(PID.TID 0000.0001) %MON exf_snowprecip_max           =   0.0000000000000E+00
(PID.TID 0000.0001) %MON exf_snowprecip_min           =   0.0000000000000E+00
(PID.TID 0000.0001) %MON exf_snowprecip_mean          =   0.0000000000000E+00
(PID.TID 0000.0001) %MON exf_snowprecip_sd            =   0.0000000000000E+00
(PID.TID 0000.0001) %MON exf_snowprecip_del2          =   0.0000000000000E+00
(PID.TID 0000.0001) %MON exf_swflux_max               =  -8.1206604105527E-02
(PID.TID 0000.0001) %MON exf_swflux_min               =  -6.4029725065388E+01
(PID.TID 0000.0001) %MON exf_swflux_mean              =  -2.6484819670573E+01
(PID.TID 0000.0001) %MON exf_swflux_sd                =   1.9637409707136E+01
(PID.TID 0000.0001) %MON exf_swflux_del2              =   4.7933338739073E-01
(PID.TID 0000.0001) %MON exf_evap_max                 =   4.5336980821491E-08
(PID.TID 0000.0001) %MON exf_evap_min                 =  -4.2852111089861E-09
(PID.TID 0000.0001) %MON exf_evap_mean                =   1.0415510880384E-08
(PID.TID 0000.0001) %MON exf_evap_sd                  =   1.1091288856474E-08
(PID.TID 0000.0001) %MON exf_evap_del2                =   1.3330271045746E-09
(PID.TID 0000.0001) %MON exf_swdown_max               =   7.1144138961542E+01
(PID.TID 0000.0001) %MON exf_swdown_min               =   9.0229560117253E-02
(PID.TID 0000.0001) %MON exf_swdown_mean              =   2.9427577411748E+01
(PID.TID 0000.0001) %MON exf_swdown_sd                =   2.1819344119040E+01
(PID.TID 0000.0001) %MON exf_swdown_del2              =   5.3259265265636E-01
(PID.TID 0000.0001) %MON exf_lwdown_max               =   3.0565323976611E+02
(PID.TID 0000.0001) %MON exf_lwdown_min               =   1.1595237147222E+02
(PID.TID 0000.0001) %MON exf_lwdown_mean              =   2.2590219497194E+02
(PID.TID 0000.0001) %MON exf_lwdown_sd                =   4.6289340871590E+01
(PID.TID 0000.0001) %MON exf_lwdown_del2              =   3.2438562169101E+00
(PID.TID 0000.0001) %MON exf_apressure_max            =   0.0000000000000E+00
(PID.TID 0000.0001) %MON exf_apressure_min            =   0.0000000000000E+00
(PID.TID 0000.0001) %MON exf_apressure_mean           =   0.0000000000000E+00
(PID.TID 0000.0001) %MON exf_apressure_sd             =   0.0000000000000E+00
(PID.TID 0000.0001) %MON exf_apressure_del2           =   0.0000000000000E+00
(PID.TID 0000.0001) %MON exf_runoff_max               =   0.0000000000000E+00
(PID.TID 0000.0001) %MON exf_runoff_min               =   0.0000000000000E+00
(PID.TID 0000.0001) %MON exf_runoff_mean              =   0.0000000000000E+00
(PID.TID 0000.0001) %MON exf_runoff_sd                =   0.0000000000000E+00
(PID.TID 0000.0001) %MON exf_runoff_del2              =   0.0000000000000E+00
(PID.TID 0000.0001) %MON exf_climsst_max              =   0.0000000000000E+00
(PID.TID 0000.0001) %MON exf_climsst_min              =   0.0000000000000E+00
(PID.TID 0000.0001) %MON exf_climsst_mean             =   0.0000000000000E+00
(PID.TID 0000.0001) %MON exf_climsst_sd               =   0.0000000000000E+00
(PID.TID 0000.0001) %MON exf_climsst_del2             =   0.0000000000000E+00
(PID.TID 0000.0001) %MON exf_climsss_max              =   3.5040885127959E+01
(PID.TID 0000.0001) %MON exf_climsss_min              =   3.0668591155380E+01
(PID.TID 0000.0001) %MON exf_climsss_mean             =   3.3460883601427E+01
(PID.TID 0000.0001) %MON exf_climsss_sd               =   1.0317405668875E+00
(PID.TID 0000.0001) %MON exf_climsss_del2             =   1.0014227359021E-01
(PID.TID 0000.0001) // =======================================================
(PID.TID 0000.0001) // End MONITOR EXF statistics
(PID.TID 0000.0001) // =======================================================
 ph-ice B  3  0.  0.  0.
 ph-ice C  3  2.0493353E+11
 cg2d: Sum(rhs),rhsMax =   3.25076713603156E-08  1.21053585025430E+00
(PID.TID 0000.0001) // =======================================================
(PID.TID 0000.0001) // Begin MONITOR SEAICE statistics
(PID.TID 0000.0001) // =======================================================
(PID.TID 0000.0001) %MON seaice_tsnumber              =                     4
(PID.TID 0000.0001) %MON seaice_time_sec              =   1.4400000000000E+04
(PID.TID 0000.0001) %MON seaice_uice_max              =   2.0410589044001E-01
(PID.TID 0000.0001) %MON seaice_uice_min              =  -1.0820664027344E-01
(PID.TID 0000.0001) %MON seaice_uice_mean             =   8.1218833996372E-02
(PID.TID 0000.0001) %MON seaice_uice_sd               =   7.8521023332983E-02
(PID.TID 0000.0001) %MON seaice_uice_del2             =   9.4129540786460E-03
(PID.TID 0000.0001) %MON seaice_vice_max              =   9.9288339303025E-02
(PID.TID 0000.0001) %MON seaice_vice_min              =  -1.9612309363032E-01
(PID.TID 0000.0001) %MON seaice_vice_mean             =  -3.7794416653075E-02
(PID.TID 0000.0001) %MON seaice_vice_sd               =   6.1057437667098E-02
(PID.TID 0000.0001) %MON seaice_vice_del2             =   6.9481562834898E-03
(PID.TID 0000.0001) %MON seaice_area_max              =   1.0000000000000E+00
(PID.TID 0000.0001) %MON seaice_area_min              =   0.0000000000000E+00
(PID.TID 0000.0001) %MON seaice_area_mean             =   6.2448964133860E-01
(PID.TID 0000.0001) %MON seaice_area_sd               =   4.5884276157069E-01
(PID.TID 0000.0001) %MON seaice_area_del2             =   5.3567607318535E-02
(PID.TID 0000.0001) %MON seaice_heff_max              =   5.5146835059086E-01
(PID.TID 0000.0001) %MON seaice_heff_min              =   0.0000000000000E+00
(PID.TID 0000.0001) %MON seaice_heff_mean             =   1.4217098028108E-01
(PID.TID 0000.0001) %MON seaice_heff_sd               =   1.7417998529720E-01
(PID.TID 0000.0001) %MON seaice_heff_del2             =   1.3240081984553E-02
(PID.TID 0000.0001) %MON seaice_hsnow_max             =   2.0313961711978E-01
(PID.TID 0000.0001) %MON seaice_hsnow_min             =   0.0000000000000E+00
(PID.TID 0000.0001) %MON seaice_hsnow_mean            =   1.1810788894832E-01
(PID.TID 0000.0001) %MON seaice_hsnow_sd              =   9.6917239051664E-02
(PID.TID 0000.0001) %MON seaice_hsnow_del2            =   6.4249667970263E-03
(PID.TID 0000.0001) // =======================================================
(PID.TID 0000.0001) // End MONITOR SEAICE statistics
(PID.TID 0000.0001) // =======================================================
(PID.TID 0000.0001) // =======================================================
(PID.TID 0000.0001) // Begin MONITOR EXF statistics
(PID.TID 0000.0001) // =======================================================
(PID.TID 0000.0001) %MON exf_tsnumber                 =                     4
(PID.TID 0000.0001) %MON exf_time_sec                 =   1.4400000000000E+04
(PID.TID 0000.0001) %MON exf_ustress_max              =   5.2222749041059E-02
(PID.TID 0000.0001) %MON exf_ustress_min              =  -9.3790194486454E-02
(PID.TID 0000.0001) %MON exf_ustress_mean             =   1.7935665838471E-02
(PID.TID 0000.0001) %MON exf_ustress_sd               =   2.3707713521730E-02
(PID.TID 0000.0001) %MON exf_ustress_del2             =   2.8164265234189E-03
(PID.TID 0000.0001) %MON exf_vstress_max              =   5.3829437114216E-02
(PID.TID 0000.0001) %MON exf_vstress_min              =  -5.8464476572402E-02
(PID.TID 0000.0001) %MON exf_vstress_mean             =  -5.4495370556160E-03
(PID.TID 0000.0001) %MON exf_vstress_sd               =   1.4442680906329E-02
(PID.TID 0000.0001) %MON exf_vstress_del2             =   1.6931341919023E-03
(PID.TID 0000.0001) %MON exf_hflux_max                =   6.2496267398705E+02
(PID.TID 0000.0001) %MON exf_hflux_min                =  -5.1565362847498E+01
(PID.TID 0000.0001) %MON exf_hflux_mean               =   1.4615661286505E+02
(PID.TID 0000.0001) %MON exf_hflux_sd                 =   1.8002235126213E+02
(PID.TID 0000.0001) %MON exf_hflux_del2               =   1.6301998340479E+01
(PID.TID 0000.0001) %MON exf_sflux_max                =   3.9025647077274E-08
(PID.TID 0000.0001) %MON exf_sflux_min                =  -8.8952139751879E-08
(PID.TID 0000.0001) %MON exf_sflux_mean               =  -2.5966971308246E-08
(PID.TID 0000.0001) %MON exf_sflux_sd                 =   3.0361915132899E-08
(PID.TID 0000.0001) %MON exf_sflux_del2               =   3.1623400996408E-09
(PID.TID 0000.0001) %MON exf_uwind_max                =   6.4664043520318E+00
(PID.TID 0000.0001) %MON exf_uwind_min                =  -6.8373452001582E+00
(PID.TID 0000.0001) %MON exf_uwind_mean               =   2.7702029429808E+00
(PID.TID 0000.0001) %MON exf_uwind_sd                 =   2.9911443548250E+00
(PID.TID 0000.0001) %MON exf_uwind_del2               =   3.1574156428286E-01
(PID.TID 0000.0001) %MON exf_vwind_max                =   3.9241889356915E+00
(PID.TID 0000.0001) %MON exf_vwind_min                =  -6.0160797489145E+00
(PID.TID 0000.0001) %MON exf_vwind_mean               =  -7.5842758888917E-01
(PID.TID 0000.0001) %MON exf_vwind_sd                 =   1.7297766046368E+00
(PID.TID 0000.0001) %MON exf_vwind_del2               =   1.9330515345662E-01
(PID.TID 0000.0001) %MON exf_wspeed_max               =   7.8834350500991E+00
(PID.TID 0000.0001) %MON exf_wspeed_min               =   4.5938084481311E-01
(PID.TID 0000.0001) %MON exf_wspeed_mean              =   4.1985322596174E+00
(PID.TID 0000.0001) %MON exf_wspeed_sd                =   1.6001985099325E+00
(PID.TID 0000.0001) %MON exf_wspeed_del2              =   3.7714995543655E-01
(PID.TID 0000.0001) %MON exf_atemp_max                =   2.8187596388853E+02
(PID.TID 0000.0001) %MON exf_atemp_min                =   2.3644390923339E+02
(PID.TID 0000.0001) %MON exf_atemp_mean               =   2.6392748056902E+02
(PID.TID 0000.0001) %MON exf_atemp_sd                 =   1.1989262021651E+01
(PID.TID 0000.0001) %MON exf_atemp_del2               =   6.4949976399731E-01
(PID.TID 0000.0001) %MON exf_aqh_max                  =   6.3203867802223E-03
(PID.TID 0000.0001) %MON exf_aqh_min                  =   1.6331633418045E-04
(PID.TID 0000.0001) %MON exf_aqh_mean                 =   2.4781214845702E-03
(PID.TID 0000.0001) %MON exf_aqh_sd                   =   1.4260952789855E-03
(PID.TID 0000.0001) %MON exf_aqh_del2                 =   6.8087110355054E-05
(PID.TID 0000.0001) %MON exf_lwflux_max               =   1.8154800702574E+02
(PID.TID 0000.0001) %MON exf_lwflux_min               =   2.7104463758170E+01
(PID.TID 0000.0001) %MON exf_lwflux_mean              =   7.5190183470360E+01
(PID.TID 0000.0001) %MON exf_lwflux_sd                =   4.2783226620752E+01
(PID.TID 0000.0001) %MON exf_lwflux_del2              =   3.2333536702610E+00
(PID.TID 0000.0001) %MON exf_precip_max               =   1.0499318877820E-07
(PID.TID 0000.0001) %MON exf_precip_min               =   2.7305928105298E-10
(PID.TID 0000.0001) %MON exf_precip_mean              =   3.6390037166947E-08
(PID.TID 0000.0001) %MON exf_precip_sd                =   2.0579953834835E-08
(PID.TID 0000.0001) %MON exf_precip_del2              =   2.5572657585019E-09
(PID.TID 0000.0001) %MON exf_snowprecip_max           =   0.0000000000000E+00
(PID.TID 0000.0001) %MON exf_snowprecip_min           =   0.0000000000000E+00
(PID.TID 0000.0001) %MON exf_snowprecip_mean          =   0.0000000000000E+00
(PID.TID 0000.0001) %MON exf_snowprecip_sd            =   0.0000000000000E+00
(PID.TID 0000.0001) %MON exf_snowprecip_del2          =   0.0000000000000E+00
(PID.TID 0000.0001) %MON exf_swflux_max               =  -8.1206886983309E-02
(PID.TID 0000.0001) %MON exf_swflux_min               =  -6.4048595415960E+01
(PID.TID 0000.0001) %MON exf_swflux_mean              =  -2.6495351886448E+01
(PID.TID 0000.0001) %MON exf_swflux_sd                =   1.9641247100083E+01
(PID.TID 0000.0001) %MON exf_swflux_del2              =   4.7944026133668E-01
(PID.TID 0000.0001) %MON exf_evap_max                 =   4.5347204057645E-08
(PID.TID 0000.0001) %MON exf_evap_min                 =  -4.2663929296772E-09
(PID.TID 0000.0001) %MON exf_evap_mean                =   1.0423065858701E-08
(PID.TID 0000.0001) %MON exf_evap_sd                  =   1.1085437735358E-08
(PID.TID 0000.0001) %MON exf_evap_del2                =   1.3323750583504E-09
(PID.TID 0000.0001) %MON exf_swdown_max               =   7.1165106017733E+01
(PID.TID 0000.0001) %MON exf_swdown_min               =   9.0229874425898E-02
(PID.TID 0000.0001) %MON exf_swdown_mean              =   2.9439279873831E+01
(PID.TID 0000.0001) %MON exf_swdown_sd                =   2.1823607888981E+01
(PID.TID 0000.0001) %MON exf_swdown_del2              =   5.3271140148521E-01
(PID.TID 0000.0001) %MON exf_lwdown_max               =   3.0564441368228E+02
(PID.TID 0000.0001) %MON exf_lwdown_min               =   1.1593726459357E+02
(PID.TID 0000.0001) %MON exf_lwdown_mean              =   2.2588648764287E+02
(PID.TID 0000.0001) %MON exf_lwdown_sd                =   4.6293313753333E+01
(PID.TID 0000.0001) %MON exf_lwdown_del2              =   3.2438678569828E+00
(PID.TID 0000.0001) %MON exf_apressure_max            =   0.0000000000000E+00
(PID.TID 0000.0001) %MON exf_apressure_min            =   0.0000000000000E+00
(PID.TID 0000.0001) %MON exf_apressure_mean           =   0.0000000000000E+00
(PID.TID 0000.0001) %MON exf_apressure_sd             =   0.0000000000000E+00
(PID.TID 0000.0001) %MON exf_apressure_del2           =   0.0000000000000E+00
(PID.TID 0000.0001) %MON exf_runoff_max               =   0.0000000000000E+00
(PID.TID 0000.0001) %MON exf_runoff_min               =   0.0000000000000E+00
(PID.TID 0000.0001) %MON exf_runoff_mean              =   0.0000000000000E+00
(PID.TID 0000.0001) %MON exf_runoff_sd                =   0.0000000000000E+00
(PID.TID 0000.0001) %MON exf_runoff_del2              =   0.0000000000000E+00
(PID.TID 0000.0001) %MON exf_climsst_max              =   0.0000000000000E+00
(PID.TID 0000.0001) %MON exf_climsst_min              =   0.0000000000000E+00
(PID.TID 0000.0001) %MON exf_climsst_mean             =   0.0000000000000E+00
(PID.TID 0000.0001) %MON exf_climsst_sd               =   0.0000000000000E+00
(PID.TID 0000.0001) %MON exf_climsst_del2             =   0.0000000000000E+00
(PID.TID 0000.0001) %MON exf_climsss_max              =   3.5041069874998E+01
(PID.TID 0000.0001) %MON exf_climsss_min              =   3.0669350483378E+01
(PID.TID 0000.0001) %MON exf_climsss_mean             =   3.3461404934907E+01
(PID.TID 0000.0001) %MON exf_climsss_sd               =   1.0316695849659E+00
(PID.TID 0000.0001) %MON exf_climsss_del2             =   1.0012504429982E-01
(PID.TID 0000.0001) // =======================================================
(PID.TID 0000.0001) // End MONITOR EXF statistics
(PID.TID 0000.0001) // =======================================================
 ph-ice B  4  0.  0.  0.
 ph-ice C  4  2.55604489E+11
 cg2d: Sum(rhs),rhsMax =   3.22656878784522E-08  1.20538351424033E+00
(PID.TID 0000.0001) // =======================================================
(PID.TID 0000.0001) // Begin MONITOR SEAICE statistics
(PID.TID 0000.0001) // =======================================================
(PID.TID 0000.0001) %MON seaice_tsnumber              =                     5
(PID.TID 0000.0001) %MON seaice_time_sec              =   1.8000000000000E+04
(PID.TID 0000.0001) %MON seaice_uice_max              =   2.1945386370993E-01
(PID.TID 0000.0001) %MON seaice_uice_min              =  -1.0939009902187E-01
(PID.TID 0000.0001) %MON seaice_uice_mean             =   8.3081275182341E-02
(PID.TID 0000.0001) %MON seaice_uice_sd               =   8.3462882325663E-02
(PID.TID 0000.0001) %MON seaice_uice_del2             =   1.0024722876428E-02
(PID.TID 0000.0001) %MON seaice_vice_max              =   1.0086664059803E-01
(PID.TID 0000.0001) %MON seaice_vice_min              =  -1.9808188878178E-01
(PID.TID 0000.0001) %MON seaice_vice_mean             =  -4.6968653956143E-02
(PID.TID 0000.0001) %MON seaice_vice_sd               =   6.7920790602610E-02
(PID.TID 0000.0001) %MON seaice_vice_del2             =   7.5957085875374E-03
(PID.TID 0000.0001) %MON seaice_area_max              =   1.0000000000000E+00
(PID.TID 0000.0001) %MON seaice_area_min              =   0.0000000000000E+00
(PID.TID 0000.0001) %MON seaice_area_mean             =   6.2430150050781E-01
(PID.TID 0000.0001) %MON seaice_area_sd               =   4.5848056987682E-01
(PID.TID 0000.0001) %MON seaice_area_del2             =   5.3615010683010E-02
(PID.TID 0000.0001) %MON seaice_heff_max              =   5.4903937822394E-01
(PID.TID 0000.0001) %MON seaice_heff_min              =   0.0000000000000E+00
(PID.TID 0000.0001) %MON seaice_heff_mean             =   1.4223709915455E-01
(PID.TID 0000.0001) %MON seaice_heff_sd               =   1.7414913289752E-01
(PID.TID 0000.0001) %MON seaice_heff_del2             =   1.3251347069299E-02
(PID.TID 0000.0001) %MON seaice_hsnow_max             =   2.0392476353420E-01
(PID.TID 0000.0001) %MON seaice_hsnow_min             =   0.0000000000000E+00
(PID.TID 0000.0001) %MON seaice_hsnow_mean            =   1.1825099134686E-01
(PID.TID 0000.0001) %MON seaice_hsnow_sd              =   9.7044356047928E-02
(PID.TID 0000.0001) %MON seaice_hsnow_del2            =   6.4762509690490E-03
(PID.TID 0000.0001) // =======================================================
(PID.TID 0000.0001) // End MONITOR SEAICE statistics
(PID.TID 0000.0001) // =======================================================
(PID.TID 0000.0001) // =======================================================
(PID.TID 0000.0001) // Begin MONITOR EXF statistics
(PID.TID 0000.0001) // =======================================================
(PID.TID 0000.0001) %MON exf_tsnumber                 =                     5
(PID.TID 0000.0001) %MON exf_time_sec                 =   1.8000000000000E+04
(PID.TID 0000.0001) %MON exf_ustress_max              =   5.2230884117608E-02
(PID.TID 0000.0001) %MON exf_ustress_min              =  -9.3792692313509E-02
(PID.TID 0000.0001) %MON exf_ustress_mean             =   1.7944942409505E-02
(PID.TID 0000.0001) %MON exf_ustress_sd               =   2.3713964827854E-02
(PID.TID 0000.0001) %MON exf_ustress_del2             =   2.8173043880308E-03
(PID.TID 0000.0001) %MON exf_vstress_max              =   5.3831073859948E-02
(PID.TID 0000.0001) %MON exf_vstress_min              =  -5.8456785540571E-02
(PID.TID 0000.0001) %MON exf_vstress_mean             =  -5.4464507457364E-03
(PID.TID 0000.0001) %MON exf_vstress_sd               =   1.4444945383899E-02
(PID.TID 0000.0001) %MON exf_vstress_del2             =   1.6932729658336E-03
(PID.TID 0000.0001) %MON exf_hflux_max                =   6.2503361232608E+02
(PID.TID 0000.0001) %MON exf_hflux_min                =  -5.1451597520034E+01
(PID.TID 0000.0001) %MON exf_hflux_mean               =   1.4623261391109E+02
(PID.TID 0000.0001) %MON exf_hflux_sd                 =   1.8002328542906E+02
(PID.TID 0000.0001) %MON exf_hflux_del2               =   1.6301002523542E+01
(PID.TID 0000.0001) %MON exf_sflux_max                =   3.9028023656349E-08
(PID.TID 0000.0001) %MON exf_sflux_min                =  -8.8915527500416E-08
(PID.TID 0000.0001) %MON exf_sflux_mean               =  -2.5958892489852E-08
(PID.TID 0000.0001) %MON exf_sflux_sd                 =   3.0357858128290E-08
(PID.TID 0000.0001) %MON exf_sflux_del2               =   3.1625232615525E-09
(PID.TID 0000.0001) %MON exf_uwind_max                =   6.4669118044806E+00
(PID.TID 0000.0001) %MON exf_uwind_min                =  -6.8373719818605E+00
(PID.TID 0000.0001) %MON exf_uwind_mean               =   2.7703104953252E+00
(PID.TID 0000.0001) %MON exf_uwind_sd                 =   2.9914204817202E+00
(PID.TID 0000.0001) %MON exf_uwind_del2               =   3.1574946850541E-01
(PID.TID 0000.0001) %MON exf_vwind_max                =   3.9242191164871E+00
(PID.TID 0000.0001) %MON exf_vwind_min                =  -6.0151738390896E+00
(PID.TID 0000.0001) %MON exf_vwind_mean               =  -7.5780981579906E-01
(PID.TID 0000.0001) %MON exf_vwind_sd                 =   1.7298850990135E+00
(PID.TID 0000.0001) %MON exf_vwind_del2               =   1.9329828211469E-01
(PID.TID 0000.0001) %MON exf_wspeed_max               =   7.8834733013142E+00
(PID.TID 0000.0001) %MON exf_wspeed_min               =   4.5913801314248E-01
(PID.TID 0000.0001) %MON exf_wspeed_mean              =   4.1986352194932E+00
(PID.TID 0000.0001) %MON exf_wspeed_sd                =   1.6004553118739E+00
(PID.TID 0000.0001) %MON exf_wspeed_del2              =   3.7720325813743E-01
(PID.TID 0000.0001) %MON exf_atemp_max                =   2.8187425173567E+02
(PID.TID 0000.0001) %MON exf_atemp_min                =   2.3643944426573E+02
(PID.TID 0000.0001) %MON exf_atemp_mean               =   2.6392283648761E+02
(PID.TID 0000.0001) %MON exf_atemp_sd                 =   1.1990724506887E+01
(PID.TID 0000.0001) %MON exf_atemp_del2               =   6.4951909832753E-01
(PID.TID 0000.0001) %MON exf_aqh_max                  =   6.3196902393613E-03
(PID.TID 0000.0001) %MON exf_aqh_min                  =   1.6322223068205E-04
(PID.TID 0000.0001) %MON exf_aqh_mean                 =   2.4775611281656E-03
(PID.TID 0000.0001) %MON exf_aqh_sd                   =   1.4259923191659E-03
(PID.TID 0000.0001) %MON exf_aqh_del2                 =   6.8073442793907E-05
(PID.TID 0000.0001) %MON exf_lwflux_max               =   1.8156112611884E+02
(PID.TID 0000.0001) %MON exf_lwflux_min               =   2.7075633022337E+01
(PID.TID 0000.0001) %MON exf_lwflux_mean              =   7.5214632965355E+01
(PID.TID 0000.0001) %MON exf_lwflux_sd                =   4.2777639211635E+01
(PID.TID 0000.0001) %MON exf_lwflux_del2              =   3.2323854047426E+00
(PID.TID 0000.0001) %MON exf_precip_max               =   1.0499457022082E-07
(PID.TID 0000.0001) %MON exf_precip_min               =   2.7292535458031E-10
(PID.TID 0000.0001) %MON exf_precip_mean              =   3.6390026322913E-08
(PID.TID 0000.0001) %MON exf_precip_sd                =   2.0580406889746E-08
(PID.TID 0000.0001) %MON exf_precip_del2              =   2.5577934516916E-09
(PID.TID 0000.0001) %MON exf_snowprecip_max           =   0.0000000000000E+00
(PID.TID 0000.0001) %MON exf_snowprecip_min           =   0.0000000000000E+00
(PID.TID 0000.0001) %MON exf_snowprecip_mean          =   0.0000000000000E+00
(PID.TID 0000.0001) %MON exf_snowprecip_sd            =   0.0000000000000E+00
(PID.TID 0000.0001) %MON exf_snowprecip_del2          =   0.0000000000000E+00
(PID.TID 0000.0001) %MON exf_swflux_max               =  -8.1207169861090E-02
(PID.TID 0000.0001) %MON exf_swflux_min               =  -6.4067465766532E+01
(PID.TID 0000.0001) %MON exf_swflux_mean              =  -2.6505884102323E+01
(PID.TID 0000.0001) %MON exf_swflux_sd                =   1.9645085084315E+01
(PID.TID 0000.0001) %MON exf_swflux_del2              =   4.7954713528264E-01
(PID.TID 0000.0001) %MON exf_evap_max                 =   4.5348917925790E-08
(PID.TID 0000.0001) %MON exf_evap_min                 =  -4.2424751705265E-09
(PID.TID 0000.0001) %MON exf_evap_mean                =   1.0431133833061E-08
(PID.TID 0000.0001) %MON exf_evap_sd                  =   1.1081500236372E-08
(PID.TID 0000.0001) %MON exf_evap_del2                =   1.3323462489232E-09
(PID.TID 0000.0001) %MON exf_swdown_max               =   7.1186073073924E+01
(PID.TID 0000.0001) %MON exf_swdown_min               =   9.0230188734544E-02
(PID.TID 0000.0001) %MON exf_swdown_mean              =   2.9450982335914E+01
(PID.TID 0000.0001) %MON exf_swdown_sd                =   2.1827872315905E+01
(PID.TID 0000.0001) %MON exf_swdown_del2              =   5.3283015031405E-01
(PID.TID 0000.0001) %MON exf_lwdown_max               =   3.0563558759846E+02
(PID.TID 0000.0001) %MON exf_lwdown_min               =   1.1592215771493E+02
(PID.TID 0000.0001) %MON exf_lwdown_mean              =   2.2587078031381E+02
(PID.TID 0000.0001) %MON exf_lwdown_sd                =   4.6297287802066E+01
(PID.TID 0000.0001) %MON exf_lwdown_del2              =   3.2438794970556E+00
(PID.TID 0000.0001) %MON exf_apressure_max            =   0.0000000000000E+00
(PID.TID 0000.0001) %MON exf_apressure_min            =   0.0000000000000E+00
(PID.TID 0000.0001) %MON exf_apressure_mean           =   0.0000000000000E+00
(PID.TID 0000.0001) %MON exf_apressure_sd             =   0.0000000000000E+00
(PID.TID 0000.0001) %MON exf_apressure_del2           =   0.0000000000000E+00
(PID.TID 0000.0001) %MON exf_runoff_max               =   0.0000000000000E+00
(PID.TID 0000.0001) %MON exf_runoff_min               =   0.0000000000000E+00
(PID.TID 0000.0001) %MON exf_runoff_mean              =   0.0000000000000E+00
(PID.TID 0000.0001) %MON exf_runoff_sd                =   0.0000000000000E+00
(PID.TID 0000.0001) %MON exf_runoff_del2              =   0.0000000000000E+00
(PID.TID 0000.0001) %MON exf_climsst_max              =   0.0000000000000E+00
(PID.TID 0000.0001) %MON exf_climsst_min              =   0.0000000000000E+00
(PID.TID 0000.0001) %MON exf_climsst_mean             =   0.0000000000000E+00
(PID.TID 0000.0001) %MON exf_climsst_sd               =   0.0000000000000E+00
(PID.TID 0000.0001) %MON exf_climsst_del2             =   0.0000000000000E+00
(PID.TID 0000.0001) %MON exf_climsss_max              =   3.5041254622037E+01
(PID.TID 0000.0001) %MON exf_climsss_min              =   3.0670109811376E+01
(PID.TID 0000.0001) %MON exf_climsss_mean             =   3.3461926268386E+01
(PID.TID 0000.0001) %MON exf_climsss_sd               =   1.0315988331065E+00
(PID.TID 0000.0001) %MON exf_climsss_del2             =   1.0010781500943E-01
(PID.TID 0000.0001) // =======================================================
(PID.TID 0000.0001) // End MONITOR EXF statistics
(PID.TID 0000.0001) // =======================================================
 ph-ice B  5  0.  0.  0.
 ph-ice C  5  3.06281759E+11
 cg2d: Sum(rhs),rhsMax =   3.20074680787430E-08  1.19996672423238E+00
(PID.TID 0000.0001) // =======================================================
(PID.TID 0000.0001) // Begin MONITOR SEAICE statistics
(PID.TID 0000.0001) // =======================================================
(PID.TID 0000.0001) %MON seaice_tsnumber              =                     6
(PID.TID 0000.0001) %MON seaice_time_sec              =   2.1600000000000E+04
(PID.TID 0000.0001) %MON seaice_uice_max              =   2.3992638758771E-01
(PID.TID 0000.0001) %MON seaice_uice_min              =  -1.0534849502407E-01
(PID.TID 0000.0001) %MON seaice_uice_mean             =   8.0979655884011E-02
(PID.TID 0000.0001) %MON seaice_uice_sd               =   8.5693638775283E-02
(PID.TID 0000.0001) %MON seaice_uice_del2             =   1.0079282326311E-02
(PID.TID 0000.0001) %MON seaice_vice_max              =   9.8351447679772E-02
(PID.TID 0000.0001) %MON seaice_vice_min              =  -2.1228924531771E-01
(PID.TID 0000.0001) %MON seaice_vice_mean             =  -5.4937603565915E-02
(PID.TID 0000.0001) %MON seaice_vice_sd               =   7.2061889512198E-02
(PID.TID 0000.0001) %MON seaice_vice_del2             =   8.0226514025646E-03
(PID.TID 0000.0001) %MON seaice_area_max              =   1.0000000000000E+00
(PID.TID 0000.0001) %MON seaice_area_min              =   0.0000000000000E+00
(PID.TID 0000.0001) %MON seaice_area_mean             =   6.2417688258596E-01
(PID.TID 0000.0001) %MON seaice_area_sd               =   4.5808407109428E-01
(PID.TID 0000.0001) %MON seaice_area_del2             =   5.3631206430200E-02
(PID.TID 0000.0001) %MON seaice_heff_max              =   5.4790358803118E-01
(PID.TID 0000.0001) %MON seaice_heff_min              =   0.0000000000000E+00
(PID.TID 0000.0001) %MON seaice_heff_mean             =   1.4225481419270E-01
(PID.TID 0000.0001) %MON seaice_heff_sd               =   1.7422527156891E-01
(PID.TID 0000.0001) %MON seaice_heff_del2             =   1.3241129727305E-02
(PID.TID 0000.0001) %MON seaice_hsnow_max             =   2.0470995401277E-01
(PID.TID 0000.0001) %MON seaice_hsnow_min             =   0.0000000000000E+00
(PID.TID 0000.0001) %MON seaice_hsnow_mean            =   1.1841143347547E-01
(PID.TID 0000.0001) %MON seaice_hsnow_sd              =   9.7165681938636E-02
(PID.TID 0000.0001) %MON seaice_hsnow_del2            =   6.5148328825135E-03
(PID.TID 0000.0001) // =======================================================
(PID.TID 0000.0001) // End MONITOR SEAICE statistics
(PID.TID 0000.0001) // =======================================================
(PID.TID 0000.0001) // =======================================================
(PID.TID 0000.0001) // Begin MONITOR EXF statistics
(PID.TID 0000.0001) // =======================================================
(PID.TID 0000.0001) %MON exf_tsnumber                 =                     6
(PID.TID 0000.0001) %MON exf_time_sec                 =   2.1600000000000E+04
(PID.TID 0000.0001) %MON exf_ustress_max              =   5.2237984457531E-02
(PID.TID 0000.0001) %MON exf_ustress_min              =  -9.3794680426843E-02
(PID.TID 0000.0001) %MON exf_ustress_mean             =   1.7953015107669E-02
(PID.TID 0000.0001) %MON exf_ustress_sd               =   2.3720088327273E-02
(PID.TID 0000.0001) %MON exf_ustress_del2             =   2.8182300743221E-03
(PID.TID 0000.0001) %MON exf_vstress_max              =   5.3832418070363E-02
(PID.TID 0000.0001) %MON exf_vstress_min              =  -5.8451170700632E-02
(PID.TID 0000.0001) %MON exf_vstress_mean             =  -5.4433692423185E-03
(PID.TID 0000.0001) %MON exf_vstress_sd               =   1.4447187967796E-02
(PID.TID 0000.0001) %MON exf_vstress_del2             =   1.6932776742521E-03
(PID.TID 0000.0001) %MON exf_hflux_max                =   6.2507220073317E+02
(PID.TID 0000.0001) %MON exf_hflux_min                =  -5.1351197170996E+01
(PID.TID 0000.0001) %MON exf_hflux_mean               =   1.4630888198615E+02
(PID.TID 0000.0001) %MON exf_hflux_sd                 =   1.8003247708491E+02
(PID.TID 0000.0001) %MON exf_hflux_del2               =   1.6303857373944E+01
(PID.TID 0000.0001) %MON exf_sflux_max                =   3.9026275524026E-08
(PID.TID 0000.0001) %MON exf_sflux_min                =  -8.8868954898668E-08
(PID.TID 0000.0001) %MON exf_sflux_mean               =  -2.5950949695588E-08
(PID.TID 0000.0001) %MON exf_sflux_sd                 =   3.0354687109983E-08
(PID.TID 0000.0001) %MON exf_sflux_del2               =   3.1631186911739E-09
(PID.TID 0000.0001) %MON exf_uwind_max                =   6.4674192569295E+00
(PID.TID 0000.0001) %MON exf_uwind_min                =  -6.8373987635628E+00
(PID.TID 0000.0001) %MON exf_uwind_mean               =   2.7704180476696E+00
(PID.TID 0000.0001) %MON exf_uwind_sd                 =   2.9916966488382E+00
(PID.TID 0000.0001) %MON exf_uwind_del2               =   3.1575737272796E-01
(PID.TID 0000.0001) %MON exf_vwind_max                =   3.9242492972827E+00
(PID.TID 0000.0001) %MON exf_vwind_min                =  -6.0142679292648E+00
(PID.TID 0000.0001) %MON exf_vwind_mean               =  -7.5719204270894E-01
(PID.TID 0000.0001) %MON exf_vwind_sd                 =   1.7299937065642E+00
(PID.TID 0000.0001) %MON exf_vwind_del2               =   1.9329141077275E-01
(PID.TID 0000.0001) %MON exf_wspeed_max               =   7.8835115525503E+00
(PID.TID 0000.0001) %MON exf_wspeed_min               =   4.5889518386928E-01
(PID.TID 0000.0001) %MON exf_wspeed_mean              =   4.1987383082859E+00
(PID.TID 0000.0001) %MON exf_wspeed_sd                =   1.6007122259633E+00
(PID.TID 0000.0001) %MON exf_wspeed_del2              =   3.7725655435875E-01
(PID.TID 0000.0001) %MON exf_atemp_max                =   2.8187253958280E+02
(PID.TID 0000.0001) %MON exf_atemp_min                =   2.3643497929808E+02
(PID.TID 0000.0001) %MON exf_atemp_mean               =   2.6391819240620E+02
(PID.TID 0000.0001) %MON exf_atemp_sd                 =   1.1992187479222E+01
(PID.TID 0000.0001) %MON exf_atemp_del2               =   6.4953843265774E-01
(PID.TID 0000.0001) %MON exf_aqh_max                  =   6.3189936985002E-03
(PID.TID 0000.0001) %MON exf_aqh_min                  =   1.6312812718364E-04
(PID.TID 0000.0001) %MON exf_aqh_mean                 =   2.4770007717611E-03
(PID.TID 0000.0001) %MON exf_aqh_sd                   =   1.4258893952382E-03
(PID.TID 0000.0001) %MON exf_aqh_del2                 =   6.8059775232760E-05
(PID.TID 0000.0001) %MON exf_lwflux_max               =   1.8157457967830E+02
(PID.TID 0000.0001) %MON exf_lwflux_min               =   2.7062314432575E+01
(PID.TID 0000.0001) %MON exf_lwflux_mean              =   7.5238105830930E+01
(PID.TID 0000.0001) %MON exf_lwflux_sd                =   4.2774667665430E+01
(PID.TID 0000.0001) %MON exf_lwflux_del2              =   3.2322310249579E+00
(PID.TID 0000.0001) %MON exf_precip_max               =   1.0499595166344E-07
(PID.TID 0000.0001) %MON exf_precip_min               =   2.7279142810763E-10
(PID.TID 0000.0001) %MON exf_precip_mean              =   3.6390015478879E-08
(PID.TID 0000.0001) %MON exf_precip_sd                =   2.0580860600171E-08
(PID.TID 0000.0001) %MON exf_precip_del2              =   2.5583211448813E-09
(PID.TID 0000.0001) %MON exf_snowprecip_max           =   0.0000000000000E+00
(PID.TID 0000.0001) %MON exf_snowprecip_min           =   0.0000000000000E+00
(PID.TID 0000.0001) %MON exf_snowprecip_mean          =   0.0000000000000E+00
(PID.TID 0000.0001) %MON exf_snowprecip_sd            =   0.0000000000000E+00
(PID.TID 0000.0001) %MON exf_snowprecip_del2          =   0.0000000000000E+00
(PID.TID 0000.0001) %MON exf_swflux_max               =  -8.1207452738871E-02
(PID.TID 0000.0001) %MON exf_swflux_min               =  -6.4086336117103E+01
(PID.TID 0000.0001) %MON exf_swflux_mean              =  -2.6516416318198E+01
(PID.TID 0000.0001) %MON exf_swflux_sd                =   1.9648923659484E+01
(PID.TID 0000.0001) %MON exf_swflux_del2              =   4.7965400922860E-01
(PID.TID 0000.0001) %MON exf_evap_max                 =   4.5346507082536E-08
(PID.TID 0000.0001) %MON exf_evap_min                 =  -4.2210682137199E-09
(PID.TID 0000.0001) %MON exf_evap_mean                =   1.0439065783291E-08
(PID.TID 0000.0001) %MON exf_evap_sd                  =   1.1078854523015E-08
(PID.TID 0000.0001) %MON exf_evap_del2                =   1.3326482880709E-09
(PID.TID 0000.0001) %MON exf_swdown_max               =   7.1207040130115E+01
(PID.TID 0000.0001) %MON exf_swdown_min               =   9.0230503043190E-02
(PID.TID 0000.0001) %MON exf_swdown_mean              =   2.9462684797997E+01
(PID.TID 0000.0001) %MON exf_swdown_sd                =   2.1832137399427E+01
(PID.TID 0000.0001) %MON exf_swdown_del2              =   5.3294889914289E-01
(PID.TID 0000.0001) %MON exf_lwdown_max               =   3.0562676151463E+02
(PID.TID 0000.0001) %MON exf_lwdown_min               =   1.1590705083628E+02
(PID.TID 0000.0001) %MON exf_lwdown_mean              =   2.2585507298474E+02
(PID.TID 0000.0001) %MON exf_lwdown_sd                =   4.6301263017486E+01
(PID.TID 0000.0001) %MON exf_lwdown_del2              =   3.2438911371283E+00
(PID.TID 0000.0001) %MON exf_apressure_max            =   0.0000000000000E+00
(PID.TID 0000.0001) %MON exf_apressure_min            =   0.0000000000000E+00
(PID.TID 0000.0001) %MON exf_apressure_mean           =   0.0000000000000E+00
(PID.TID 0000.0001) %MON exf_apressure_sd             =   0.0000000000000E+00
(PID.TID 0000.0001) %MON exf_apressure_del2           =   0.0000000000000E+00
(PID.TID 0000.0001) %MON exf_runoff_max               =   0.0000000000000E+00
(PID.TID 0000.0001) %MON exf_runoff_min               =   0.0000000000000E+00
(PID.TID 0000.0001) %MON exf_runoff_mean              =   0.0000000000000E+00
(PID.TID 0000.0001) %MON exf_runoff_sd                =   0.0000000000000E+00
(PID.TID 0000.0001) %MON exf_runoff_del2              =   0.0000000000000E+00
(PID.TID 0000.0001) %MON exf_climsst_max              =   0.0000000000000E+00
(PID.TID 0000.0001) %MON exf_climsst_min              =   0.0000000000000E+00
(PID.TID 0000.0001) %MON exf_climsst_mean             =   0.0000000000000E+00
(PID.TID 0000.0001) %MON exf_climsst_sd               =   0.0000000000000E+00
(PID.TID 0000.0001) %MON exf_climsst_del2             =   0.0000000000000E+00
(PID.TID 0000.0001) %MON exf_climsss_max              =   3.5041439369077E+01
(PID.TID 0000.0001) %MON exf_climsss_min              =   3.0670869139374E+01
(PID.TID 0000.0001) %MON exf_climsss_mean             =   3.3462447601866E+01
(PID.TID 0000.0001) %MON exf_climsss_sd               =   1.0315283113566E+00
(PID.TID 0000.0001) %MON exf_climsss_del2             =   1.0009058571904E-01
(PID.TID 0000.0001) // =======================================================
(PID.TID 0000.0001) // End MONITOR EXF statistics
(PID.TID 0000.0001) // =======================================================
 ph-ice B  6  0.  0.  0.
 ph-ice C  6  3.56943328E+11
 cg2d: Sum(rhs),rhsMax =   3.26977276296492E-08  1.19247381795322E+00
(PID.TID 0000.0001) // =======================================================
(PID.TID 0000.0001) // Begin MONITOR SEAICE statistics
(PID.TID 0000.0001) // =======================================================
(PID.TID 0000.0001) %MON seaice_tsnumber              =                     7
(PID.TID 0000.0001) %MON seaice_time_sec              =   2.5200000000000E+04
(PID.TID 0000.0001) %MON seaice_uice_max              =   2.5685186503450E-01
(PID.TID 0000.0001) %MON seaice_uice_min              =  -9.7750591653273E-02
(PID.TID 0000.0001) %MON seaice_uice_mean             =   7.6054163084678E-02
(PID.TID 0000.0001) %MON seaice_uice_sd               =   8.5420583458326E-02
(PID.TID 0000.0001) %MON seaice_uice_del2             =   9.6584086495213E-03
(PID.TID 0000.0001) %MON seaice_vice_max              =   9.3826162069892E-02
(PID.TID 0000.0001) %MON seaice_vice_min              =  -2.2536421281737E-01
(PID.TID 0000.0001) %MON seaice_vice_mean             =  -6.0012502773288E-02
(PID.TID 0000.0001) %MON seaice_vice_sd               =   7.2852781180702E-02
(PID.TID 0000.0001) %MON seaice_vice_del2             =   8.1655951354427E-03
(PID.TID 0000.0001) %MON seaice_area_max              =   1.0000000000000E+00
(PID.TID 0000.0001) %MON seaice_area_min              =   0.0000000000000E+00
(PID.TID 0000.0001) %MON seaice_area_mean             =   6.2408688389872E-01
(PID.TID 0000.0001) %MON seaice_area_sd               =   4.5772399586939E-01
(PID.TID 0000.0001) %MON seaice_area_del2             =   5.3629429076170E-02
(PID.TID 0000.0001) %MON seaice_heff_max              =   5.4815057630953E-01
(PID.TID 0000.0001) %MON seaice_heff_min              =   0.0000000000000E+00
(PID.TID 0000.0001) %MON seaice_heff_mean             =   1.4221074157729E-01
(PID.TID 0000.0001) %MON seaice_heff_sd               =   1.7437173623952E-01
(PID.TID 0000.0001) %MON seaice_heff_del2             =   1.3220400042008E-02
(PID.TID 0000.0001) %MON seaice_hsnow_max             =   2.0549515084231E-01
(PID.TID 0000.0001) %MON seaice_hsnow_min             =   0.0000000000000E+00
(PID.TID 0000.0001) %MON seaice_hsnow_mean            =   1.1857184786537E-01
(PID.TID 0000.0001) %MON seaice_hsnow_sd              =   9.7287286135951E-02
(PID.TID 0000.0001) %MON seaice_hsnow_del2            =   6.5537586316021E-03
(PID.TID 0000.0001) // =======================================================
(PID.TID 0000.0001) // End MONITOR SEAICE statistics
(PID.TID 0000.0001) // =======================================================
(PID.TID 0000.0001) // =======================================================
(PID.TID 0000.0001) // Begin MONITOR EXF statistics
(PID.TID 0000.0001) // =======================================================
(PID.TID 0000.0001) %MON exf_tsnumber                 =                     7
(PID.TID 0000.0001) %MON exf_time_sec                 =   2.5200000000000E+04
(PID.TID 0000.0001) %MON exf_ustress_max              =   5.2243932822048E-02
(PID.TID 0000.0001) %MON exf_ustress_min              =  -9.3796695311270E-02
(PID.TID 0000.0001) %MON exf_ustress_mean             =   1.7960119951801E-02
(PID.TID 0000.0001) %MON exf_ustress_sd               =   2.3726168855539E-02
(PID.TID 0000.0001) %MON exf_ustress_del2             =   2.8191129989542E-03
(PID.TID 0000.0001) %MON exf_vstress_max              =   5.3833777652830E-02
(PID.TID 0000.0001) %MON exf_vstress_min              =  -5.8440994812842E-02
(PID.TID 0000.0001) %MON exf_vstress_mean             =  -5.4400580437556E-03
(PID.TID 0000.0001) %MON exf_vstress_sd               =   1.4449140609190E-02
(PID.TID 0000.0001) %MON exf_vstress_del2             =   1.6932577465892E-03
(PID.TID 0000.0001) %MON exf_hflux_max                =   6.2511249114521E+02
(PID.TID 0000.0001) %MON exf_hflux_min                =  -5.1292187878104E+01
(PID.TID 0000.0001) %MON exf_hflux_mean               =   1.4638048977877E+02
(PID.TID 0000.0001) %MON exf_hflux_sd                 =   1.8004883921225E+02
(PID.TID 0000.0001) %MON exf_hflux_del2               =   1.6307652364580E+01
(PID.TID 0000.0001) %MON exf_sflux_max                =   3.9024744508742E-08
(PID.TID 0000.0001) %MON exf_sflux_min                =  -8.8844029800083E-08
(PID.TID 0000.0001) %MON exf_sflux_mean               =  -2.5943673253784E-08
(PID.TID 0000.0001) %MON exf_sflux_sd                 =   3.0352935643655E-08
(PID.TID 0000.0001) %MON exf_sflux_del2               =   3.1638748296475E-09
(PID.TID 0000.0001) %MON exf_uwind_max                =   6.4679267093784E+00
(PID.TID 0000.0001) %MON exf_uwind_min                =  -6.8374255452651E+00
(PID.TID 0000.0001) %MON exf_uwind_mean               =   2.7705256000140E+00
(PID.TID 0000.0001) %MON exf_uwind_sd                 =   2.9919728561678E+00
(PID.TID 0000.0001) %MON exf_uwind_del2               =   3.1576527695052E-01
(PID.TID 0000.0001) %MON exf_vwind_max                =   3.9242794780783E+00
(PID.TID 0000.0001) %MON exf_vwind_min                =  -6.0133620194399E+00
(PID.TID 0000.0001) %MON exf_vwind_mean               =  -7.5657426961883E-01
(PID.TID 0000.0001) %MON exf_vwind_sd                 =   1.7301024272674E+00
(PID.TID 0000.0001) %MON exf_vwind_del2               =   1.9328456693798E-01
(PID.TID 0000.0001) %MON exf_wspeed_max               =   7.8835498038073E+00
(PID.TID 0000.0001) %MON exf_wspeed_min               =   4.5865235699732E-01
(PID.TID 0000.0001) %MON exf_wspeed_mean              =   4.1988415259832E+00
(PID.TID 0000.0001) %MON exf_wspeed_sd                =   1.6009692521540E+00
(PID.TID 0000.0001) %MON exf_wspeed_del2              =   3.7730984410389E-01
(PID.TID 0000.0001) %MON exf_atemp_max                =   2.8187082742993E+02
(PID.TID 0000.0001) %MON exf_atemp_min                =   2.3643051433042E+02
(PID.TID 0000.0001) %MON exf_atemp_mean               =   2.6391354832479E+02
(PID.TID 0000.0001) %MON exf_atemp_sd                 =   1.1993650938477E+01
(PID.TID 0000.0001) %MON exf_atemp_del2               =   6.4955776698796E-01
(PID.TID 0000.0001) %MON exf_aqh_max                  =   6.3182971576392E-03
(PID.TID 0000.0001) %MON exf_aqh_min                  =   1.6303402368524E-04
(PID.TID 0000.0001) %MON exf_aqh_mean                 =   2.4764404153565E-03
(PID.TID 0000.0001) %MON exf_aqh_sd                   =   1.4257865072101E-03
(PID.TID 0000.0001) %MON exf_aqh_del2                 =   6.8046107671613E-05
(PID.TID 0000.0001) %MON exf_lwflux_max               =   1.8159055041552E+02
(PID.TID 0000.0001) %MON exf_lwflux_min               =   2.7054912717667E+01
(PID.TID 0000.0001) %MON exf_lwflux_mean              =   7.5259453720054E+01
(PID.TID 0000.0001) %MON exf_lwflux_sd                =   4.2774122544121E+01
(PID.TID 0000.0001) %MON exf_lwflux_del2              =   3.2322863343330E+00
(PID.TID 0000.0001) %MON exf_precip_max               =   1.0499733310606E-07
(PID.TID 0000.0001) %MON exf_precip_min               =   2.7265750163496E-10
(PID.TID 0000.0001) %MON exf_precip_mean              =   3.6390004634845E-08
(PID.TID 0000.0001) %MON exf_precip_sd                =   2.0581314966068E-08
(PID.TID 0000.0001) %MON exf_precip_del2              =   2.5588488380710E-09
(PID.TID 0000.0001) %MON exf_snowprecip_max           =   0.0000000000000E+00
(PID.TID 0000.0001) %MON exf_snowprecip_min           =   0.0000000000000E+00
(PID.TID 0000.0001) %MON exf_snowprecip_mean          =   0.0000000000000E+00
(PID.TID 0000.0001) %MON exf_snowprecip_sd            =   0.0000000000000E+00
(PID.TID 0000.0001) %MON exf_snowprecip_del2          =   0.0000000000000E+00
(PID.TID 0000.0001) %MON exf_swflux_max               =  -8.1207735616653E-02
(PID.TID 0000.0001) %MON exf_swflux_min               =  -6.4105206467675E+01
(PID.TID 0000.0001) %MON exf_swflux_mean              =  -2.6526948534072E+01
(PID.TID 0000.0001) %MON exf_swflux_sd                =   1.9652762825246E+01
(PID.TID 0000.0001) %MON exf_swflux_del2              =   4.7976088317456E-01
(PID.TID 0000.0001) %MON exf_evap_max                 =   4.5344313356322E-08
(PID.TID 0000.0001) %MON exf_evap_min                 =  -4.2074595986117E-09
(PID.TID 0000.0001) %MON exf_evap_mean                =   1.0446331381061E-08
(PID.TID 0000.0001) %MON exf_evap_sd                  =   1.1077266105312E-08
(PID.TID 0000.0001) %MON exf_evap_del2                =   1.3331752387743E-09
(PID.TID 0000.0001) %MON exf_swdown_max               =   7.1228007186306E+01
(PID.TID 0000.0001) %MON exf_swdown_min               =   9.0230817351836E-02
(PID.TID 0000.0001) %MON exf_swdown_mean              =   2.9474387260081E+01
(PID.TID 0000.0001) %MON exf_swdown_sd                =   2.1836403139162E+01
(PID.TID 0000.0001) %MON exf_swdown_del2              =   5.3306764797174E-01
(PID.TID 0000.0001) %MON exf_lwdown_max               =   3.0561793543081E+02
(PID.TID 0000.0001) %MON exf_lwdown_min               =   1.1589194395764E+02
(PID.TID 0000.0001) %MON exf_lwdown_mean              =   2.2583936565568E+02
(PID.TID 0000.0001) %MON exf_lwdown_sd                =   4.6305239399294E+01
(PID.TID 0000.0001) %MON exf_lwdown_del2              =   3.2439027772011E+00
(PID.TID 0000.0001) %MON exf_apressure_max            =   0.0000000000000E+00
(PID.TID 0000.0001) %MON exf_apressure_min            =   0.0000000000000E+00
(PID.TID 0000.0001) %MON exf_apressure_mean           =   0.0000000000000E+00
(PID.TID 0000.0001) %MON exf_apressure_sd             =   0.0000000000000E+00
(PID.TID 0000.0001) %MON exf_apressure_del2           =   0.0000000000000E+00
(PID.TID 0000.0001) %MON exf_runoff_max               =   0.0000000000000E+00
(PID.TID 0000.0001) %MON exf_runoff_min               =   0.0000000000000E+00
(PID.TID 0000.0001) %MON exf_runoff_mean              =   0.0000000000000E+00
(PID.TID 0000.0001) %MON exf_runoff_sd                =   0.0000000000000E+00
(PID.TID 0000.0001) %MON exf_runoff_del2              =   0.0000000000000E+00
(PID.TID 0000.0001) %MON exf_climsst_max              =   0.0000000000000E+00
(PID.TID 0000.0001) %MON exf_climsst_min              =   0.0000000000000E+00
(PID.TID 0000.0001) %MON exf_climsst_mean             =   0.0000000000000E+00
(PID.TID 0000.0001) %MON exf_climsst_sd               =   0.0000000000000E+00
(PID.TID 0000.0001) %MON exf_climsst_del2             =   0.0000000000000E+00
(PID.TID 0000.0001) %MON exf_climsss_max              =   3.5041624116116E+01
(PID.TID 0000.0001) %MON exf_climsss_min              =   3.0671628467372E+01
(PID.TID 0000.0001) %MON exf_climsss_mean             =   3.3462968935345E+01
(PID.TID 0000.0001) %MON exf_climsss_sd               =   1.0314580197633E+00
(PID.TID 0000.0001) %MON exf_climsss_del2             =   1.0007335642865E-01
(PID.TID 0000.0001) // =======================================================
(PID.TID 0000.0001) // End MONITOR EXF statistics
(PID.TID 0000.0001) // =======================================================
 ph-ice B  7  0.  0.  0.
 ph-ice C  7  4.07568753E+11
 cg2d: Sum(rhs),rhsMax =   3.08546518647257E-08  1.18167591216192E+00
(PID.TID 0000.0001) // =======================================================
(PID.TID 0000.0001) // Begin MONITOR SEAICE statistics
(PID.TID 0000.0001) // =======================================================
(PID.TID 0000.0001) %MON seaice_tsnumber              =                     8
(PID.TID 0000.0001) %MON seaice_time_sec              =   2.8800000000000E+04
(PID.TID 0000.0001) %MON seaice_uice_max              =   2.6753160284373E-01
(PID.TID 0000.0001) %MON seaice_uice_min              =  -8.8502450662288E-02
(PID.TID 0000.0001) %MON seaice_uice_mean             =   6.9613829915622E-02
(PID.TID 0000.0001) %MON seaice_uice_sd               =   8.3091865204257E-02
(PID.TID 0000.0001) %MON seaice_uice_del2             =   8.8607121524333E-03
(PID.TID 0000.0001) %MON seaice_vice_max              =   8.6568020773874E-02
(PID.TID 0000.0001) %MON seaice_vice_min              =  -2.2434575853518E-01
(PID.TID 0000.0001) %MON seaice_vice_mean             =  -6.1223774879039E-02
(PID.TID 0000.0001) %MON seaice_vice_sd               =   7.0132268052040E-02
(PID.TID 0000.0001) %MON seaice_vice_del2             =   8.0005910633414E-03
(PID.TID 0000.0001) %MON seaice_area_max              =   1.0000000000000E+00
(PID.TID 0000.0001) %MON seaice_area_min              =   0.0000000000000E+00
(PID.TID 0000.0001) %MON seaice_area_mean             =   6.2402840446793E-01
(PID.TID 0000.0001) %MON seaice_area_sd               =   4.5740421974193E-01
(PID.TID 0000.0001) %MON seaice_area_del2             =   5.3616903044999E-02
(PID.TID 0000.0001) %MON seaice_heff_max              =   5.4845941034762E-01
(PID.TID 0000.0001) %MON seaice_heff_min              =   0.0000000000000E+00
(PID.TID 0000.0001) %MON seaice_heff_mean             =   1.4210928149452E-01
(PID.TID 0000.0001) %MON seaice_heff_sd               =   1.7454225354380E-01
(PID.TID 0000.0001) %MON seaice_heff_del2             =   1.3200297599083E-02
(PID.TID 0000.0001) %MON seaice_hsnow_max             =   2.0628031960974E-01
(PID.TID 0000.0001) %MON seaice_hsnow_min             =   0.0000000000000E+00
(PID.TID 0000.0001) %MON seaice_hsnow_mean            =   1.1873224112962E-01
(PID.TID 0000.0001) %MON seaice_hsnow_sd              =   9.7409172567597E-02
(PID.TID 0000.0001) %MON seaice_hsnow_del2            =   6.5932180705757E-03
(PID.TID 0000.0001) // =======================================================
(PID.TID 0000.0001) // End MONITOR SEAICE statistics
(PID.TID 0000.0001) // =======================================================
(PID.TID 0000.0001) // =======================================================
(PID.TID 0000.0001) // Begin MONITOR EXF statistics
(PID.TID 0000.0001) // =======================================================
(PID.TID 0000.0001) %MON exf_tsnumber                 =                     8
(PID.TID 0000.0001) %MON exf_time_sec                 =   2.8800000000000E+04
(PID.TID 0000.0001) %MON exf_ustress_max              =   5.2249214879088E-02
(PID.TID 0000.0001) %MON exf_ustress_min              =  -9.3798929022905E-02
(PID.TID 0000.0001) %MON exf_ustress_mean             =   1.7966530731538E-02
(PID.TID 0000.0001) %MON exf_ustress_sd               =   2.3731959064862E-02
(PID.TID 0000.0001) %MON exf_ustress_del2             =   2.8199337121721E-03
(PID.TID 0000.0001) %MON exf_vstress_max              =   5.3835262836834E-02
(PID.TID 0000.0001) %MON exf_vstress_min              =  -5.8423863255016E-02
(PID.TID 0000.0001) %MON exf_vstress_mean             =  -5.4366048445663E-03
(PID.TID 0000.0001) %MON exf_vstress_sd               =   1.4450710049448E-02
(PID.TID 0000.0001) %MON exf_vstress_del2             =   1.6932442777172E-03
(PID.TID 0000.0001) %MON exf_hflux_max                =   6.2516667571616E+02
(PID.TID 0000.0001) %MON exf_hflux_min                =  -5.1290005257893E+01
(PID.TID 0000.0001) %MON exf_hflux_mean               =   1.4644475431973E+02
(PID.TID 0000.0001) %MON exf_hflux_sd                 =   1.8007072432062E+02
(PID.TID 0000.0001) %MON exf_hflux_del2               =   1.6310902898110E+01
(PID.TID 0000.0001) %MON exf_sflux_max                =   3.9024984842054E-08
(PID.TID 0000.0001) %MON exf_sflux_min                =  -8.8852274145798E-08
(PID.TID 0000.0001) %MON exf_sflux_mean               =  -2.5937395000632E-08
(PID.TID 0000.0001) %MON exf_sflux_sd                 =   3.0352649899195E-08
(PID.TID 0000.0001) %MON exf_sflux_del2               =   3.1646065406826E-09
(PID.TID 0000.0001) %MON exf_uwind_max                =   6.4684341618272E+00
(PID.TID 0000.0001) %MON exf_uwind_min                =  -6.8374523269674E+00
(PID.TID 0000.0001) %MON exf_uwind_mean               =   2.7706331523584E+00
(PID.TID 0000.0001) %MON exf_uwind_sd                 =   2.9922491036980E+00
(PID.TID 0000.0001) %MON exf_uwind_del2               =   3.1577589455021E-01
(PID.TID 0000.0001) %MON exf_vwind_max                =   3.9243096588739E+00
(PID.TID 0000.0001) %MON exf_vwind_min                =  -6.0124561096150E+00
(PID.TID 0000.0001) %MON exf_vwind_mean               =  -7.5595649652871E-01
(PID.TID 0000.0001) %MON exf_vwind_sd                 =   1.7302112611019E+00
(PID.TID 0000.0001) %MON exf_vwind_del2               =   1.9327792057372E-01
(PID.TID 0000.0001) %MON exf_wspeed_max               =   7.8835880550853E+00
(PID.TID 0000.0001) %MON exf_wspeed_min               =   4.5840953253040E-01
(PID.TID 0000.0001) %MON exf_wspeed_mean              =   4.1989448725728E+00
(PID.TID 0000.0001) %MON exf_wspeed_sd                =   1.6012263903992E+00
(PID.TID 0000.0001) %MON exf_wspeed_del2              =   3.7736312737620E-01
(PID.TID 0000.0001) %MON exf_atemp_max                =   2.8186911527707E+02
(PID.TID 0000.0001) %MON exf_atemp_min                =   2.3642604936277E+02
(PID.TID 0000.0001) %MON exf_atemp_mean               =   2.6390890424337E+02
(PID.TID 0000.0001) %MON exf_atemp_sd                 =   1.1995114884474E+01
(PID.TID 0000.0001) %MON exf_atemp_del2               =   6.4957710131818E-01
(PID.TID 0000.0001) %MON exf_aqh_max                  =   6.3176006167781E-03
(PID.TID 0000.0001) %MON exf_aqh_min                  =   1.6293992018683E-04
(PID.TID 0000.0001) %MON exf_aqh_mean                 =   2.4758800589519E-03
(PID.TID 0000.0001) %MON exf_aqh_sd                   =   1.4256836550895E-03
(PID.TID 0000.0001) %MON exf_aqh_del2                 =   6.8032440110466E-05
(PID.TID 0000.0001) %MON exf_lwflux_max               =   1.8160657786433E+02
(PID.TID 0000.0001) %MON exf_lwflux_min               =   2.7042773776379E+01
(PID.TID 0000.0001) %MON exf_lwflux_mean              =   7.5278546190357E+01
(PID.TID 0000.0001) %MON exf_lwflux_sd                =   4.2775411835436E+01
(PID.TID 0000.0001) %MON exf_lwflux_del2              =   3.2322460601697E+00
(PID.TID 0000.0001) %MON exf_precip_max               =   1.0499871454869E-07
(PID.TID 0000.0001) %MON exf_precip_min               =   2.7252357516229E-10
(PID.TID 0000.0001) %MON exf_precip_mean              =   3.6389993790810E-08
(PID.TID 0000.0001) %MON exf_precip_sd                =   2.0581769987393E-08
(PID.TID 0000.0001) %MON exf_precip_del2              =   2.5593765312607E-09
(PID.TID 0000.0001) %MON exf_snowprecip_max           =   0.0000000000000E+00
(PID.TID 0000.0001) %MON exf_snowprecip_min           =   0.0000000000000E+00
(PID.TID 0000.0001) %MON exf_snowprecip_mean          =   0.0000000000000E+00
(PID.TID 0000.0001) %MON exf_snowprecip_sd            =   0.0000000000000E+00
(PID.TID 0000.0001) %MON exf_snowprecip_del2          =   0.0000000000000E+00
(PID.TID 0000.0001) %MON exf_swflux_max               =  -8.1208018494434E-02
(PID.TID 0000.0001) %MON exf_swflux_min               =  -6.4124076818247E+01
(PID.TID 0000.0001) %MON exf_swflux_mean              =  -2.6537480749947E+01
(PID.TID 0000.0001) %MON exf_swflux_sd                =   1.9656602581253E+01
(PID.TID 0000.0001) %MON exf_swflux_del2              =   4.7986775712052E-01
(PID.TID 0000.0001) %MON exf_evap_max                 =   4.5343890978704E-08
(PID.TID 0000.0001) %MON exf_evap_min                 =  -4.2045649086899E-09
(PID.TID 0000.0001) %MON exf_evap_mean                =   1.0452598790179E-08
(PID.TID 0000.0001) %MON exf_evap_sd                  =   1.1076424261129E-08
(PID.TID 0000.0001) %MON exf_evap_del2                =   1.3335978051493E-09
(PID.TID 0000.0001) %MON exf_swdown_max               =   7.1248974242497E+01
(PID.TID 0000.0001) %MON exf_swdown_min               =   9.0231131660482E-02
(PID.TID 0000.0001) %MON exf_swdown_mean              =   2.9486089722164E+01
(PID.TID 0000.0001) %MON exf_swdown_sd                =   2.1840669534725E+01
(PID.TID 0000.0001) %MON exf_swdown_del2              =   5.3318639680058E-01
(PID.TID 0000.0001) %MON exf_lwdown_max               =   3.0560910934698E+02
(PID.TID 0000.0001) %MON exf_lwdown_min               =   1.1587683707899E+02
(PID.TID 0000.0001) %MON exf_lwdown_mean              =   2.2582365832661E+02
(PID.TID 0000.0001) %MON exf_lwdown_sd                =   4.6309216947189E+01
(PID.TID 0000.0001) %MON exf_lwdown_del2              =   3.2439144172738E+00
(PID.TID 0000.0001) %MON exf_apressure_max            =   0.0000000000000E+00
(PID.TID 0000.0001) %MON exf_apressure_min            =   0.0000000000000E+00
(PID.TID 0000.0001) %MON exf_apressure_mean           =   0.0000000000000E+00
(PID.TID 0000.0001) %MON exf_apressure_sd             =   0.0000000000000E+00
(PID.TID 0000.0001) %MON exf_apressure_del2           =   0.0000000000000E+00
(PID.TID 0000.0001) %MON exf_runoff_max               =   0.0000000000000E+00
(PID.TID 0000.0001) %MON exf_runoff_min               =   0.0000000000000E+00
(PID.TID 0000.0001) %MON exf_runoff_mean              =   0.0000000000000E+00
(PID.TID 0000.0001) %MON exf_runoff_sd                =   0.0000000000000E+00
(PID.TID 0000.0001) %MON exf_runoff_del2              =   0.0000000000000E+00
(PID.TID 0000.0001) %MON exf_climsst_max              =   0.0000000000000E+00
(PID.TID 0000.0001) %MON exf_climsst_min              =   0.0000000000000E+00
(PID.TID 0000.0001) %MON exf_climsst_mean             =   0.0000000000000E+00
(PID.TID 0000.0001) %MON exf_climsst_sd               =   0.0000000000000E+00
(PID.TID 0000.0001) %MON exf_climsst_del2             =   0.0000000000000E+00
(PID.TID 0000.0001) %MON exf_climsss_max              =   3.5041808863155E+01
(PID.TID 0000.0001) %MON exf_climsss_min              =   3.0672387795370E+01
(PID.TID 0000.0001) %MON exf_climsss_mean             =   3.3463490268825E+01
(PID.TID 0000.0001) %MON exf_climsss_sd               =   1.0313879583737E+00
(PID.TID 0000.0001) %MON exf_climsss_del2             =   1.0005612713826E-01
(PID.TID 0000.0001) // =======================================================
(PID.TID 0000.0001) // End MONITOR EXF statistics
(PID.TID 0000.0001) // =======================================================
 ph-ice B  8  0.  0.  0.
 ph-ice C  8  4.58145351E+11
 cg2d: Sum(rhs),rhsMax =   2.95458728177822E-08  1.16732732372420E+00
(PID.TID 0000.0001) // =======================================================
(PID.TID 0000.0001) // Begin MONITOR SEAICE statistics
(PID.TID 0000.0001) // =======================================================
(PID.TID 0000.0001) %MON seaice_tsnumber              =                     9
(PID.TID 0000.0001) %MON seaice_time_sec              =   3.2400000000000E+04
(PID.TID 0000.0001) %MON seaice_uice_max              =   2.6896932863162E-01
(PID.TID 0000.0001) %MON seaice_uice_min              =  -8.0042763881330E-02
(PID.TID 0000.0001) %MON seaice_uice_mean             =   6.2853895708130E-02
(PID.TID 0000.0001) %MON seaice_uice_sd               =   7.9023660346126E-02
(PID.TID 0000.0001) %MON seaice_uice_del2             =   7.8428581934781E-03
(PID.TID 0000.0001) %MON seaice_vice_max              =   7.8808436822644E-02
(PID.TID 0000.0001) %MON seaice_vice_min              =  -2.0876036217833E-01
(PID.TID 0000.0001) %MON seaice_vice_mean             =  -5.8595944677997E-02
(PID.TID 0000.0001) %MON seaice_vice_sd               =   6.4348818129599E-02
(PID.TID 0000.0001) %MON seaice_vice_del2             =   7.5771906760682E-03
(PID.TID 0000.0001) %MON seaice_area_max              =   1.0000000000000E+00
(PID.TID 0000.0001) %MON seaice_area_min              =   0.0000000000000E+00
(PID.TID 0000.0001) %MON seaice_area_mean             =   6.2385269509138E-01
(PID.TID 0000.0001) %MON seaice_area_sd               =   4.5701602843997E-01
(PID.TID 0000.0001) %MON seaice_area_del2             =   5.3473207125343E-02
(PID.TID 0000.0001) %MON seaice_heff_max              =   5.4880172478627E-01
(PID.TID 0000.0001) %MON seaice_heff_min              =   0.0000000000000E+00
(PID.TID 0000.0001) %MON seaice_heff_mean             =   1.4197222349225E-01
(PID.TID 0000.0001) %MON seaice_heff_sd               =   1.7470067090718E-01
(PID.TID 0000.0001) %MON seaice_heff_del2             =   1.3179544679809E-02
(PID.TID 0000.0001) %MON seaice_hsnow_max             =   2.0706544703537E-01
(PID.TID 0000.0001) %MON seaice_hsnow_min             =   0.0000000000000E+00
(PID.TID 0000.0001) %MON seaice_hsnow_mean            =   1.1888097081232E-01
(PID.TID 0000.0001) %MON seaice_hsnow_sd              =   9.7521343290865E-02
(PID.TID 0000.0001) %MON seaice_hsnow_del2            =   6.6252286494968E-03
(PID.TID 0000.0001) // =======================================================
(PID.TID 0000.0001) // End MONITOR SEAICE statistics
(PID.TID 0000.0001) // =======================================================
(PID.TID 0000.0001) // =======================================================
(PID.TID 0000.0001) // Begin MONITOR EXF statistics
(PID.TID 0000.0001) // =======================================================
(PID.TID 0000.0001) %MON exf_tsnumber                 =                     9
(PID.TID 0000.0001) %MON exf_time_sec                 =   3.2400000000000E+04
(PID.TID 0000.0001) %MON exf_ustress_max              =   5.2253931426468E-02
(PID.TID 0000.0001) %MON exf_ustress_min              =  -9.3801402378655E-02
(PID.TID 0000.0001) %MON exf_ustress_mean             =   1.7972512154505E-02
(PID.TID 0000.0001) %MON exf_ustress_sd               =   2.3737462859042E-02
(PID.TID 0000.0001) %MON exf_ustress_del2             =   2.8207101813644E-03
(PID.TID 0000.0001) %MON exf_vstress_max              =   5.3836885571566E-02
(PID.TID 0000.0001) %MON exf_vstress_min              =  -5.8402245562424E-02
(PID.TID 0000.0001) %MON exf_vstress_mean             =  -5.4330586862027E-03
(PID.TID 0000.0001) %MON exf_vstress_sd               =   1.4451996103907E-02
(PID.TID 0000.0001) %MON exf_vstress_del2             =   1.6932501543415E-03
(PID.TID 0000.0001) %MON exf_hflux_max                =   6.2523607820826E+02
(PID.TID 0000.0001) %MON exf_hflux_min                =  -5.1341825210881E+01
(PID.TID 0000.0001) %MON exf_hflux_mean               =   1.4650251223451E+02
(PID.TID 0000.0001) %MON exf_hflux_sd                 =   1.8009644751944E+02
(PID.TID 0000.0001) %MON exf_hflux_del2               =   1.6313457698034E+01
(PID.TID 0000.0001) %MON exf_sflux_max                =   3.9027165063431E-08
(PID.TID 0000.0001) %MON exf_sflux_min                =  -8.8881916035670E-08
(PID.TID 0000.0001) %MON exf_sflux_mean               =  -2.5931988118370E-08
(PID.TID 0000.0001) %MON exf_sflux_sd                 =   3.0353385439322E-08
(PID.TID 0000.0001) %MON exf_sflux_del2               =   3.1652740166417E-09
(PID.TID 0000.0001) %MON exf_uwind_max                =   6.4689416142761E+00
(PID.TID 0000.0001) %MON exf_uwind_min                =  -6.8374791086697E+00
(PID.TID 0000.0001) %MON exf_uwind_mean               =   2.7707407047028E+00
(PID.TID 0000.0001) %MON exf_uwind_sd                 =   2.9925253914175E+00
(PID.TID 0000.0001) %MON exf_uwind_del2               =   3.1578823099586E-01
(PID.TID 0000.0001) %MON exf_vwind_max                =   3.9243398396695E+00
(PID.TID 0000.0001) %MON exf_vwind_min                =  -6.0115501997901E+00
(PID.TID 0000.0001) %MON exf_vwind_mean               =  -7.5533872343860E-01
(PID.TID 0000.0001) %MON exf_vwind_sd                 =   1.7303202080462E+00
(PID.TID 0000.0001) %MON exf_vwind_del2               =   1.9327127420947E-01
(PID.TID 0000.0001) %MON exf_wspeed_max               =   7.8836263063842E+00
(PID.TID 0000.0001) %MON exf_wspeed_min               =   4.5816671047235E-01
(PID.TID 0000.0001) %MON exf_wspeed_mean              =   4.1990483480424E+00
(PID.TID 0000.0001) %MON exf_wspeed_sd                =   1.6014836406520E+00
(PID.TID 0000.0001) %MON exf_wspeed_del2              =   3.7741640417905E-01
(PID.TID 0000.0001) %MON exf_atemp_max                =   2.8186740312420E+02
(PID.TID 0000.0001) %MON exf_atemp_min                =   2.3642158439511E+02
(PID.TID 0000.0001) %MON exf_atemp_mean               =   2.6390426016196E+02
(PID.TID 0000.0001) %MON exf_atemp_sd                 =   1.1996579317035E+01
(PID.TID 0000.0001) %MON exf_atemp_del2               =   6.4959643564840E-01
(PID.TID 0000.0001) %MON exf_aqh_max                  =   6.3169040759170E-03
(PID.TID 0000.0001) %MON exf_aqh_min                  =   1.6284581668843E-04
(PID.TID 0000.0001) %MON exf_aqh_mean                 =   2.4753197025473E-03
(PID.TID 0000.0001) %MON exf_aqh_sd                   =   1.4255808388841E-03
(PID.TID 0000.0001) %MON exf_aqh_del2                 =   6.8018772549319E-05
(PID.TID 0000.0001) %MON exf_lwflux_max               =   1.8162256096876E+02
(PID.TID 0000.0001) %MON exf_lwflux_min               =   2.7024547891275E+01
(PID.TID 0000.0001) %MON exf_lwflux_mean              =   7.5295883599275E+01
(PID.TID 0000.0001) %MON exf_lwflux_sd                =   4.2777915892276E+01
(PID.TID 0000.0001) %MON exf_lwflux_del2              =   3.2320746698302E+00
(PID.TID 0000.0001) %MON exf_precip_max               =   1.0500009599131E-07
(PID.TID 0000.0001) %MON exf_precip_min               =   2.7238964868961E-10
(PID.TID 0000.0001) %MON exf_precip_mean              =   3.6389982946776E-08
(PID.TID 0000.0001) %MON exf_precip_sd                =   2.0582225664103E-08
(PID.TID 0000.0001) %MON exf_precip_del2              =   2.5599042244504E-09
(PID.TID 0000.0001) %MON exf_snowprecip_max           =   0.0000000000000E+00
(PID.TID 0000.0001) %MON exf_snowprecip_min           =   0.0000000000000E+00
(PID.TID 0000.0001) %MON exf_snowprecip_mean          =   0.0000000000000E+00
(PID.TID 0000.0001) %MON exf_snowprecip_sd            =   0.0000000000000E+00
(PID.TID 0000.0001) %MON exf_snowprecip_del2          =   0.0000000000000E+00
(PID.TID 0000.0001) %MON exf_swflux_max               =  -8.1208301372215E-02
(PID.TID 0000.0001) %MON exf_swflux_min               =  -6.4142947168819E+01
(PID.TID 0000.0001) %MON exf_swflux_mean              =  -2.6548012965822E+01
(PID.TID 0000.0001) %MON exf_swflux_sd                =   1.9660442927159E+01
(PID.TID 0000.0001) %MON exf_swflux_del2              =   4.7997463106648E-01
(PID.TID 0000.0001) %MON exf_evap_max                 =   4.5345408489150E-08
(PID.TID 0000.0001) %MON exf_evap_min                 =  -4.2118523686469E-09
(PID.TID 0000.0001) %MON exf_evap_mean                =   1.0457994828406E-08
(PID.TID 0000.0001) %MON exf_evap_sd                  =   1.1076056852104E-08
(PID.TID 0000.0001) %MON exf_evap_del2                =   1.3338825110328E-09
(PID.TID 0000.0001) %MON exf_swdown_max               =   7.1269941298688E+01
(PID.TID 0000.0001) %MON exf_swdown_min               =   9.0231445969128E-02
(PID.TID 0000.0001) %MON exf_swdown_mean              =   2.9497792184247E+01
(PID.TID 0000.0001) %MON exf_swdown_sd                =   2.1844936585733E+01
(PID.TID 0000.0001) %MON exf_swdown_del2              =   5.3330514562942E-01
(PID.TID 0000.0001) %MON exf_lwdown_max               =   3.0560028326316E+02
(PID.TID 0000.0001) %MON exf_lwdown_min               =   1.1586173020035E+02
(PID.TID 0000.0001) %MON exf_lwdown_mean              =   2.2580795099755E+02
(PID.TID 0000.0001) %MON exf_lwdown_sd                =   4.6313195660870E+01
(PID.TID 0000.0001) %MON exf_lwdown_del2              =   3.2439260573465E+00
(PID.TID 0000.0001) %MON exf_apressure_max            =   0.0000000000000E+00
(PID.TID 0000.0001) %MON exf_apressure_min            =   0.0000000000000E+00
(PID.TID 0000.0001) %MON exf_apressure_mean           =   0.0000000000000E+00
(PID.TID 0000.0001) %MON exf_apressure_sd             =   0.0000000000000E+00
(PID.TID 0000.0001) %MON exf_apressure_del2           =   0.0000000000000E+00
(PID.TID 0000.0001) %MON exf_runoff_max               =   0.0000000000000E+00
(PID.TID 0000.0001) %MON exf_runoff_min               =   0.0000000000000E+00
(PID.TID 0000.0001) %MON exf_runoff_mean              =   0.0000000000000E+00
(PID.TID 0000.0001) %MON exf_runoff_sd                =   0.0000000000000E+00
(PID.TID 0000.0001) %MON exf_runoff_del2              =   0.0000000000000E+00
(PID.TID 0000.0001) %MON exf_climsst_max              =   0.0000000000000E+00
(PID.TID 0000.0001) %MON exf_climsst_min              =   0.0000000000000E+00
(PID.TID 0000.0001) %MON exf_climsst_mean             =   0.0000000000000E+00
(PID.TID 0000.0001) %MON exf_climsst_sd               =   0.0000000000000E+00
(PID.TID 0000.0001) %MON exf_climsst_del2             =   0.0000000000000E+00
(PID.TID 0000.0001) %MON exf_climsss_max              =   3.5041993610194E+01
(PID.TID 0000.0001) %MON exf_climsss_min              =   3.0673147123368E+01
(PID.TID 0000.0001) %MON exf_climsss_mean             =   3.3464011602304E+01
(PID.TID 0000.0001) %MON exf_climsss_sd               =   1.0313181272348E+00
(PID.TID 0000.0001) %MON exf_climsss_del2             =   1.0003889784787E-01
(PID.TID 0000.0001) // =======================================================
(PID.TID 0000.0001) // End MONITOR EXF statistics
(PID.TID 0000.0001) // =======================================================
 ph-ice B  9  0.  0.  0.
 ph-ice C  9  5.08667917E+11
 cg2d: Sum(rhs),rhsMax =   2.90789533494151E-08  1.15038865825590E+00
(PID.TID 0000.0001) // =======================================================
(PID.TID 0000.0001) // Begin MONITOR SEAICE statistics
(PID.TID 0000.0001) // =======================================================
(PID.TID 0000.0001) %MON seaice_tsnumber              =                    10
(PID.TID 0000.0001) %MON seaice_time_sec              =   3.6000000000000E+04
(PID.TID 0000.0001) %MON seaice_uice_max              =   2.6070967213290E-01
(PID.TID 0000.0001) %MON seaice_uice_min              =  -7.4569485543728E-02
(PID.TID 0000.0001) %MON seaice_uice_mean             =   5.6948842238701E-02
(PID.TID 0000.0001) %MON seaice_uice_sd               =   7.3694992327236E-02
(PID.TID 0000.0001) %MON seaice_uice_del2             =   6.9823135803820E-03
(PID.TID 0000.0001) %MON seaice_vice_max              =   7.2855153904124E-02
(PID.TID 0000.0001) %MON seaice_vice_min              =  -1.8167527187901E-01
(PID.TID 0000.0001) %MON seaice_vice_mean             =  -5.2953409974608E-02
(PID.TID 0000.0001) %MON seaice_vice_sd               =   5.6405700679368E-02
(PID.TID 0000.0001) %MON seaice_vice_del2             =   6.8591627111773E-03
(PID.TID 0000.0001) %MON seaice_area_max              =   1.0000000000000E+00
(PID.TID 0000.0001) %MON seaice_area_min              =   0.0000000000000E+00
(PID.TID 0000.0001) %MON seaice_area_mean             =   6.2310743411109E-01
(PID.TID 0000.0001) %MON seaice_area_sd               =   4.5675715380202E-01
(PID.TID 0000.0001) %MON seaice_area_del2             =   5.3102396802640E-02
(PID.TID 0000.0001) %MON seaice_heff_max              =   5.4914440243893E-01
(PID.TID 0000.0001) %MON seaice_heff_min              =   0.0000000000000E+00
(PID.TID 0000.0001) %MON seaice_heff_mean             =   1.4182054788386E-01
(PID.TID 0000.0001) %MON seaice_heff_sd               =   1.7482818397978E-01
(PID.TID 0000.0001) %MON seaice_heff_del2             =   1.3169834696851E-02
(PID.TID 0000.0001) %MON seaice_hsnow_max             =   2.0785054838239E-01
(PID.TID 0000.0001) %MON seaice_hsnow_min             =   0.0000000000000E+00
(PID.TID 0000.0001) %MON seaice_hsnow_mean            =   1.1901259288867E-01
(PID.TID 0000.0001) %MON seaice_hsnow_sd              =   9.7627028712414E-02
(PID.TID 0000.0001) %MON seaice_hsnow_del2            =   6.6467677164798E-03
(PID.TID 0000.0001) // =======================================================
(PID.TID 0000.0001) // End MONITOR SEAICE statistics
(PID.TID 0000.0001) // =======================================================
(PID.TID 0000.0001)  MDS_READ_FIELD: opening file: xx_atemp.0000000000.001.001.data
(PID.TID 0000.0001)  MDS_READ_FIELD: opening file: xx_atemp.0000000000.001.001.data
(PID.TID 0000.0001)  MDS_READ_FIELD: opening file: xx_atemp.0000000000.001.001.data
(PID.TID 0000.0001)  MDS_READ_FIELD: opening file: xx_atemp.0000000000.001.001.data
(PID.TID 0000.0001)  MDS_READ_FIELD: opening file: xx_aqh.0000000000.001.001.data
(PID.TID 0000.0001)  MDS_READ_FIELD: opening file: xx_aqh.0000000000.001.001.data
(PID.TID 0000.0001)  MDS_READ_FIELD: opening file: xx_aqh.0000000000.001.001.data
(PID.TID 0000.0001)  MDS_READ_FIELD: opening file: xx_aqh.0000000000.001.001.data
(PID.TID 0000.0001)  MDS_READ_FIELD: opening file: xx_uwind.0000000000.001.001.data
(PID.TID 0000.0001)  MDS_READ_FIELD: opening file: xx_uwind.0000000000.001.001.data
(PID.TID 0000.0001)  MDS_READ_FIELD: opening file: xx_uwind.0000000000.001.001.data
(PID.TID 0000.0001)  MDS_READ_FIELD: opening file: xx_uwind.0000000000.001.001.data
(PID.TID 0000.0001)  MDS_READ_FIELD: opening file: xx_vwind.0000000000.001.001.data
(PID.TID 0000.0001)  MDS_READ_FIELD: opening file: xx_vwind.0000000000.001.001.data
(PID.TID 0000.0001)  MDS_READ_FIELD: opening file: xx_vwind.0000000000.001.001.data
(PID.TID 0000.0001)  MDS_READ_FIELD: opening file: xx_vwind.0000000000.001.001.data
(PID.TID 0000.0001)  MDS_READ_FIELD: opening file: xx_precip.0000000000.001.001.data
(PID.TID 0000.0001)  MDS_READ_FIELD: opening file: xx_precip.0000000000.001.001.data
(PID.TID 0000.0001)  MDS_READ_FIELD: opening file: xx_precip.0000000000.001.001.data
(PID.TID 0000.0001)  MDS_READ_FIELD: opening file: xx_precip.0000000000.001.001.data
(PID.TID 0000.0001)  MDS_READ_FIELD: opening file: xx_swdown.0000000000.001.001.data
(PID.TID 0000.0001)  MDS_READ_FIELD: opening file: xx_swdown.0000000000.001.001.data
(PID.TID 0000.0001)  MDS_READ_FIELD: opening file: xx_swdown.0000000000.001.001.data
(PID.TID 0000.0001)  MDS_READ_FIELD: opening file: xx_swdown.0000000000.001.001.data
(PID.TID 0000.0001)  MDS_READ_FIELD: opening file: xx_lwdown.0000000000.001.001.data
(PID.TID 0000.0001)  MDS_READ_FIELD: opening file: xx_lwdown.0000000000.001.001.data
(PID.TID 0000.0001)  MDS_READ_FIELD: opening file: xx_lwdown.0000000000.001.001.data
(PID.TID 0000.0001)  MDS_READ_FIELD: opening file: xx_lwdown.0000000000.001.001.data
(PID.TID 0000.0001)  MDS_READ_FIELD: opening file: xx_snowprecip.0000000000.001.001.data
(PID.TID 0000.0001)  MDS_READ_FIELD: opening file: xx_snowprecip.0000000000.001.001.data
(PID.TID 0000.0001)  MDS_READ_FIELD: opening file: xx_snowprecip.0000000000.001.001.data
(PID.TID 0000.0001)  MDS_READ_FIELD: opening file: xx_snowprecip.0000000000.001.001.data
(PID.TID 0000.0001)  MDS_READ_FIELD: opening file: xx_apressure.0000000000.001.001.data
(PID.TID 0000.0001)  MDS_READ_FIELD: opening file: xx_apressure.0000000000.001.001.data
(PID.TID 0000.0001)  MDS_READ_FIELD: opening file: xx_apressure.0000000000.001.001.data
(PID.TID 0000.0001)  MDS_READ_FIELD: opening file: xx_apressure.0000000000.001.001.data
(PID.TID 0000.0001)  MDS_READ_FIELD: opening file: psbar.0000000000.001.001.data
(PID.TID 0000.0001)  cost_ssh: offset_sum =  0.710000000000000E+02
(PID.TID 0000.0001)  MDS_READ_FIELD: opening file: psbar.0000000000.001.001.data
(PID.TID 0000.0001) ph-cost call cost_sst
(PID.TID 0000.0001)  MDS_READ_FIELD: opening file: tbar.0000000000.001.001.data
(PID.TID 0000.0001) ph-cost call cost_theta
(PID.TID 0000.0001)  MDS_READ_FIELD: opening file: tbar.0000000000.001.001.data
(PID.TID 0000.0001) ph-cost call cost_salt
(PID.TID 0000.0001)  MDS_READ_FIELD: opening file: sbar.0000000000.001.001.data
(PID.TID 0000.0001) ph-cost call cost_smrarea
(PID.TID 0000.0001) ph-cost smrarea   0.0000000000E+00  0.0000000000E+00
 --> f_ice     = 0.508667916723298E+12
 --> f_smrarea = 0.000000000000000E+00
 --> f_temp    = 0.000000000000000E+00
 --> f_salt    = 0.000000000000000E+00
 --> f_temp0   = 0.000000000000000E+00
 --> f_salt0   = 0.000000000000000E+00
 --> f_temp0smoo = 0.000000000000000E+00
 --> f_salt0smoo = 0.000000000000000E+00
 --> f_sst     = 0.423905732936309E+04
 --> f_tmi     = 0.000000000000000E+00
 --> f_sss     = 0.000000000000000E+00
 --> f_ssh       = 0.000000000000000E+00
 --> f_tp        = 0.000000000000000E+00
 --> f_ers       = 0.000000000000000E+00
 --> f_gfo       = 0.000000000000000E+00
 --> f_tauu    = 0.000000000000000E+00
 --> f_tauum   = 0.000000000000000E+00
 --> f_tauusmoo = 0.000000000000000E+00
 --> f_tauv    = 0.000000000000000E+00
 --> f_tauvm   = 0.000000000000000E+00
 --> f_tauvsmoo = 0.000000000000000E+00
 --> f_hflux   = 0.000000000000000E+00
 --> f_hfluxm  = 0.000000000000000E+00
 --> f_hfluxmm = 0.000000000000000E+00
 --> f_hfluxsmoo = 0.000000000000000E+00
 --> f_sflux   = 0.000000000000000E+00
 --> f_sfluxm  = 0.000000000000000E+00
 --> f_sfluxmm = 0.000000000000000E+00
 --> f_sfluxsmoo = 0.000000000000000E+00
 --> f_uwind     = 0.000000000000000E+00
 --> f_vwind     = 0.000000000000000E+00
 --> f_atemp     = 0.200000000000000E-07
 --> f_aqh     = 0.000000000000000E+00
 --> f_precip  = 0.000000000000000E+00
 --> f_swflux  = 0.000000000000000E+00
 --> f_swdown  = 0.000000000000000E+00
 --> f_uwindm     = 0.000000000000000E+00
 --> f_vwindm     = 0.000000000000000E+00
 --> f_atempm     = 0.250000000000000E-08
 --> f_aqhm     = 0.000000000000000E+00
 --> f_precipm  = 0.000000000000000E+00
 --> f_swfluxm  = 0.000000000000000E+00
 --> f_swdownm  = 0.000000000000000E+00
 --> f_uwindsmoo     = 0.000000000000000E+00
 --> f_vwindsmoo     = 0.000000000000000E+00
 --> f_atempsmoo     = 0.000000000000000E+00
 --> f_aqhsmoo     = 0.000000000000000E+00
 --> f_precipsmoo  = 0.000000000000000E+00
 --> f_swfluxsmoo  = 0.000000000000000E+00
 --> f_swdownsmoo  = 0.000000000000000E+00
 --> f_atl     = 0.000000000000000E+00
 --> f_ctdt    = 0.000000000000000E+00
 --> f_ctds    = 0.000000000000000E+00
 --> f_ctdtclim= 0.000000000000000E+00
 --> f_ctdsclim= 0.000000000000000E+00
 --> f_xbt     = 0.000000000000000E+00
 --> f_argot   = 0.000000000000000E+00
 --> f_argos   = 0.000000000000000E+00
 --> f_drifter   = 0.000000000000000E+00
 --> f_tdrift  = 0.000000000000000E+00
 --> f_sdrift  = 0.000000000000000E+00
 --> f_wdrift  = 0.000000000000000E+00
 --> f_scatx   = 0.000000000000000E+00
 --> f_scaty   = 0.000000000000000E+00
 --> f_scatxm  = 0.000000000000000E+00
 --> f_scatym  = 0.000000000000000E+00
 --> f_obcsn   = 0.000000000000000E+00
 --> f_obcss   = 0.000000000000000E+00
 --> f_obcsw   = 0.000000000000000E+00
 --> f_obcse   = 0.000000000000000E+00
 --> f_ageos   = 0.000000000000000E+00
 --> f_curmtr  = 0.000000000000000E+00
 --> f_kapgm   = 0.000000000000000E+00
 --> f_diffkr  = 0.000000000000000E+00
 --> f_eddytau = 0.000000000000000E+00
 --> f_hfluxmm2           = 0.000000000000000E+00
 --> f_sfluxmm2           = 0.000000000000000E+00
 --> objf_hmean           = 0.920256452576563E-02
 --> fc               = 0.508667920962355E+12
(PID.TID 0000.0001)  MDS_READ_FIELD: opening file: xx_atemp.0000000000.001.001.data
 grad-res -------------------------------
 grad-res     0    4   15    1    1    1    1    1   0.508667309413E+12 0.508667609843E+12 0.508667920962E+12
 grad-res     0    4    4    7  150    1    1    1   0.746626553595E+06 -.155559915863E+10 0.208450366209E+04
(PID.TID 0000.0001)       precision_grdchk_result ADM     5.08667309412764E+11     7.46626553594949E+05
 ph-grd  ierr ---------------------------
 ph-grd  ierr =  0, icomp =  7, ichknum =  4
 ph-grd -->hit<--  16 1 1 1
(PID.TID 0000.0001)  MDS_READ_FIELD: opening file: adxx_atemp.0000000000.001.001.data
(PID.TID 0000.0001)  MDS_READ_FIELD: opening file: xx_atemp.0000000000.001.001.data
(PID.TID 0000.0001) 
(PID.TID 0000.0001)  cal_TimeStamp: iter =          0 time =  0.00000000E+00
(PID.TID 0000.0001)                 date =   19790101           0
(PID.TID 0000.0001) 
(PID.TID 0000.0001) // =======================================================
(PID.TID 0000.0001) // Field Model R_low (ini_masks_etc) at iteration          1
(PID.TID 0000.0001) // CMIN =         -4.200000000000000E+03
(PID.TID 0000.0001) // CMAX =         -5.500000000000000E+01
(PID.TID 0000.0001) // CINT =          1.535185185185185E+02
(PID.TID 0000.0001) // SYMBOLS (CMIN->CMAX): -abcdefghijklmnopqrstuvwxyz+
(PID.TID 0000.0001) //                  0.0: .
(PID.TID 0000.0001) // RANGE I (Lo:Hi:Step):(  -2:  23:   1)
(PID.TID 0000.0001) // RANGE J (Lo:Hi:Step):(  19:  -2:  -1)
(PID.TID 0000.0001) // RANGE K (Lo:Hi:Step):(   1:   1:   1)
(PID.TID 0000.0001) // =======================================================
(PID.TID 0000.0001) K =   1
(PID.TID 0000.0001) //                I=7       I=17
(PID.TID 0000.0001) // |--J--|210123456|890123456|890123
(PID.TID 0000.0001) //     19 cc-..........+.zzxmgcc-...
(PID.TID 0000.0001) //     18 jc-.......+zzz..zzsmjc-...
(PID.TID 0000.0001) //     17 wc-........++z+++z+wwc-...
(PID.TID 0000.0001) //     16 ....zyyz................zy
(PID.TID 0000.0001) //     15 ...yxwwuspxyxz.........yxw
(PID.TID 0000.0001) //     14 ....+wwspppsxzz.........+w
(PID.TID 0000.0001) //     13 .......zwsppsyz...........
(PID.TID 0000.0001) //     12 .........+ypswzz+.........
(PID.TID 0000.0001) //     11 ...........+wwy+..........
(PID.TID 0000.0001) //     10 ..........zzzywy+.........
(PID.TID 0000.0001) //      9 ..z.......+zxsmmm+....z...
(PID.TID 0000.0001) //      8 ..s.....zzzxumjjjjuz..s...
(PID.TID 0000.0001) //      7 pmj......z.+zmjggggjpmj...
(PID.TID 0000.0001) //      6 ggg.........zxmjggggggg...
(PID.TID 0000.0001) //      5 ggg..........zzsjgggggg...
(PID.TID 0000.0001) //      4 ccg............zzmgcccg...
(PID.TID 0000.0001) //      3 cc-..........+.zzxmgcc-...
(PID.TID 0000.0001) //      2 jc-.......+zzz..zzsmjc-...
(PID.TID 0000.0001) //      1 wc-........++z+++z+wwc-...
(PID.TID 0000.0001) //      0 ....zyyz................zy
(PID.TID 0000.0001) //     -1 ...yxwwuspxyxz.........yxw
(PID.TID 0000.0001) //     -2 ....+wwspppsxzz.........+w
(PID.TID 0000.0001) // =======================================================
(PID.TID 0000.0001) // END OF FIELD                                          =
(PID.TID 0000.0001) // =======================================================
(PID.TID 0000.0001) 
(PID.TID 0000.0001) // =======================================================
(PID.TID 0000.0001) // Field Model Ro_surf (ini_masks_etc) at iteration          1
(PID.TID 0000.0001) // CMIN =          1.000000000000000E+32
(PID.TID 0000.0001) // CMAX =         -1.000000000000000E+32
(PID.TID 0000.0001) // CINT =          0.000000000000000E+00
(PID.TID 0000.0001) // SYMBOLS (CMIN->CMAX): -abcdefghijklmnopqrstuvwxyz+
(PID.TID 0000.0001) //                  0.0: .
(PID.TID 0000.0001) // RANGE I (Lo:Hi:Step):(  -2:  23:   1)
(PID.TID 0000.0001) // RANGE J (Lo:Hi:Step):(  19:  -2:  -1)
(PID.TID 0000.0001) // RANGE K (Lo:Hi:Step):(   1:   1:   1)
(PID.TID 0000.0001) // =======================================================
(PID.TID 0000.0001) // =======================================================
(PID.TID 0000.0001) // END OF FIELD                                          =
(PID.TID 0000.0001) // =======================================================
(PID.TID 0000.0001) 
(PID.TID 0000.0001) // =======================================================
(PID.TID 0000.0001) // Field hFacC at iteration          1
(PID.TID 0000.0001) // CMIN =          1.000000000000000E+00
(PID.TID 0000.0001) // CMAX =          1.000000000000000E+00
(PID.TID 0000.0001) // CINT =          0.000000000000000E+00
(PID.TID 0000.0001) // SYMBOLS (CMIN->CMAX): -abcdefghijklmnopqrstuvwxyz+
(PID.TID 0000.0001) //                  0.0: .
(PID.TID 0000.0001) // RANGE I (Lo:Hi:Step):(  -2:  23:   1)
(PID.TID 0000.0001) // RANGE J (Lo:Hi:Step):(  19:  -2:  -1)
(PID.TID 0000.0001) // RANGE K (Lo:Hi:Step):(   1:   1:   1)
(PID.TID 0000.0001) // =======================================================
(PID.TID 0000.0001) // =======================================================
(PID.TID 0000.0001) // END OF FIELD                                          =
(PID.TID 0000.0001) // =======================================================
(PID.TID 0000.0001) 
(PID.TID 0000.0001) // =======================================================
(PID.TID 0000.0001) // Field hFacW at iteration          1
(PID.TID 0000.0001) // CMIN =          1.000000000000000E+00
(PID.TID 0000.0001) // CMAX =          1.000000000000000E+00
(PID.TID 0000.0001) // CINT =          0.000000000000000E+00
(PID.TID 0000.0001) // SYMBOLS (CMIN->CMAX): -abcdefghijklmnopqrstuvwxyz+
(PID.TID 0000.0001) //                  0.0: .
(PID.TID 0000.0001) // RANGE I (Lo:Hi:Step):(  -2:  23:   1)
(PID.TID 0000.0001) // RANGE J (Lo:Hi:Step):(  19:  -2:  -1)
(PID.TID 0000.0001) // RANGE K (Lo:Hi:Step):(   1:   1:   1)
(PID.TID 0000.0001) // =======================================================
(PID.TID 0000.0001) // =======================================================
(PID.TID 0000.0001) // END OF FIELD                                          =
(PID.TID 0000.0001) // =======================================================
(PID.TID 0000.0001) 
(PID.TID 0000.0001) // =======================================================
(PID.TID 0000.0001) // Field hFacS at iteration          1
(PID.TID 0000.0001) // CMIN =          1.000000000000000E+00
(PID.TID 0000.0001) // CMAX =          1.000000000000000E+00
(PID.TID 0000.0001) // CINT =          0.000000000000000E+00
(PID.TID 0000.0001) // SYMBOLS (CMIN->CMAX): -abcdefghijklmnopqrstuvwxyz+
(PID.TID 0000.0001) //                  0.0: .
(PID.TID 0000.0001) // RANGE I (Lo:Hi:Step):(  -2:  23:   1)
(PID.TID 0000.0001) // RANGE J (Lo:Hi:Step):(  19:  -2:  -1)
(PID.TID 0000.0001) // RANGE K (Lo:Hi:Step):(   1:   1:   1)
(PID.TID 0000.0001) // =======================================================
(PID.TID 0000.0001) // =======================================================
(PID.TID 0000.0001) // END OF FIELD                                          =
(PID.TID 0000.0001) // =======================================================
(PID.TID 0000.0001) 
(PID.TID 0000.0001) %MON seaicefCori_max              =   1.4210453727344E-04
(PID.TID 0000.0001) %MON seaicefCori_min              =   1.0666243053630E-04
(PID.TID 0000.0001) %MON seaicefCori_mean             =   1.2711058365303E-04
(PID.TID 0000.0001) %MON seaicefCori_sd               =   1.1031533875266E-05
(PID.TID 0000.0001) %MON seaicefCoriG_max             =   1.4151032568025E-04
(PID.TID 0000.0001) %MON seaicefCoriG_min             =   1.0491029349513E-04
(PID.TID 0000.0001) %MON seaicefCoriG_mean            =   1.2591168756569E-04
(PID.TID 0000.0001) %MON seaicefCoriG_sd              =   1.1383815633153E-05
(PID.TID 0000.0001) %MON seaicefCoriCos_max           =   9.9464325599212E-05
(PID.TID 0000.0001) %MON seaicefCoriCos_min           =   3.2807417471054E-05
(PID.TID 0000.0001) %MON seaicefCoriCos_mean          =   6.7585896192312E-05
(PID.TID 0000.0001) %MON seaicefCoriCos_sd            =   2.0576140902612E-05
(PID.TID 0000.0001) INI_CG2D: CG2D normalisation factor =  1.6094939840939192E-04
(PID.TID 0000.0001) 
(PID.TID 0000.0001) // =======================================================
(PID.TID 0000.0001) // Field Initial Temperature at iteration          1
(PID.TID 0000.0001) // CMIN =          9.205863475799561E-01
(PID.TID 0000.0001) // CMAX =          1.333307647705078E+01
(PID.TID 0000.0001) // CINT =          4.597218566470676E-01
(PID.TID 0000.0001) // SYMBOLS (CMIN->CMAX): -abcdefghijklmnopqrstuvwxyz+
(PID.TID 0000.0001) //                  0.0: .
(PID.TID 0000.0001) // RANGE I (Lo:Hi:Step):(   1:  20:   1)
(PID.TID 0000.0001) // RANGE J (Lo:Hi:Step):(  16:   1:  -1)
(PID.TID 0000.0001) // RANGE K (Lo:Hi:Step):(   1:   1:   1)
(PID.TID 0000.0001) // =======================================================
(PID.TID 0000.0001) K =   1
(PID.TID 0000.0001)                I=10      I=20
(PID.TID 0000.0001) |--J--|123456789|123456789|
(PID.TID 0000.0001)     16 .----...............
(PID.TID 0000.0001)     15 aabaaaaaaaa.........
(PID.TID 0000.0001)     14 .ccccccbbbbc........
(PID.TID 0000.0001)     13 ....dddddddd........
(PID.TID 0000.0001)     12 ......dcdddddd......
(PID.TID 0000.0001)     11 ........cccdd.......
(PID.TID 0000.0001)     10 .......bbcdddd......
(PID.TID 0000.0001)      9 .......cdeeffff....j
(PID.TID 0000.0001)      8 .....ccdefgghhggh..k
(PID.TID 0000.0001)      7 ......d.fghiiiiiijkl
(PID.TID 0000.0001)      6 .........ghhijjjkklm
(PID.TID 0000.0001)      5 ..........hhhijklmnn
(PID.TID 0000.0001)      4 ............ghikmopq
(PID.TID 0000.0001)      3 ..........k.hhiknqsu
(PID.TID 0000.0001)      2 .......oonm..ijknqux
(PID.TID 0000.0001)      1 ........qponlkklosw+
(PID.TID 0000.0001) // =======================================================
(PID.TID 0000.0001) // END OF FIELD                                          =
(PID.TID 0000.0001) // =======================================================
(PID.TID 0000.0001) 
(PID.TID 0000.0001) // =======================================================
(PID.TID 0000.0001) // Field Initial Salinity at iteration          1
(PID.TID 0000.0001) // CMIN =          3.012869834899902E+01
(PID.TID 0000.0001) // CMAX =          3.487366104125977E+01
(PID.TID 0000.0001) // CINT =          1.757393589726201E-01
(PID.TID 0000.0001) // SYMBOLS (CMIN->CMAX): -abcdefghijklmnopqrstuvwxyz+
(PID.TID 0000.0001) //                  0.0: .
(PID.TID 0000.0001) // RANGE I (Lo:Hi:Step):(   1:  20:   1)
(PID.TID 0000.0001) // RANGE J (Lo:Hi:Step):(  16:   1:  -1)
(PID.TID 0000.0001) // RANGE K (Lo:Hi:Step):(   1:   1:   1)
(PID.TID 0000.0001) // =======================================================
(PID.TID 0000.0001) K =   1
(PID.TID 0000.0001)                I=10      I=20
(PID.TID 0000.0001) |--J--|123456789|123456789|
(PID.TID 0000.0001)     16 .nnos...............
(PID.TID 0000.0001)     15 lnoppppppol.........
(PID.TID 0000.0001)     14 .nponmllllmn........
(PID.TID 0000.0001)     13 ....ljhijkmo........
(PID.TID 0000.0001)     12 ......ghjlmors......
(PID.TID 0000.0001)     11 ........jmnpr.......
(PID.TID 0000.0001)     10 .......jlnpqrq......
(PID.TID 0000.0001)      9 .......noqsttts....w
(PID.TID 0000.0001)      8 .....jlnpsuvwwutu..x
(PID.TID 0000.0001)      7 ......j.rruwxyxxwxxy
(PID.TID 0000.0001)      6 .........ppruxyyzzzz
(PID.TID 0000.0001)      5 ..........ijoswyzzzz
(PID.TID 0000.0001)      4 ............iotwyzzz
(PID.TID 0000.0001)      3 ..........g.imquwyzz
(PID.TID 0000.0001)      2 .......-bef..knqtvxz
(PID.TID 0000.0001)      1 ........-cegijlosvy+
(PID.TID 0000.0001) // =======================================================
(PID.TID 0000.0001) // END OF FIELD                                          =
(PID.TID 0000.0001) // =======================================================
(PID.TID 0000.0001) 
(PID.TID 0000.0001) Start initial hydrostatic pressure computation
(PID.TID 0000.0001) Pressure is predetermined for buoyancyRelation OCEANIC
(PID.TID 0000.0001) 
(PID.TID 0000.0001)  MDS_READ_FIELD: opening file: xx_theta.0000000000.001.001.data
 ph-ctrl theta0 a   0.
 ph-ctrl theta0 b   0.
(PID.TID 0000.0001)  MDS_READ_FIELD: opening file: xx_salt.0000000000.001.001.data
(PID.TID 0000.0001) // =======================================================
(PID.TID 0000.0001) // Model current state
(PID.TID 0000.0001) // =======================================================
(PID.TID 0000.0001) 
(PID.TID 0000.0001) // =======================================================
(PID.TID 0000.0001) // Begin MONITOR SEAICE statistics
(PID.TID 0000.0001) // =======================================================
(PID.TID 0000.0001) %MON seaice_tsnumber              =                     0
(PID.TID 0000.0001) %MON seaice_time_sec              =   0.0000000000000E+00
(PID.TID 0000.0001) %MON seaice_uice_max              =   0.0000000000000E+00
(PID.TID 0000.0001) %MON seaice_uice_min              =   0.0000000000000E+00
(PID.TID 0000.0001) %MON seaice_uice_mean             =   0.0000000000000E+00
(PID.TID 0000.0001) %MON seaice_uice_sd               =   0.0000000000000E+00
(PID.TID 0000.0001) %MON seaice_uice_del2             =   0.0000000000000E+00
(PID.TID 0000.0001) %MON seaice_vice_max              =   0.0000000000000E+00
(PID.TID 0000.0001) %MON seaice_vice_min              =   0.0000000000000E+00
(PID.TID 0000.0001) %MON seaice_vice_mean             =   0.0000000000000E+00
(PID.TID 0000.0001) %MON seaice_vice_sd               =   0.0000000000000E+00
(PID.TID 0000.0001) %MON seaice_vice_del2             =   0.0000000000000E+00
(PID.TID 0000.0001) %MON seaice_area_max              =   1.0000000000000E+00
(PID.TID 0000.0001) %MON seaice_area_min              =   1.0000000000000E+00
(PID.TID 0000.0001) %MON seaice_area_mean             =   1.0000000000000E+00
(PID.TID 0000.0001) %MON seaice_area_sd               =   0.0000000000000E+00
(PID.TID 0000.0001) %MON seaice_area_del2             =   0.0000000000000E+00
(PID.TID 0000.0001) %MON seaice_heff_max              =   1.0000000000000E+00
(PID.TID 0000.0001) %MON seaice_heff_min              =   1.0000000000000E+00
(PID.TID 0000.0001) %MON seaice_heff_mean             =   1.0000000000000E+00
(PID.TID 0000.0001) %MON seaice_heff_sd               =   0.0000000000000E+00
(PID.TID 0000.0001) %MON seaice_heff_del2             =   0.0000000000000E+00
(PID.TID 0000.0001) %MON seaice_hsnow_max             =   2.0000000298023E-01
(PID.TID 0000.0001) %MON seaice_hsnow_min             =   2.0000000298023E-01
(PID.TID 0000.0001) %MON seaice_hsnow_mean            =   2.0000000298023E-01
(PID.TID 0000.0001) %MON seaice_hsnow_sd              =   5.8286708792821E-16
(PID.TID 0000.0001) %MON seaice_hsnow_del2            =   0.0000000000000E+00
(PID.TID 0000.0001) // =======================================================
(PID.TID 0000.0001) // End MONITOR SEAICE statistics
(PID.TID 0000.0001) // =======================================================
(PID.TID 0000.0001)  MDS_READ_FIELD: opening file: xx_atemp.0000000000.001.001.data
(PID.TID 0000.0001)  MDS_READ_FIELD: opening file: xx_atemp.0000000000.001.001.data
(PID.TID 0000.0001)  MDS_READ_FIELD: opening file: xx_aqh.0000000000.001.001.data
(PID.TID 0000.0001)  MDS_READ_FIELD: opening file: xx_aqh.0000000000.001.001.data
(PID.TID 0000.0001)  MDS_READ_FIELD: opening file: xx_precip.0000000000.001.001.data
(PID.TID 0000.0001)  MDS_READ_FIELD: opening file: xx_precip.0000000000.001.001.data
(PID.TID 0000.0001)  MDS_READ_FIELD: opening file: xx_swdown.0000000000.001.001.data
(PID.TID 0000.0001)  MDS_READ_FIELD: opening file: xx_swdown.0000000000.001.001.data
(PID.TID 0000.0001)  MDS_READ_FIELD: opening file: xx_lwdown.0000000000.001.001.data
(PID.TID 0000.0001)  MDS_READ_FIELD: opening file: xx_lwdown.0000000000.001.001.data
(PID.TID 0000.0001)  MDS_READ_FIELD: opening file: xx_snowprecip.0000000000.001.001.data
(PID.TID 0000.0001)  MDS_READ_FIELD: opening file: xx_snowprecip.0000000000.001.001.data
(PID.TID 0000.0001)  MDS_READ_FIELD: opening file: xx_apressure.0000000000.001.001.data
(PID.TID 0000.0001)  MDS_READ_FIELD: opening file: xx_apressure.0000000000.001.001.data
(PID.TID 0000.0001)  MDS_READ_FIELD: opening file: xx_uwind.0000000000.001.001.data
(PID.TID 0000.0001)  MDS_READ_FIELD: opening file: xx_uwind.0000000000.001.001.data
(PID.TID 0000.0001)  MDS_READ_FIELD: opening file: xx_vwind.0000000000.001.001.data
(PID.TID 0000.0001)  MDS_READ_FIELD: opening file: xx_vwind.0000000000.001.001.data
(PID.TID 0000.0001) // =======================================================
(PID.TID 0000.0001) // Begin MONITOR EXF statistics
(PID.TID 0000.0001) // =======================================================
(PID.TID 0000.0001) %MON exf_tsnumber                 =                     0
(PID.TID 0000.0001) %MON exf_time_sec                 =   0.0000000000000E+00
(PID.TID 0000.0001) %MON exf_ustress_max              =   6.3903775845771E-02
(PID.TID 0000.0001) %MON exf_ustress_min              =  -9.5324050318348E-02
(PID.TID 0000.0001) %MON exf_ustress_mean             =   2.2585161375271E-02
(PID.TID 0000.0001) %MON exf_ustress_sd               =   2.7275779371277E-02
(PID.TID 0000.0001) %MON exf_ustress_del2             =   2.9464930617432E-03
(PID.TID 0000.0001) %MON exf_vstress_max              =   5.4708944127586E-02
(PID.TID 0000.0001) %MON exf_vstress_min              =  -6.2488440618747E-02
(PID.TID 0000.0001) %MON exf_vstress_mean             =  -5.6174744449930E-03
(PID.TID 0000.0001) %MON exf_vstress_sd               =   1.5596129633001E-02
(PID.TID 0000.0001) %MON exf_vstress_del2             =   1.7930353574919E-03
(PID.TID 0000.0001) %MON exf_hflux_max                =   7.3111020636161E+02
(PID.TID 0000.0001) %MON exf_hflux_min                =   1.0991726570245E+02
(PID.TID 0000.0001) %MON exf_hflux_mean               =   2.7655953954624E+02
(PID.TID 0000.0001) %MON exf_hflux_sd                 =   1.5872020371268E+02
(PID.TID 0000.0001) %MON exf_hflux_del2               =   1.9324684368145E+01
(PID.TID 0000.0001) %MON exf_sflux_max                =   5.3473262221640E-08
(PID.TID 0000.0001) %MON exf_sflux_min                =  -6.1385296755754E-08
(PID.TID 0000.0001) %MON exf_sflux_mean               =  -7.3062650058389E-09
(PID.TID 0000.0001) %MON exf_sflux_sd                 =   2.6562207628743E-08
(PID.TID 0000.0001) %MON exf_sflux_del2               =   3.6392854708355E-09
(PID.TID 0000.0001) %MON exf_uwind_max                =   6.4643745422363E+00
(PID.TID 0000.0001) %MON exf_uwind_min                =  -6.8372380733490E+00
(PID.TID 0000.0001) %MON exf_uwind_mean               =   2.7697727336031E+00
(PID.TID 0000.0001) %MON exf_uwind_sd                 =   2.9900402496951E+00
(PID.TID 0000.0001) %MON exf_uwind_del2               =   3.1570994739265E-01
(PID.TID 0000.0001) %MON exf_vwind_max                =   3.9240682125092E+00
(PID.TID 0000.0001) %MON exf_vwind_min                =  -6.0197033882141E+00
(PID.TID 0000.0001) %MON exf_vwind_mean               =  -7.6089868124963E-01
(PID.TID 0000.0001) %MON exf_vwind_sd                 =   1.7293437592941E+00
(PID.TID 0000.0001) %MON exf_vwind_del2               =   1.9333263882436E-01
(PID.TID 0000.0001) %MON exf_wspeed_max               =   7.8832820454477E+00
(PID.TID 0000.0001) %MON exf_wspeed_min               =   4.6035219539401E-01
(PID.TID 0000.0001) %MON exf_wspeed_mean              =   4.1981217095273E+00
(PID.TID 0000.0001) %MON exf_wspeed_sd                =   1.5991724245810E+00
(PID.TID 0000.0001) %MON exf_wspeed_del2              =   3.7693667977018E-01
(PID.TID 0000.0001) %MON exf_atemp_max                =   2.8188281250000E+02
(PID.TID 0000.0001) %MON exf_atemp_min                =   2.3646176910400E+02
(PID.TID 0000.0001) %MON exf_atemp_mean               =   2.6394605878816E+02
(PID.TID 0000.0001) %MON exf_atemp_sd                 =   1.1983418494288E+01
(PID.TID 0000.0001) %MON exf_atemp_del2               =   6.4942309334310E-01
(PID.TID 0000.0001) %MON exf_aqh_max                  =   6.3231729436666E-03
(PID.TID 0000.0001) %MON exf_aqh_min                  =   1.6369274817407E-04
(PID.TID 0000.0001) %MON exf_aqh_mean                 =   2.4803629101886E-03
(PID.TID 0000.0001) %MON exf_aqh_sd                   =   1.4265074770275E-03
(PID.TID 0000.0001) %MON exf_aqh_del2                 =   6.8141780599641E-05
(PID.TID 0000.0001) %MON exf_lwflux_max               =   1.9978966060501E+02
(PID.TID 0000.0001) %MON exf_lwflux_min               =   6.3304595803996E+01
(PID.TID 0000.0001) %MON exf_lwflux_mean              =   1.0410079899302E+02
(PID.TID 0000.0001) %MON exf_lwflux_sd                =   3.6519264181786E+01
(PID.TID 0000.0001) %MON exf_lwflux_del2              =   3.1286635970398E+00
(PID.TID 0000.0001) %MON exf_precip_max               =   1.0498766300771E-07
(PID.TID 0000.0001) %MON exf_precip_min               =   2.7359498694368E-10
(PID.TID 0000.0001) %MON exf_precip_mean              =   3.6390080543085E-08
(PID.TID 0000.0001) %MON exf_precip_sd                =   2.0578148171209E-08
(PID.TID 0000.0001) %MON exf_precip_del2              =   2.5551549857431E-09
(PID.TID 0000.0001) %MON exf_snowprecip_max           =   0.0000000000000E+00
(PID.TID 0000.0001) %MON exf_snowprecip_min           =   0.0000000000000E+00
(PID.TID 0000.0001) %MON exf_snowprecip_mean          =   0.0000000000000E+00
(PID.TID 0000.0001) %MON exf_snowprecip_sd            =   0.0000000000000E+00
(PID.TID 0000.0001) %MON exf_snowprecip_del2          =   0.0000000000000E+00
(PID.TID 0000.0001) %MON exf_swflux_max               =  -8.1205755472183E-02
(PID.TID 0000.0001) %MON exf_swflux_min               =  -6.3973114013672E+01
(PID.TID 0000.0001) %MON exf_swflux_mean              =  -2.6453223022948E+01
(PID.TID 0000.0001) %MON exf_swflux_sd                =   1.9625901079469E+01
(PID.TID 0000.0001) %MON exf_swflux_del2              =   4.7901276555285E-01
(PID.TID 0000.0001) %MON exf_evap_max                 =   5.9797470045733E-08
(PID.TID 0000.0001) %MON exf_evap_min                 =   1.0729148721654E-08
(PID.TID 0000.0001) %MON exf_evap_mean                =   2.9083815537246E-08
(PID.TID 0000.0001) %MON exf_evap_sd                  =   9.2938021872174E-09
(PID.TID 0000.0001) %MON exf_evap_del2                =   2.0154592051961E-09
(PID.TID 0000.0001) %MON exf_swdown_max               =   7.1081237792969E+01
(PID.TID 0000.0001) %MON exf_swdown_min               =   9.0228617191315E-02
(PID.TID 0000.0001) %MON exf_swdown_mean              =   2.9392470025498E+01
(PID.TID 0000.0001) %MON exf_swdown_sd                =   2.1806556754965E+01
(PID.TID 0000.0001) %MON exf_swdown_del2              =   5.3223640616983E-01
(PID.TID 0000.0001) %MON exf_lwdown_max               =   3.0567971801758E+02
(PID.TID 0000.0001) %MON exf_lwdown_min               =   1.1599769210815E+02
(PID.TID 0000.0001) %MON exf_lwdown_mean              =   2.2594931695913E+02
(PID.TID 0000.0001) %MON exf_lwdown_sd                =   4.6277429231296E+01
(PID.TID 0000.0001) %MON exf_lwdown_del2              =   3.2438212966919E+00
(PID.TID 0000.0001) %MON exf_apressure_max            =   0.0000000000000E+00
(PID.TID 0000.0001) %MON exf_apressure_min            =   0.0000000000000E+00
(PID.TID 0000.0001) %MON exf_apressure_mean           =   0.0000000000000E+00
(PID.TID 0000.0001) %MON exf_apressure_sd             =   0.0000000000000E+00
(PID.TID 0000.0001) %MON exf_apressure_del2           =   0.0000000000000E+00
(PID.TID 0000.0001) %MON exf_runoff_max               =   0.0000000000000E+00
(PID.TID 0000.0001) %MON exf_runoff_min               =   0.0000000000000E+00
(PID.TID 0000.0001) %MON exf_runoff_mean              =   0.0000000000000E+00
(PID.TID 0000.0001) %MON exf_runoff_sd                =   0.0000000000000E+00
(PID.TID 0000.0001) %MON exf_runoff_del2              =   0.0000000000000E+00
(PID.TID 0000.0001) %MON exf_climsst_max              =   0.0000000000000E+00
(PID.TID 0000.0001) %MON exf_climsst_min              =   0.0000000000000E+00
(PID.TID 0000.0001) %MON exf_climsst_mean             =   0.0000000000000E+00
(PID.TID 0000.0001) %MON exf_climsst_sd               =   0.0000000000000E+00
(PID.TID 0000.0001) %MON exf_climsst_del2             =   0.0000000000000E+00
(PID.TID 0000.0001) %MON exf_climsss_max              =   3.5040330886841E+01
(PID.TID 0000.0001) %MON exf_climsss_min              =   3.0666313171387E+01
(PID.TID 0000.0001) %MON exf_climsss_mean             =   3.3459319600989E+01
(PID.TID 0000.0001) %MON exf_climsss_sd               =   1.0319548925494E+00
(PID.TID 0000.0001) %MON exf_climsss_del2             =   1.0019396146139E-01
(PID.TID 0000.0001) // =======================================================
(PID.TID 0000.0001) // End MONITOR EXF statistics
(PID.TID 0000.0001) // =======================================================
 ph-ice B  0  0.  0.  0.
 ph-ice C  0  5.30354909E+10
 cg2d: Sum(rhs),rhsMax =   1.05818132034585E-15  9.93037467350620E-01
(PID.TID 0000.0001) // =======================================================
(PID.TID 0000.0001) // Begin MONITOR SEAICE statistics
(PID.TID 0000.0001) // =======================================================
(PID.TID 0000.0001) %MON seaice_tsnumber              =                     1
(PID.TID 0000.0001) %MON seaice_time_sec              =   3.6000000000000E+03
(PID.TID 0000.0001) %MON seaice_uice_max              =   1.1830188588838E-01
(PID.TID 0000.0001) %MON seaice_uice_min              =  -3.6947667601810E-02
(PID.TID 0000.0001) %MON seaice_uice_mean             =   4.6351011395841E-02
(PID.TID 0000.0001) %MON seaice_uice_sd               =   4.4551623876367E-02
(PID.TID 0000.0001) %MON seaice_uice_del2             =   2.6893939150909E-03
(PID.TID 0000.0001) %MON seaice_vice_max              =   3.8048078875392E-02
(PID.TID 0000.0001) %MON seaice_vice_min              =  -7.2208311040469E-02
(PID.TID 0000.0001) %MON seaice_vice_mean             =  -1.7212953413442E-02
(PID.TID 0000.0001) %MON seaice_vice_sd               =   2.7498420195410E-02
(PID.TID 0000.0001) %MON seaice_vice_del2             =   2.2712992187913E-03
(PID.TID 0000.0001) %MON seaice_area_max              =   1.0000000000000E+00
(PID.TID 0000.0001) %MON seaice_area_min              =   0.0000000000000E+00
(PID.TID 0000.0001) %MON seaice_area_mean             =   6.3240418008182E-01
(PID.TID 0000.0001) %MON seaice_area_sd               =   4.5166862134438E-01
(PID.TID 0000.0001) %MON seaice_area_del2             =   4.7454801422287E-02
(PID.TID 0000.0001) %MON seaice_heff_max              =   6.0076635272005E-01
(PID.TID 0000.0001) %MON seaice_heff_min              =   0.0000000000000E+00
(PID.TID 0000.0001) %MON seaice_heff_mean             =   1.4887451421175E-01
(PID.TID 0000.0001) %MON seaice_heff_sd               =   1.8287366826742E-01
(PID.TID 0000.0001) %MON seaice_heff_del2             =   1.0146605918607E-02
(PID.TID 0000.0001) %MON seaice_hsnow_max             =   2.0078474686707E-01
(PID.TID 0000.0001) %MON seaice_hsnow_min             =   0.0000000000000E+00
(PID.TID 0000.0001) %MON seaice_hsnow_mean            =   1.1848697056338E-01
(PID.TID 0000.0001) %MON seaice_hsnow_sd              =   9.6623972770983E-02
(PID.TID 0000.0001) %MON seaice_hsnow_del2            =   6.2688952170602E-03
(PID.TID 0000.0001) // =======================================================
(PID.TID 0000.0001) // End MONITOR SEAICE statistics
(PID.TID 0000.0001) // =======================================================
(PID.TID 0000.0001) // =======================================================
(PID.TID 0000.0001) // Begin MONITOR EXF statistics
(PID.TID 0000.0001) // =======================================================
(PID.TID 0000.0001) %MON exf_tsnumber                 =                     1
(PID.TID 0000.0001) %MON exf_time_sec                 =   3.6000000000000E+03
(PID.TID 0000.0001) %MON exf_ustress_max              =   5.2215336216899E-02
(PID.TID 0000.0001) %MON exf_ustress_min              =  -9.3781516255246E-02
(PID.TID 0000.0001) %MON exf_ustress_mean             =   1.7908662435876E-02
(PID.TID 0000.0001) %MON exf_ustress_sd               =   2.3677822733685E-02
(PID.TID 0000.0001) %MON exf_ustress_del2             =   2.8185953494417E-03
(PID.TID 0000.0001) %MON exf_vstress_max              =   5.3823846971061E-02
(PID.TID 0000.0001) %MON exf_vstress_min              =  -5.8521115502029E-02
(PID.TID 0000.0001) %MON exf_vstress_mean             =  -5.4709261770380E-03
(PID.TID 0000.0001) %MON exf_vstress_sd               =   1.4440701915822E-02
(PID.TID 0000.0001) %MON exf_vstress_del2             =   1.6942464783601E-03
(PID.TID 0000.0001) %MON exf_hflux_max                =   6.2467472133264E+02
(PID.TID 0000.0001) %MON exf_hflux_min                =  -5.4116825759641E+01
(PID.TID 0000.0001) %MON exf_hflux_mean               =   1.4693364489910E+02
(PID.TID 0000.0001) %MON exf_hflux_sd                 =   1.8156699217508E+02
(PID.TID 0000.0001) %MON exf_hflux_del2               =   1.6567547708346E+01
(PID.TID 0000.0001) %MON exf_sflux_max                =   3.9008935708334E-08
(PID.TID 0000.0001) %MON exf_sflux_min                =  -8.8902774357601E-08
(PID.TID 0000.0001) %MON exf_sflux_mean               =  -2.5876940712098E-08
(PID.TID 0000.0001) %MON exf_sflux_sd                 =   3.0537598417228E-08
(PID.TID 0000.0001) %MON exf_sflux_del2               =   3.1605976625448E-09
(PID.TID 0000.0001) %MON exf_uwind_max                =   6.4648819946852E+00
(PID.TID 0000.0001) %MON exf_uwind_min                =  -6.8372648550513E+00
(PID.TID 0000.0001) %MON exf_uwind_mean               =   2.7698802859476E+00
(PID.TID 0000.0001) %MON exf_uwind_sd                 =   2.9903162155877E+00
(PID.TID 0000.0001) %MON exf_uwind_del2               =   3.1571785161521E-01
(PID.TID 0000.0001) %MON exf_vwind_max                =   3.9240983933048E+00
(PID.TID 0000.0001) %MON exf_vwind_min                =  -6.0187974783892E+00
(PID.TID 0000.0001) %MON exf_vwind_mean               =  -7.6028090815952E-01
(PID.TID 0000.0001) %MON exf_vwind_sd                 =   1.7294518007626E+00
(PID.TID 0000.0001) %MON exf_vwind_del2               =   1.9332576748242E-01
(PID.TID 0000.0001) %MON exf_wspeed_max               =   7.8833202965791E+00
(PID.TID 0000.0001) %MON exf_wspeed_min               =   4.6010935417159E-01
(PID.TID 0000.0001) %MON exf_wspeed_mean              =   4.1982241536133E+00
(PID.TID 0000.0001) %MON exf_wspeed_sd                =   1.5994287774633E+00
(PID.TID 0000.0001) %MON exf_wspeed_del2              =   3.7699000842292E-01
(PID.TID 0000.0001) %MON exf_atemp_max                =   2.8188110034713E+02
(PID.TID 0000.0001) %MON exf_atemp_min                =   2.3645730413635E+02
(PID.TID 0000.0001) %MON exf_atemp_mean               =   2.6394141469886E+02
(PID.TID 0000.0001) %MON exf_atemp_sd                 =   1.1984879023031E+01
(PID.TID 0000.0001) %MON exf_atemp_del2               =   6.4944242489554E-01
(PID.TID 0000.0001) %MON exf_aqh_max                  =   6.3224764028055E-03
(PID.TID 0000.0001) %MON exf_aqh_min                  =   1.6359864467567E-04
(PID.TID 0000.0001) %MON exf_aqh_mean                 =   2.4798025537840E-03
(PID.TID 0000.0001) %MON exf_aqh_sd                   =   1.4264043737180E-03
(PID.TID 0000.0001) %MON exf_aqh_del2                 =   6.8128113038494E-05
(PID.TID 0000.0001) %MON exf_lwflux_max               =   1.8380784776361E+02
(PID.TID 0000.0001) %MON exf_lwflux_min               =   2.6472644798215E+01
(PID.TID 0000.0001) %MON exf_lwflux_mean              =   7.5350572633053E+01
(PID.TID 0000.0001) %MON exf_lwflux_sd                =   4.3134595524248E+01
(PID.TID 0000.0001) %MON exf_lwflux_del2              =   3.2390977067912E+00
(PID.TID 0000.0001) %MON exf_precip_max               =   1.0498904445033E-07
(PID.TID 0000.0001) %MON exf_precip_min               =   2.7346106047101E-10
(PID.TID 0000.0001) %MON exf_precip_mean              =   3.6390069699050E-08
(PID.TID 0000.0001) %MON exf_precip_sd                =   2.0578598603627E-08
(PID.TID 0000.0001) %MON exf_precip_del2              =   2.5556826789328E-09
(PID.TID 0000.0001) %MON exf_snowprecip_max           =   0.0000000000000E+00
(PID.TID 0000.0001) %MON exf_snowprecip_min           =   0.0000000000000E+00
(PID.TID 0000.0001) %MON exf_snowprecip_mean          =   0.0000000000000E+00
(PID.TID 0000.0001) %MON exf_snowprecip_sd            =   0.0000000000000E+00
(PID.TID 0000.0001) %MON exf_snowprecip_del2          =   0.0000000000000E+00
(PID.TID 0000.0001) %MON exf_swflux_max               =  -8.1206038349965E-02
(PID.TID 0000.0001) %MON exf_swflux_min               =  -6.3991984364244E+01
(PID.TID 0000.0001) %MON exf_swflux_mean              =  -2.6463755238823E+01
(PID.TID 0000.0001) %MON exf_swflux_sd                =   1.9629736696482E+01
(PID.TID 0000.0001) %MON exf_swflux_del2              =   4.7911963949881E-01
(PID.TID 0000.0001) %MON exf_evap_max                 =   4.5332480821497E-08
(PID.TID 0000.0001) %MON exf_evap_min                 =  -4.7524365011618E-09
(PID.TID 0000.0001) %MON exf_evap_mean                =   1.0513128986952E-08
(PID.TID 0000.0001) %MON exf_evap_sd                  =   1.1274583045219E-08
(PID.TID 0000.0001) %MON exf_evap_del2                =   1.3716109879532E-09
(PID.TID 0000.0001) %MON exf_swdown_max               =   7.1102204849160E+01
(PID.TID 0000.0001) %MON exf_swdown_min               =   9.0228931499961E-02
(PID.TID 0000.0001) %MON exf_swdown_mean              =   2.9404172487581E+01
(PID.TID 0000.0001) %MON exf_swdown_sd                =   2.1810818551646E+01
(PID.TID 0000.0001) %MON exf_swdown_del2              =   5.3235515499868E-01
(PID.TID 0000.0001) %MON exf_lwdown_max               =   3.0567089193375E+02
(PID.TID 0000.0001) %MON exf_lwdown_min               =   1.1598258522951E+02
(PID.TID 0000.0001) %MON exf_lwdown_mean              =   2.2593360963007E+02
(PID.TID 0000.0001) %MON exf_lwdown_sd                =   4.6281398610271E+01
(PID.TID 0000.0001) %MON exf_lwdown_del2              =   3.2438329367646E+00
(PID.TID 0000.0001) %MON exf_apressure_max            =   0.0000000000000E+00
(PID.TID 0000.0001) %MON exf_apressure_min            =   0.0000000000000E+00
(PID.TID 0000.0001) %MON exf_apressure_mean           =   0.0000000000000E+00
(PID.TID 0000.0001) %MON exf_apressure_sd             =   0.0000000000000E+00
(PID.TID 0000.0001) %MON exf_apressure_del2           =   0.0000000000000E+00
(PID.TID 0000.0001) %MON exf_runoff_max               =   0.0000000000000E+00
(PID.TID 0000.0001) %MON exf_runoff_min               =   0.0000000000000E+00
(PID.TID 0000.0001) %MON exf_runoff_mean              =   0.0000000000000E+00
(PID.TID 0000.0001) %MON exf_runoff_sd                =   0.0000000000000E+00
(PID.TID 0000.0001) %MON exf_runoff_del2              =   0.0000000000000E+00
(PID.TID 0000.0001) %MON exf_climsst_max              =   0.0000000000000E+00
(PID.TID 0000.0001) %MON exf_climsst_min              =   0.0000000000000E+00
(PID.TID 0000.0001) %MON exf_climsst_mean             =   0.0000000000000E+00
(PID.TID 0000.0001) %MON exf_climsst_sd               =   0.0000000000000E+00
(PID.TID 0000.0001) %MON exf_climsst_del2             =   0.0000000000000E+00
(PID.TID 0000.0001) %MON exf_climsss_max              =   3.5040515633880E+01
(PID.TID 0000.0001) %MON exf_climsss_min              =   3.0667072499385E+01
(PID.TID 0000.0001) %MON exf_climsss_mean             =   3.3459840934468E+01
(PID.TID 0000.0001) %MON exf_climsss_sd               =   1.0318832207269E+00
(PID.TID 0000.0001) %MON exf_climsss_del2             =   1.0017673217099E-01
(PID.TID 0000.0001) // =======================================================
(PID.TID 0000.0001) // End MONITOR EXF statistics
(PID.TID 0000.0001) // =======================================================
 ph-ice B  1  0.  0.  0.
 ph-ice C  1  1.03662085E+11
 cg2d: Sum(rhs),rhsMax =   9.71448810282993E-10  1.19254195625089E+00
(PID.TID 0000.0001) // =======================================================
(PID.TID 0000.0001) // Begin MONITOR SEAICE statistics
(PID.TID 0000.0001) // =======================================================
(PID.TID 0000.0001) %MON seaice_tsnumber              =                     2
(PID.TID 0000.0001) %MON seaice_time_sec              =   7.2000000000000E+03
(PID.TID 0000.0001) %MON seaice_uice_max              =   1.5575757117815E-01
(PID.TID 0000.0001) %MON seaice_uice_min              =  -8.0942741430966E-02
(PID.TID 0000.0001) %MON seaice_uice_mean             =   6.5168649829382E-02
(PID.TID 0000.0001) %MON seaice_uice_sd               =   6.1631643089350E-02
(PID.TID 0000.0001) %MON seaice_uice_del2             =   6.8706904523403E-03
(PID.TID 0000.0001) %MON seaice_vice_max              =   7.0616929390505E-02
(PID.TID 0000.0001) %MON seaice_vice_min              =  -1.3662299947234E-01
(PID.TID 0000.0001) %MON seaice_vice_mean             =  -2.1829812692631E-02
(PID.TID 0000.0001) %MON seaice_vice_sd               =   4.1312329526262E-02
(PID.TID 0000.0001) %MON seaice_vice_del2             =   5.3521934566396E-03
(PID.TID 0000.0001) %MON seaice_area_max              =   1.0000000000000E+00
(PID.TID 0000.0001) %MON seaice_area_min              =   0.0000000000000E+00
(PID.TID 0000.0001) %MON seaice_area_mean             =   6.2511455210173E-01
(PID.TID 0000.0001) %MON seaice_area_sd               =   4.5918073702415E-01
(PID.TID 0000.0001) %MON seaice_area_del2             =   5.3309150568192E-02
(PID.TID 0000.0001) %MON seaice_heff_max              =   5.5572638142240E-01
(PID.TID 0000.0001) %MON seaice_heff_min              =   0.0000000000000E+00
(PID.TID 0000.0001) %MON seaice_heff_mean             =   1.4211256278540E-01
(PID.TID 0000.0001) %MON seaice_heff_sd               =   1.7471336181798E-01
(PID.TID 0000.0001) %MON seaice_heff_del2             =   1.3300800072063E-02
(PID.TID 0000.0001) %MON seaice_hsnow_max             =   2.0156957952176E-01
(PID.TID 0000.0001) %MON seaice_hsnow_min             =   0.0000000000000E+00
(PID.TID 0000.0001) %MON seaice_hsnow_mean            =   1.1798259565184E-01
(PID.TID 0000.0001) %MON seaice_hsnow_sd              =   9.6675387962263E-02
(PID.TID 0000.0001) %MON seaice_hsnow_del2            =   6.3372971187471E-03
(PID.TID 0000.0001) // =======================================================
(PID.TID 0000.0001) // End MONITOR SEAICE statistics
(PID.TID 0000.0001) // =======================================================
(PID.TID 0000.0001) // =======================================================
(PID.TID 0000.0001) // Begin MONITOR EXF statistics
(PID.TID 0000.0001) // =======================================================
(PID.TID 0000.0001) %MON exf_tsnumber                 =                     2
(PID.TID 0000.0001) %MON exf_time_sec                 =   7.2000000000000E+03
(PID.TID 0000.0001) %MON exf_ustress_max              =   5.2234389551241E-02
(PID.TID 0000.0001) %MON exf_ustress_min              =  -9.3783873525021E-02
(PID.TID 0000.0001) %MON exf_ustress_mean             =   1.7912600464504E-02
(PID.TID 0000.0001) %MON exf_ustress_sd               =   2.3689564915941E-02
(PID.TID 0000.0001) %MON exf_ustress_del2             =   2.8175398525868E-03
(PID.TID 0000.0001) %MON exf_vstress_max              =   5.3825403016462E-02
(PID.TID 0000.0001) %MON exf_vstress_min              =  -5.8501907463670E-02
(PID.TID 0000.0001) %MON exf_vstress_mean             =  -5.4571899222669E-03
(PID.TID 0000.0001) %MON exf_vstress_sd               =   1.4439148405724E-02
(PID.TID 0000.0001) %MON exf_vstress_del2             =   1.6937324506154E-03
(PID.TID 0000.0001) %MON exf_hflux_max                =   6.2473671698450E+02
(PID.TID 0000.0001) %MON exf_hflux_min                =  -5.1856944043789E+01
(PID.TID 0000.0001) %MON exf_hflux_mean               =   1.4603891706996E+02
(PID.TID 0000.0001) %MON exf_hflux_sd                 =   1.8006278848085E+02
(PID.TID 0000.0001) %MON exf_hflux_del2               =   1.6304064602315E+01
(PID.TID 0000.0001) %MON exf_sflux_max                =   3.9010172880204E-08
(PID.TID 0000.0001) %MON exf_sflux_min                =  -8.8920778732677E-08
(PID.TID 0000.0001) %MON exf_sflux_mean               =  -2.5980919530250E-08
(PID.TID 0000.0001) %MON exf_sflux_sd                 =   3.0374070292134E-08
(PID.TID 0000.0001) %MON exf_sflux_del2               =   3.1602146804601E-09
(PID.TID 0000.0001) %MON exf_uwind_max                =   6.4653894471340E+00
(PID.TID 0000.0001) %MON exf_uwind_min                =  -6.8372916367536E+00
(PID.TID 0000.0001) %MON exf_uwind_mean               =   2.7699878382920E+00
(PID.TID 0000.0001) %MON exf_uwind_sd                 =   2.9905922217476E+00
(PID.TID 0000.0001) %MON exf_uwind_del2               =   3.1572575583776E-01
(PID.TID 0000.0001) %MON exf_vwind_max                =   3.9241285741003E+00
(PID.TID 0000.0001) %MON exf_vwind_min                =  -6.0178915685643E+00
(PID.TID 0000.0001) %MON exf_vwind_mean               =  -7.5966313506940E-01
(PID.TID 0000.0001) %MON exf_vwind_sd                 =   1.7295599554900E+00
(PID.TID 0000.0001) %MON exf_vwind_del2               =   1.9331889614049E-01
(PID.TID 0000.0001) %MON exf_wspeed_max               =   7.8833585477315E+00
(PID.TID 0000.0001) %MON exf_wspeed_min               =   4.5986651533145E-01
(PID.TID 0000.0001) %MON exf_wspeed_mean              =   4.1983267266652E+00
(PID.TID 0000.0001) %MON exf_wspeed_sd                =   1.5996852426804E+00
(PID.TID 0000.0001) %MON exf_wspeed_del2              =   3.7704333058266E-01
(PID.TID 0000.0001) %MON exf_atemp_max                =   2.8187938819427E+02
(PID.TID 0000.0001) %MON exf_atemp_min                =   2.3645283916869E+02
(PID.TID 0000.0001) %MON exf_atemp_mean               =   2.6393677060956E+02
(PID.TID 0000.0001) %MON exf_atemp_sd                 =   1.1986340039585E+01
(PID.TID 0000.0001) %MON exf_atemp_del2               =   6.4946175644798E-01
(PID.TID 0000.0001) %MON exf_aqh_max                  =   6.3217798619445E-03
(PID.TID 0000.0001) %MON exf_aqh_min                  =   1.6350454117726E-04
(PID.TID 0000.0001) %MON exf_aqh_mean                 =   2.4792421973794E-03
(PID.TID 0000.0001) %MON exf_aqh_sd                   =   1.4263013062694E-03
(PID.TID 0000.0001) %MON exf_aqh_del2                 =   6.8114445477348E-05
(PID.TID 0000.0001) %MON exf_lwflux_max               =   1.8153743597504E+02
(PID.TID 0000.0001) %MON exf_lwflux_min               =   2.6999313161451E+01
(PID.TID 0000.0001) %MON exf_lwflux_mean              =   7.5148003036977E+01
(PID.TID 0000.0001) %MON exf_lwflux_sd                =   4.2803183324533E+01
(PID.TID 0000.0001) %MON exf_lwflux_del2              =   3.2353096159742E+00
(PID.TID 0000.0001) %MON exf_precip_max               =   1.0499042589295E-07
(PID.TID 0000.0001) %MON exf_precip_min               =   2.7332713399833E-10
(PID.TID 0000.0001) %MON exf_precip_mean              =   3.6390058855016E-08
(PID.TID 0000.0001) %MON exf_precip_sd                =   2.0579049691733E-08
(PID.TID 0000.0001) %MON exf_precip_del2              =   2.5562103721225E-09
(PID.TID 0000.0001) %MON exf_snowprecip_max           =   0.0000000000000E+00
(PID.TID 0000.0001) %MON exf_snowprecip_min           =   0.0000000000000E+00
(PID.TID 0000.0001) %MON exf_snowprecip_mean          =   0.0000000000000E+00
(PID.TID 0000.0001) %MON exf_snowprecip_sd            =   0.0000000000000E+00
(PID.TID 0000.0001) %MON exf_snowprecip_del2          =   0.0000000000000E+00
(PID.TID 0000.0001) %MON exf_swflux_max               =  -8.1206321227746E-02
(PID.TID 0000.0001) %MON exf_swflux_min               =  -6.4010854714816E+01
(PID.TID 0000.0001) %MON exf_swflux_mean              =  -2.6474287454698E+01
(PID.TID 0000.0001) %MON exf_swflux_sd                =   1.9633572905820E+01
(PID.TID 0000.0001) %MON exf_swflux_del2              =   4.7922651344477E-01
(PID.TID 0000.0001) %MON exf_evap_max                 =   4.5333055282436E-08
(PID.TID 0000.0001) %MON exf_evap_min                 =  -4.3262573270113E-09
(PID.TID 0000.0001) %MON exf_evap_mean                =   1.0409139324766E-08
(PID.TID 0000.0001) %MON exf_evap_sd                  =   1.1101640282283E-08
(PID.TID 0000.0001) %MON exf_evap_del2                =   1.3339356531642E-09
(PID.TID 0000.0001) %MON exf_swdown_max               =   7.1123171905351E+01
(PID.TID 0000.0001) %MON exf_swdown_min               =   9.0229245808607E-02
(PID.TID 0000.0001) %MON exf_swdown_mean              =   2.9415874949665E+01
(PID.TID 0000.0001) %MON exf_swdown_sd                =   2.1815081006466E+01
(PID.TID 0000.0001) %MON exf_swdown_del2              =   5.3247390382752E-01
(PID.TID 0000.0001) %MON exf_lwdown_max               =   3.0566206584993E+02
(PID.TID 0000.0001) %MON exf_lwdown_min               =   1.1596747835086E+02
(PID.TID 0000.0001) %MON exf_lwdown_mean              =   2.2591790230100E+02
(PID.TID 0000.0001) %MON exf_lwdown_sd                =   4.6285369157136E+01
(PID.TID 0000.0001) %MON exf_lwdown_del2              =   3.2438445768374E+00
(PID.TID 0000.0001) %MON exf_apressure_max            =   0.0000000000000E+00
(PID.TID 0000.0001) %MON exf_apressure_min            =   0.0000000000000E+00
(PID.TID 0000.0001) %MON exf_apressure_mean           =   0.0000000000000E+00
(PID.TID 0000.0001) %MON exf_apressure_sd             =   0.0000000000000E+00
(PID.TID 0000.0001) %MON exf_apressure_del2           =   0.0000000000000E+00
(PID.TID 0000.0001) %MON exf_runoff_max               =   0.0000000000000E+00
(PID.TID 0000.0001) %MON exf_runoff_min               =   0.0000000000000E+00
(PID.TID 0000.0001) %MON exf_runoff_mean              =   0.0000000000000E+00
(PID.TID 0000.0001) %MON exf_runoff_sd                =   0.0000000000000E+00
(PID.TID 0000.0001) %MON exf_runoff_del2              =   0.0000000000000E+00
(PID.TID 0000.0001) %MON exf_climsst_max              =   0.0000000000000E+00
(PID.TID 0000.0001) %MON exf_climsst_min              =   0.0000000000000E+00
(PID.TID 0000.0001) %MON exf_climsst_mean             =   0.0000000000000E+00
(PID.TID 0000.0001) %MON exf_climsst_sd               =   0.0000000000000E+00
(PID.TID 0000.0001) %MON exf_climsst_del2             =   0.0000000000000E+00
(PID.TID 0000.0001) %MON exf_climsss_max              =   3.5040700380919E+01
(PID.TID 0000.0001) %MON exf_climsss_min              =   3.0667831827383E+01
(PID.TID 0000.0001) %MON exf_climsss_mean             =   3.3460362267948E+01
(PID.TID 0000.0001) %MON exf_climsss_sd               =   1.0318117788237E+00
(PID.TID 0000.0001) %MON exf_climsss_del2             =   1.0015950288060E-01
(PID.TID 0000.0001) // =======================================================
(PID.TID 0000.0001) // End MONITOR EXF statistics
(PID.TID 0000.0001) // =======================================================
 ph-ice B  2  0.  0.  0.
 ph-ice C  2  1.54286126E+11
 cg2d: Sum(rhs),rhsMax =  -4.69101479882994E-10  1.21345933248175E+00
(PID.TID 0000.0001) // =======================================================
(PID.TID 0000.0001) // Begin MONITOR SEAICE statistics
(PID.TID 0000.0001) // =======================================================
(PID.TID 0000.0001) %MON seaice_tsnumber              =                     3
(PID.TID 0000.0001) %MON seaice_time_sec              =   1.0800000000000E+04
(PID.TID 0000.0001) %MON seaice_uice_max              =   1.7677554874884E-01
(PID.TID 0000.0001) %MON seaice_uice_min              =  -9.9473388719801E-02
(PID.TID 0000.0001) %MON seaice_uice_mean             =   7.5385002128347E-02
(PID.TID 0000.0001) %MON seaice_uice_sd               =   7.1157133234920E-02
(PID.TID 0000.0001) %MON seaice_uice_del2             =   8.3170555291903E-03
(PID.TID 0000.0001) %MON seaice_vice_max              =   8.9019955509243E-02
(PID.TID 0000.0001) %MON seaice_vice_min              =  -1.7696029804481E-01
(PID.TID 0000.0001) %MON seaice_vice_mean             =  -2.9256776243977E-02
(PID.TID 0000.0001) %MON seaice_vice_sd               =   5.2264404455485E-02
(PID.TID 0000.0001) %MON seaice_vice_del2             =   6.1178195270426E-03
(PID.TID 0000.0001) %MON seaice_area_max              =   1.0000000000000E+00
(PID.TID 0000.0001) %MON seaice_area_min              =   0.0000000000000E+00
(PID.TID 0000.0001) %MON seaice_area_mean             =   6.2473165128355E-01
(PID.TID 0000.0001) %MON seaice_area_sd               =   4.5913418284698E-01
(PID.TID 0000.0001) %MON seaice_area_del2             =   5.3480662075807E-02
(PID.TID 0000.0001) %MON seaice_heff_max              =   5.5368221576291E-01
(PID.TID 0000.0001) %MON seaice_heff_min              =   0.0000000000000E+00
(PID.TID 0000.0001) %MON seaice_heff_mean             =   1.4210539863367E-01
(PID.TID 0000.0001) %MON seaice_heff_sd               =   1.7434508667247E-01
(PID.TID 0000.0001) %MON seaice_heff_del2             =   1.3231250044034E-02
(PID.TID 0000.0001) %MON seaice_hsnow_max             =   2.0235454638389E-01
(PID.TID 0000.0001) %MON seaice_hsnow_min             =   0.0000000000000E+00
(PID.TID 0000.0001) %MON seaice_hsnow_mean            =   1.1801725658723E-01
(PID.TID 0000.0001) %MON seaice_hsnow_sd              =   9.6786605530350E-02
(PID.TID 0000.0001) %MON seaice_hsnow_del2            =   6.3531464966990E-03
(PID.TID 0000.0001) // =======================================================
(PID.TID 0000.0001) // End MONITOR SEAICE statistics
(PID.TID 0000.0001) // =======================================================
(PID.TID 0000.0001) // =======================================================
(PID.TID 0000.0001) // Begin MONITOR EXF statistics
(PID.TID 0000.0001) // =======================================================
(PID.TID 0000.0001) %MON exf_tsnumber                 =                     3
(PID.TID 0000.0001) %MON exf_time_sec                 =   1.0800000000000E+04
(PID.TID 0000.0001) %MON exf_ustress_max              =   5.2220278364563E-02
(PID.TID 0000.0001) %MON exf_ustress_min              =  -9.3786644941843E-02
(PID.TID 0000.0001) %MON exf_ustress_mean             =   1.7925093346133E-02
(PID.TID 0000.0001) %MON exf_ustress_sd               =   2.3700141740672E-02
(PID.TID 0000.0001) %MON exf_ustress_del2             =   2.8158755268036E-03
(PID.TID 0000.0001) %MON exf_vstress_max              =   5.3827196762903E-02
(PID.TID 0000.0001) %MON exf_vstress_min              =  -5.8480358160296E-02
(PID.TID 0000.0001) %MON exf_vstress_mean             =  -5.4532186552470E-03
(PID.TID 0000.0001) %MON exf_vstress_sd               =   1.4440792152946E-02
(PID.TID 0000.0001) %MON exf_vstress_del2             =   1.6929391726061E-03
(PID.TID 0000.0001) %MON exf_hflux_max                =   6.2482499785037E+02
(PID.TID 0000.0001) %MON exf_hflux_min                =  -5.1652096234823E+01
(PID.TID 0000.0001) %MON exf_hflux_mean               =   1.4608870685788E+02
(PID.TID 0000.0001) %MON exf_hflux_sd                 =   1.8003233951708E+02
(PID.TID 0000.0001) %MON exf_hflux_del2               =   1.6307605460859E+01
(PID.TID 0000.0001) %MON exf_sflux_max                =   3.9014761130189E-08
(PID.TID 0000.0001) %MON exf_sflux_min                =  -8.8949891199108E-08
(PID.TID 0000.0001) %MON exf_sflux_mean               =  -2.5974537200344E-08
(PID.TID 0000.0001) %MON exf_sflux_sd                 =   3.0366720996004E-08
(PID.TID 0000.0001) %MON exf_sflux_del2               =   3.1622834101716E-09
(PID.TID 0000.0001) %MON exf_uwind_max                =   6.4658968995829E+00
(PID.TID 0000.0001) %MON exf_uwind_min                =  -6.8373184184559E+00
(PID.TID 0000.0001) %MON exf_uwind_mean               =   2.7700953906364E+00
(PID.TID 0000.0001) %MON exf_uwind_sd                 =   2.9908682681638E+00
(PID.TID 0000.0001) %MON exf_uwind_del2               =   3.1573366006031E-01
(PID.TID 0000.0001) %MON exf_vwind_max                =   3.9241587548959E+00
(PID.TID 0000.0001) %MON exf_vwind_min                =  -6.0169856587394E+00
(PID.TID 0000.0001) %MON exf_vwind_mean               =  -7.5904536197929E-01
(PID.TID 0000.0001) %MON exf_vwind_sd                 =   1.7296682234552E+00
(PID.TID 0000.0001) %MON exf_vwind_del2               =   1.9331202479855E-01
(PID.TID 0000.0001) %MON exf_wspeed_max               =   7.8833967989048E+00
(PID.TID 0000.0001) %MON exf_wspeed_min               =   4.5962367887737E-01
(PID.TID 0000.0001) %MON exf_wspeed_mean              =   4.1984294286706E+00
(PID.TID 0000.0001) %MON exf_wspeed_sd                =   1.5999418201857E+00
(PID.TID 0000.0001) %MON exf_wspeed_del2              =   3.7709664625274E-01
(PID.TID 0000.0001) %MON exf_atemp_max                =   2.8187767604140E+02
(PID.TID 0000.0001) %MON exf_atemp_min                =   2.3644837420104E+02
(PID.TID 0000.0001) %MON exf_atemp_mean               =   2.6393212652025E+02
(PID.TID 0000.0001) %MON exf_atemp_sd                 =   1.1987801543771E+01
(PID.TID 0000.0001) %MON exf_atemp_del2               =   6.4948108800042E-01
(PID.TID 0000.0001) %MON exf_aqh_max                  =   6.3210833210834E-03
(PID.TID 0000.0001) %MON exf_aqh_min                  =   1.6341043767886E-04
(PID.TID 0000.0001) %MON exf_aqh_mean                 =   2.4786818409748E-03
(PID.TID 0000.0001) %MON exf_aqh_sd                   =   1.4261982746893E-03
(PID.TID 0000.0001) %MON exf_aqh_del2                 =   6.8100777916201E-05
(PID.TID 0000.0001) %MON exf_lwflux_max               =   1.8153866759519E+02
(PID.TID 0000.0001) %MON exf_lwflux_min               =   2.7117659265182E+01
(PID.TID 0000.0001) %MON exf_lwflux_mean              =   7.5167336270106E+01
(PID.TID 0000.0001) %MON exf_lwflux_sd                =   4.2791334916298E+01
(PID.TID 0000.0001) %MON exf_lwflux_del2              =   3.2353470327402E+00
(PID.TID 0000.0001) %MON exf_precip_max               =   1.0499180733557E-07
(PID.TID 0000.0001) %MON exf_precip_min               =   2.7319320752566E-10
(PID.TID 0000.0001) %MON exf_precip_mean              =   3.6390048010982E-08
(PID.TID 0000.0001) %MON exf_precip_sd                =   2.0579501435483E-08
(PID.TID 0000.0001) %MON exf_precip_del2              =   2.5567380653122E-09
(PID.TID 0000.0001) %MON exf_snowprecip_max           =   0.0000000000000E+00
(PID.TID 0000.0001) %MON exf_snowprecip_min           =   0.0000000000000E+00
(PID.TID 0000.0001) %MON exf_snowprecip_mean          =   0.0000000000000E+00
(PID.TID 0000.0001) %MON exf_snowprecip_sd            =   0.0000000000000E+00
(PID.TID 0000.0001) %MON exf_snowprecip_del2          =   0.0000000000000E+00
(PID.TID 0000.0001) %MON exf_swflux_max               =  -8.1206604105527E-02
(PID.TID 0000.0001) %MON exf_swflux_min               =  -6.4029725065388E+01
(PID.TID 0000.0001) %MON exf_swflux_mean              =  -2.6484819670573E+01
(PID.TID 0000.0001) %MON exf_swflux_sd                =   1.9637409707136E+01
(PID.TID 0000.0001) %MON exf_swflux_del2              =   4.7933338739073E-01
(PID.TID 0000.0001) %MON exf_evap_max                 =   4.5336980821491E-08
(PID.TID 0000.0001) %MON exf_evap_min                 =  -4.2852111103008E-09
(PID.TID 0000.0001) %MON exf_evap_mean                =   1.0415510810638E-08
(PID.TID 0000.0001) %MON exf_evap_sd                  =   1.1091288916813E-08
(PID.TID 0000.0001) %MON exf_evap_del2                =   1.3330271226644E-09
(PID.TID 0000.0001) %MON exf_swdown_max               =   7.1144138961542E+01
(PID.TID 0000.0001) %MON exf_swdown_min               =   9.0229560117253E-02
(PID.TID 0000.0001) %MON exf_swdown_mean              =   2.9427577411748E+01
(PID.TID 0000.0001) %MON exf_swdown_sd                =   2.1819344119040E+01
(PID.TID 0000.0001) %MON exf_swdown_del2              =   5.3259265265636E-01
(PID.TID 0000.0001) %MON exf_lwdown_max               =   3.0565323976611E+02
(PID.TID 0000.0001) %MON exf_lwdown_min               =   1.1595237147222E+02
(PID.TID 0000.0001) %MON exf_lwdown_mean              =   2.2590219497194E+02
(PID.TID 0000.0001) %MON exf_lwdown_sd                =   4.6289340871590E+01
(PID.TID 0000.0001) %MON exf_lwdown_del2              =   3.2438562169101E+00
(PID.TID 0000.0001) %MON exf_apressure_max            =   0.0000000000000E+00
(PID.TID 0000.0001) %MON exf_apressure_min            =   0.0000000000000E+00
(PID.TID 0000.0001) %MON exf_apressure_mean           =   0.0000000000000E+00
(PID.TID 0000.0001) %MON exf_apressure_sd             =   0.0000000000000E+00
(PID.TID 0000.0001) %MON exf_apressure_del2           =   0.0000000000000E+00
(PID.TID 0000.0001) %MON exf_runoff_max               =   0.0000000000000E+00
(PID.TID 0000.0001) %MON exf_runoff_min               =   0.0000000000000E+00
(PID.TID 0000.0001) %MON exf_runoff_mean              =   0.0000000000000E+00
(PID.TID 0000.0001) %MON exf_runoff_sd                =   0.0000000000000E+00
(PID.TID 0000.0001) %MON exf_runoff_del2              =   0.0000000000000E+00
(PID.TID 0000.0001) %MON exf_climsst_max              =   0.0000000000000E+00
(PID.TID 0000.0001) %MON exf_climsst_min              =   0.0000000000000E+00
(PID.TID 0000.0001) %MON exf_climsst_mean             =   0.0000000000000E+00
(PID.TID 0000.0001) %MON exf_climsst_sd               =   0.0000000000000E+00
(PID.TID 0000.0001) %MON exf_climsst_del2             =   0.0000000000000E+00
(PID.TID 0000.0001) %MON exf_climsss_max              =   3.5040885127959E+01
(PID.TID 0000.0001) %MON exf_climsss_min              =   3.0668591155380E+01
(PID.TID 0000.0001) %MON exf_climsss_mean             =   3.3460883601427E+01
(PID.TID 0000.0001) %MON exf_climsss_sd               =   1.0317405668875E+00
(PID.TID 0000.0001) %MON exf_climsss_del2             =   1.0014227359021E-01
(PID.TID 0000.0001) // =======================================================
(PID.TID 0000.0001) // End MONITOR EXF statistics
(PID.TID 0000.0001) // =======================================================
 ph-ice B  3  0.  0.  0.
 ph-ice C  3  2.0493353E+11
 cg2d: Sum(rhs),rhsMax =   3.25072856445507E-08  1.21053584823772E+00
(PID.TID 0000.0001) // =======================================================
(PID.TID 0000.0001) // Begin MONITOR SEAICE statistics
(PID.TID 0000.0001) // =======================================================
(PID.TID 0000.0001) %MON seaice_tsnumber              =                     4
(PID.TID 0000.0001) %MON seaice_time_sec              =   1.4400000000000E+04
(PID.TID 0000.0001) %MON seaice_uice_max              =   2.0410589054715E-01
(PID.TID 0000.0001) %MON seaice_uice_min              =  -1.0820664027346E-01
(PID.TID 0000.0001) %MON seaice_uice_mean             =   8.1218833244679E-02
(PID.TID 0000.0001) %MON seaice_uice_sd               =   7.8521024165965E-02
(PID.TID 0000.0001) %MON seaice_uice_del2             =   9.4129555731414E-03
(PID.TID 0000.0001) %MON seaice_vice_max              =   9.9288348099815E-02
(PID.TID 0000.0001) %MON seaice_vice_min              =  -1.9612309366449E-01
(PID.TID 0000.0001) %MON seaice_vice_mean             =  -3.7794415535208E-02
(PID.TID 0000.0001) %MON seaice_vice_sd               =   6.1057438686174E-02
(PID.TID 0000.0001) %MON seaice_vice_del2             =   6.9481562518628E-03
(PID.TID 0000.0001) %MON seaice_area_max              =   1.0000000000000E+00
(PID.TID 0000.0001) %MON seaice_area_min              =   0.0000000000000E+00
(PID.TID 0000.0001) %MON seaice_area_mean             =   6.2448964133910E-01
(PID.TID 0000.0001) %MON seaice_area_sd               =   4.5884276156995E-01
(PID.TID 0000.0001) %MON seaice_area_del2             =   5.3567607319357E-02
(PID.TID 0000.0001) %MON seaice_heff_max              =   5.5146835059086E-01
(PID.TID 0000.0001) %MON seaice_heff_min              =   0.0000000000000E+00
(PID.TID 0000.0001) %MON seaice_heff_mean             =   1.4217098028193E-01
(PID.TID 0000.0001) %MON seaice_heff_sd               =   1.7417998529695E-01
(PID.TID 0000.0001) %MON seaice_heff_del2             =   1.3240081984674E-02
(PID.TID 0000.0001) %MON seaice_hsnow_max             =   2.0313961711978E-01
(PID.TID 0000.0001) %MON seaice_hsnow_min             =   0.0000000000000E+00
(PID.TID 0000.0001) %MON seaice_hsnow_mean            =   1.1810788894745E-01
(PID.TID 0000.0001) %MON seaice_hsnow_sd              =   9.6917239052131E-02
(PID.TID 0000.0001) %MON seaice_hsnow_del2            =   6.4249667979235E-03
(PID.TID 0000.0001) // =======================================================
(PID.TID 0000.0001) // End MONITOR SEAICE statistics
(PID.TID 0000.0001) // =======================================================
(PID.TID 0000.0001) // =======================================================
(PID.TID 0000.0001) // Begin MONITOR EXF statistics
(PID.TID 0000.0001) // =======================================================
(PID.TID 0000.0001) %MON exf_tsnumber                 =                     4
(PID.TID 0000.0001) %MON exf_time_sec                 =   1.4400000000000E+04
(PID.TID 0000.0001) %MON exf_ustress_max              =   5.2222749041024E-02
(PID.TID 0000.0001) %MON exf_ustress_min              =  -9.3790194486454E-02
(PID.TID 0000.0001) %MON exf_ustress_mean             =   1.7935661192330E-02
(PID.TID 0000.0001) %MON exf_ustress_sd               =   2.3707710437302E-02
(PID.TID 0000.0001) %MON exf_ustress_del2             =   2.8164281590428E-03
(PID.TID 0000.0001) %MON exf_vstress_max              =   5.3829437114216E-02
(PID.TID 0000.0001) %MON exf_vstress_min              =  -5.8464476572352E-02
(PID.TID 0000.0001) %MON exf_vstress_mean             =  -5.4495379393544E-03
(PID.TID 0000.0001) %MON exf_vstress_sd               =   1.4442680176580E-02
(PID.TID 0000.0001) %MON exf_vstress_del2             =   1.6931340342382E-03
(PID.TID 0000.0001) %MON exf_hflux_max                =   6.2496267398704E+02
(PID.TID 0000.0001) %MON exf_hflux_min                =  -5.1565362862443E+01
(PID.TID 0000.0001) %MON exf_hflux_mean               =   1.4615660595020E+02
(PID.TID 0000.0001) %MON exf_hflux_sd                 =   1.8002235810160E+02
(PID.TID 0000.0001) %MON exf_hflux_del2               =   1.6301998340314E+01
(PID.TID 0000.0001) %MON exf_sflux_max                =   3.9025647077273E-08
(PID.TID 0000.0001) %MON exf_sflux_min                =  -8.8952139752114E-08
(PID.TID 0000.0001) %MON exf_sflux_mean               =  -2.5966971378793E-08
(PID.TID 0000.0001) %MON exf_sflux_sd                 =   3.0361915159640E-08
(PID.TID 0000.0001) %MON exf_sflux_del2               =   3.1623401183905E-09
(PID.TID 0000.0001) %MON exf_uwind_max                =   6.4664043520318E+00
(PID.TID 0000.0001) %MON exf_uwind_min                =  -6.8373452001582E+00
(PID.TID 0000.0001) %MON exf_uwind_mean               =   2.7702029429808E+00
(PID.TID 0000.0001) %MON exf_uwind_sd                 =   2.9911443548250E+00
(PID.TID 0000.0001) %MON exf_uwind_del2               =   3.1574156428286E-01
(PID.TID 0000.0001) %MON exf_vwind_max                =   3.9241889356915E+00
(PID.TID 0000.0001) %MON exf_vwind_min                =  -6.0160797489145E+00
(PID.TID 0000.0001) %MON exf_vwind_mean               =  -7.5842758888917E-01
(PID.TID 0000.0001) %MON exf_vwind_sd                 =   1.7297766046368E+00
(PID.TID 0000.0001) %MON exf_vwind_del2               =   1.9330515345662E-01
(PID.TID 0000.0001) %MON exf_wspeed_max               =   7.8834350500991E+00
(PID.TID 0000.0001) %MON exf_wspeed_min               =   4.5938084481311E-01
(PID.TID 0000.0001) %MON exf_wspeed_mean              =   4.1985322596174E+00
(PID.TID 0000.0001) %MON exf_wspeed_sd                =   1.6001985099325E+00
(PID.TID 0000.0001) %MON exf_wspeed_del2              =   3.7714995543655E-01
(PID.TID 0000.0001) %MON exf_atemp_max                =   2.8187596388853E+02
(PID.TID 0000.0001) %MON exf_atemp_min                =   2.3644390923339E+02
(PID.TID 0000.0001) %MON exf_atemp_mean               =   2.6392748243095E+02
(PID.TID 0000.0001) %MON exf_atemp_sd                 =   1.1989263535412E+01
(PID.TID 0000.0001) %MON exf_atemp_del2               =   6.4950041955286E-01
(PID.TID 0000.0001) %MON exf_aqh_max                  =   6.3203867802223E-03
(PID.TID 0000.0001) %MON exf_aqh_min                  =   1.6331633418045E-04
(PID.TID 0000.0001) %MON exf_aqh_mean                 =   2.4781214845702E-03
(PID.TID 0000.0001) %MON exf_aqh_sd                   =   1.4260952789855E-03
(PID.TID 0000.0001) %MON exf_aqh_del2                 =   6.8087110355054E-05
(PID.TID 0000.0001) %MON exf_lwflux_max               =   1.8154800702574E+02
(PID.TID 0000.0001) %MON exf_lwflux_min               =   2.7104463751845E+01
(PID.TID 0000.0001) %MON exf_lwflux_mean              =   7.5190183479285E+01
(PID.TID 0000.0001) %MON exf_lwflux_sd                =   4.2783226611109E+01
(PID.TID 0000.0001) %MON exf_lwflux_del2              =   3.2333536702579E+00
(PID.TID 0000.0001) %MON exf_precip_max               =   1.0499318877820E-07
(PID.TID 0000.0001) %MON exf_precip_min               =   2.7305928105298E-10
(PID.TID 0000.0001) %MON exf_precip_mean              =   3.6390037166947E-08
(PID.TID 0000.0001) %MON exf_precip_sd                =   2.0579953834835E-08
(PID.TID 0000.0001) %MON exf_precip_del2              =   2.5572657585019E-09
(PID.TID 0000.0001) %MON exf_snowprecip_max           =   0.0000000000000E+00
(PID.TID 0000.0001) %MON exf_snowprecip_min           =   0.0000000000000E+00
(PID.TID 0000.0001) %MON exf_snowprecip_mean          =   0.0000000000000E+00
(PID.TID 0000.0001) %MON exf_snowprecip_sd            =   0.0000000000000E+00
(PID.TID 0000.0001) %MON exf_snowprecip_del2          =   0.0000000000000E+00
(PID.TID 0000.0001) %MON exf_swflux_max               =  -8.1206886983309E-02
(PID.TID 0000.0001) %MON exf_swflux_min               =  -6.4048595415960E+01
(PID.TID 0000.0001) %MON exf_swflux_mean              =  -2.6495351886448E+01
(PID.TID 0000.0001) %MON exf_swflux_sd                =   1.9641247100083E+01
(PID.TID 0000.0001) %MON exf_swflux_del2              =   4.7944026133668E-01
(PID.TID 0000.0001) %MON exf_evap_max                 =   4.5347204057645E-08
(PID.TID 0000.0001) %MON exf_evap_min                 =  -4.2663929324927E-09
(PID.TID 0000.0001) %MON exf_evap_mean                =   1.0423065788154E-08
(PID.TID 0000.0001) %MON exf_evap_sd                  =   1.1085437796264E-08
(PID.TID 0000.0001) %MON exf_evap_del2                =   1.3323750771097E-09
(PID.TID 0000.0001) %MON exf_swdown_max               =   7.1165106017733E+01
(PID.TID 0000.0001) %MON exf_swdown_min               =   9.0229874425898E-02
(PID.TID 0000.0001) %MON exf_swdown_mean              =   2.9439279873831E+01
(PID.TID 0000.0001) %MON exf_swdown_sd                =   2.1823607888981E+01
(PID.TID 0000.0001) %MON exf_swdown_del2              =   5.3271140148521E-01
(PID.TID 0000.0001) %MON exf_lwdown_max               =   3.0564441368228E+02
(PID.TID 0000.0001) %MON exf_lwdown_min               =   1.1593726459357E+02
(PID.TID 0000.0001) %MON exf_lwdown_mean              =   2.2588648764287E+02
(PID.TID 0000.0001) %MON exf_lwdown_sd                =   4.6293313753333E+01
(PID.TID 0000.0001) %MON exf_lwdown_del2              =   3.2438678569828E+00
(PID.TID 0000.0001) %MON exf_apressure_max            =   0.0000000000000E+00
(PID.TID 0000.0001) %MON exf_apressure_min            =   0.0000000000000E+00
(PID.TID 0000.0001) %MON exf_apressure_mean           =   0.0000000000000E+00
(PID.TID 0000.0001) %MON exf_apressure_sd             =   0.0000000000000E+00
(PID.TID 0000.0001) %MON exf_apressure_del2           =   0.0000000000000E+00
(PID.TID 0000.0001) %MON exf_runoff_max               =   0.0000000000000E+00
(PID.TID 0000.0001) %MON exf_runoff_min               =   0.0000000000000E+00
(PID.TID 0000.0001) %MON exf_runoff_mean              =   0.0000000000000E+00
(PID.TID 0000.0001) %MON exf_runoff_sd                =   0.0000000000000E+00
(PID.TID 0000.0001) %MON exf_runoff_del2              =   0.0000000000000E+00
(PID.TID 0000.0001) %MON exf_climsst_max              =   0.0000000000000E+00
(PID.TID 0000.0001) %MON exf_climsst_min              =   0.0000000000000E+00
(PID.TID 0000.0001) %MON exf_climsst_mean             =   0.0000000000000E+00
(PID.TID 0000.0001) %MON exf_climsst_sd               =   0.0000000000000E+00
(PID.TID 0000.0001) %MON exf_climsst_del2             =   0.0000000000000E+00
(PID.TID 0000.0001) %MON exf_climsss_max              =   3.5041069874998E+01
(PID.TID 0000.0001) %MON exf_climsss_min              =   3.0669350483378E+01
(PID.TID 0000.0001) %MON exf_climsss_mean             =   3.3461404934907E+01
(PID.TID 0000.0001) %MON exf_climsss_sd               =   1.0316695849659E+00
(PID.TID 0000.0001) %MON exf_climsss_del2             =   1.0012504429982E-01
(PID.TID 0000.0001) // =======================================================
(PID.TID 0000.0001) // End MONITOR EXF statistics
(PID.TID 0000.0001) // =======================================================
 ph-ice B  4  0.  0.  0.
 ph-ice C  4  2.55604391E+11
 cg2d: Sum(rhs),rhsMax =   3.22653009275642E-08  1.20538351180599E+00
(PID.TID 0000.0001) // =======================================================
(PID.TID 0000.0001) // Begin MONITOR SEAICE statistics
(PID.TID 0000.0001) // =======================================================
(PID.TID 0000.0001) %MON seaice_tsnumber              =                     5
(PID.TID 0000.0001) %MON seaice_time_sec              =   1.8000000000000E+04
(PID.TID 0000.0001) %MON seaice_uice_max              =   2.1945388345097E-01
(PID.TID 0000.0001) %MON seaice_uice_min              =  -1.0939009902182E-01
(PID.TID 0000.0001) %MON seaice_uice_mean             =   8.3081273706786E-02
(PID.TID 0000.0001) %MON seaice_uice_sd               =   8.3462883232977E-02
(PID.TID 0000.0001) %MON seaice_uice_del2             =   1.0024724273058E-02
(PID.TID 0000.0001) %MON seaice_vice_max              =   1.0086664969296E-01
(PID.TID 0000.0001) %MON seaice_vice_min              =  -1.9808188885598E-01
(PID.TID 0000.0001) %MON seaice_vice_mean             =  -4.6968651932591E-02
(PID.TID 0000.0001) %MON seaice_vice_sd               =   6.7920792062508E-02
(PID.TID 0000.0001) %MON seaice_vice_del2             =   7.5957083202224E-03
(PID.TID 0000.0001) %MON seaice_area_max              =   1.0000000000000E+00
(PID.TID 0000.0001) %MON seaice_area_min              =   0.0000000000000E+00
(PID.TID 0000.0001) %MON seaice_area_mean             =   6.2430150050948E-01
(PID.TID 0000.0001) %MON seaice_area_sd               =   4.5848056987615E-01
(PID.TID 0000.0001) %MON seaice_area_del2             =   5.3615010684802E-02
(PID.TID 0000.0001) %MON seaice_heff_max              =   5.4903937822395E-01
(PID.TID 0000.0001) %MON seaice_heff_min              =   0.0000000000000E+00
(PID.TID 0000.0001) %MON seaice_heff_mean             =   1.4223682485914E-01
(PID.TID 0000.0001) %MON seaice_heff_sd               =   1.7414935538469E-01
(PID.TID 0000.0001) %MON seaice_heff_del2             =   1.3251216161064E-02
(PID.TID 0000.0001) %MON seaice_hsnow_max             =   2.0392476353420E-01
(PID.TID 0000.0001) %MON seaice_hsnow_min             =   0.0000000000000E+00
(PID.TID 0000.0001) %MON seaice_hsnow_mean            =   1.1825099134881E-01
(PID.TID 0000.0001) %MON seaice_hsnow_sd              =   9.7044356047401E-02
(PID.TID 0000.0001) %MON seaice_hsnow_del2            =   6.4762509678832E-03
(PID.TID 0000.0001) // =======================================================
(PID.TID 0000.0001) // End MONITOR SEAICE statistics
(PID.TID 0000.0001) // =======================================================
(PID.TID 0000.0001) // =======================================================
(PID.TID 0000.0001) // Begin MONITOR EXF statistics
(PID.TID 0000.0001) // =======================================================
(PID.TID 0000.0001) %MON exf_tsnumber                 =                     5
(PID.TID 0000.0001) %MON exf_time_sec                 =   1.8000000000000E+04
(PID.TID 0000.0001) %MON exf_ustress_max              =   5.2230884117557E-02
(PID.TID 0000.0001) %MON exf_ustress_min              =  -9.3792692313509E-02
(PID.TID 0000.0001) %MON exf_ustress_mean             =   1.7944937658238E-02
(PID.TID 0000.0001) %MON exf_ustress_sd               =   2.3713961707875E-02
(PID.TID 0000.0001) %MON exf_ustress_del2             =   2.8173059736207E-03
(PID.TID 0000.0001) %MON exf_vstress_max              =   5.3831073859947E-02
(PID.TID 0000.0001) %MON exf_vstress_min              =  -5.8456785540476E-02
(PID.TID 0000.0001) %MON exf_vstress_mean             =  -5.4464517306541E-03
(PID.TID 0000.0001) %MON exf_vstress_sd               =   1.4444944627580E-02
(PID.TID 0000.0001) %MON exf_vstress_del2             =   1.6932728087718E-03
(PID.TID 0000.0001) %MON exf_hflux_max                =   6.2503361232606E+02
(PID.TID 0000.0001) %MON exf_hflux_min                =  -5.1451597536785E+01
(PID.TID 0000.0001) %MON exf_hflux_mean               =   1.4623261660149E+02
(PID.TID 0000.0001) %MON exf_hflux_sd                 =   1.8002329034679E+02
(PID.TID 0000.0001) %MON exf_hflux_del2               =   1.6301001998762E+01
(PID.TID 0000.0001) %MON exf_sflux_max                =   3.9028023656346E-08
(PID.TID 0000.0001) %MON exf_sflux_min                =  -8.8915527500868E-08
(PID.TID 0000.0001) %MON exf_sflux_mean               =  -2.5958891433937E-08
(PID.TID 0000.0001) %MON exf_sflux_sd                 =   3.0357857838770E-08
(PID.TID 0000.0001) %MON exf_sflux_del2               =   3.1625223897563E-09
(PID.TID 0000.0001) %MON exf_uwind_max                =   6.4669118044806E+00
(PID.TID 0000.0001) %MON exf_uwind_min                =  -6.8373719818605E+00
(PID.TID 0000.0001) %MON exf_uwind_mean               =   2.7703104953252E+00
(PID.TID 0000.0001) %MON exf_uwind_sd                 =   2.9914204817202E+00
(PID.TID 0000.0001) %MON exf_uwind_del2               =   3.1574946850541E-01
(PID.TID 0000.0001) %MON exf_vwind_max                =   3.9242191164871E+00
(PID.TID 0000.0001) %MON exf_vwind_min                =  -6.0151738390896E+00
(PID.TID 0000.0001) %MON exf_vwind_mean               =  -7.5780981579906E-01
(PID.TID 0000.0001) %MON exf_vwind_sd                 =   1.7298850990135E+00
(PID.TID 0000.0001) %MON exf_vwind_del2               =   1.9329828211469E-01
(PID.TID 0000.0001) %MON exf_wspeed_max               =   7.8834733013142E+00
(PID.TID 0000.0001) %MON exf_wspeed_min               =   4.5913801314248E-01
(PID.TID 0000.0001) %MON exf_wspeed_mean              =   4.1986352194932E+00
(PID.TID 0000.0001) %MON exf_wspeed_sd                =   1.6004553118739E+00
(PID.TID 0000.0001) %MON exf_wspeed_del2              =   3.7720325813743E-01
(PID.TID 0000.0001) %MON exf_atemp_max                =   2.8187425173567E+02
(PID.TID 0000.0001) %MON exf_atemp_min                =   2.3643944426573E+02
(PID.TID 0000.0001) %MON exf_atemp_mean               =   2.6392283834165E+02
(PID.TID 0000.0001) %MON exf_atemp_sd                 =   1.1990726014328E+01
(PID.TID 0000.0001) %MON exf_atemp_del2               =   6.4951975110530E-01
(PID.TID 0000.0001) %MON exf_aqh_max                  =   6.3196902393613E-03
(PID.TID 0000.0001) %MON exf_aqh_min                  =   1.6322223068205E-04
(PID.TID 0000.0001) %MON exf_aqh_mean                 =   2.4775611281656E-03
(PID.TID 0000.0001) %MON exf_aqh_sd                   =   1.4259923191659E-03
(PID.TID 0000.0001) %MON exf_aqh_del2                 =   6.8073442793907E-05
(PID.TID 0000.0001) %MON exf_lwflux_max               =   1.8156112611884E+02
(PID.TID 0000.0001) %MON exf_lwflux_min               =   2.7075633018204E+01
(PID.TID 0000.0001) %MON exf_lwflux_mean              =   7.5214635659662E+01
(PID.TID 0000.0001) %MON exf_lwflux_sd                =   4.2777640099777E+01
(PID.TID 0000.0001) %MON exf_lwflux_del2              =   3.2323852509511E+00
(PID.TID 0000.0001) %MON exf_precip_max               =   1.0499457022082E-07
(PID.TID 0000.0001) %MON exf_precip_min               =   2.7292535458031E-10
(PID.TID 0000.0001) %MON exf_precip_mean              =   3.6390026322913E-08
(PID.TID 0000.0001) %MON exf_precip_sd                =   2.0580406889746E-08
(PID.TID 0000.0001) %MON exf_precip_del2              =   2.5577934516916E-09
(PID.TID 0000.0001) %MON exf_snowprecip_max           =   0.0000000000000E+00
(PID.TID 0000.0001) %MON exf_snowprecip_min           =   0.0000000000000E+00
(PID.TID 0000.0001) %MON exf_snowprecip_mean          =   0.0000000000000E+00
(PID.TID 0000.0001) %MON exf_snowprecip_sd            =   0.0000000000000E+00
(PID.TID 0000.0001) %MON exf_snowprecip_del2          =   0.0000000000000E+00
(PID.TID 0000.0001) %MON exf_swflux_max               =  -8.1207169861090E-02
(PID.TID 0000.0001) %MON exf_swflux_min               =  -6.4067465766532E+01
(PID.TID 0000.0001) %MON exf_swflux_mean              =  -2.6505884102323E+01
(PID.TID 0000.0001) %MON exf_swflux_sd                =   1.9645085084315E+01
(PID.TID 0000.0001) %MON exf_swflux_del2              =   4.7954713528264E-01
(PID.TID 0000.0001) %MON exf_evap_max                 =   4.5348917925787E-08
(PID.TID 0000.0001) %MON exf_evap_min                 =  -4.2424751736833E-09
(PID.TID 0000.0001) %MON exf_evap_mean                =   1.0431134888976E-08
(PID.TID 0000.0001) %MON exf_evap_sd                  =   1.1081500388166E-08
(PID.TID 0000.0001) %MON exf_evap_del2                =   1.3323453146541E-09
(PID.TID 0000.0001) %MON exf_swdown_max               =   7.1186073073924E+01
(PID.TID 0000.0001) %MON exf_swdown_min               =   9.0230188734544E-02
(PID.TID 0000.0001) %MON exf_swdown_mean              =   2.9450982335914E+01
(PID.TID 0000.0001) %MON exf_swdown_sd                =   2.1827872315905E+01
(PID.TID 0000.0001) %MON exf_swdown_del2              =   5.3283015031405E-01
(PID.TID 0000.0001) %MON exf_lwdown_max               =   3.0563558759846E+02
(PID.TID 0000.0001) %MON exf_lwdown_min               =   1.1592215771493E+02
(PID.TID 0000.0001) %MON exf_lwdown_mean              =   2.2587078031381E+02
(PID.TID 0000.0001) %MON exf_lwdown_sd                =   4.6297287802066E+01
(PID.TID 0000.0001) %MON exf_lwdown_del2              =   3.2438794970556E+00
(PID.TID 0000.0001) %MON exf_apressure_max            =   0.0000000000000E+00
(PID.TID 0000.0001) %MON exf_apressure_min            =   0.0000000000000E+00
(PID.TID 0000.0001) %MON exf_apressure_mean           =   0.0000000000000E+00
(PID.TID 0000.0001) %MON exf_apressure_sd             =   0.0000000000000E+00
(PID.TID 0000.0001) %MON exf_apressure_del2           =   0.0000000000000E+00
(PID.TID 0000.0001) %MON exf_runoff_max               =   0.0000000000000E+00
(PID.TID 0000.0001) %MON exf_runoff_min               =   0.0000000000000E+00
(PID.TID 0000.0001) %MON exf_runoff_mean              =   0.0000000000000E+00
(PID.TID 0000.0001) %MON exf_runoff_sd                =   0.0000000000000E+00
(PID.TID 0000.0001) %MON exf_runoff_del2              =   0.0000000000000E+00
(PID.TID 0000.0001) %MON exf_climsst_max              =   0.0000000000000E+00
(PID.TID 0000.0001) %MON exf_climsst_min              =   0.0000000000000E+00
(PID.TID 0000.0001) %MON exf_climsst_mean             =   0.0000000000000E+00
(PID.TID 0000.0001) %MON exf_climsst_sd               =   0.0000000000000E+00
(PID.TID 0000.0001) %MON exf_climsst_del2             =   0.0000000000000E+00
(PID.TID 0000.0001) %MON exf_climsss_max              =   3.5041254622037E+01
(PID.TID 0000.0001) %MON exf_climsss_min              =   3.0670109811376E+01
(PID.TID 0000.0001) %MON exf_climsss_mean             =   3.3461926268386E+01
(PID.TID 0000.0001) %MON exf_climsss_sd               =   1.0315988331065E+00
(PID.TID 0000.0001) %MON exf_climsss_del2             =   1.0010781500943E-01
(PID.TID 0000.0001) // =======================================================
(PID.TID 0000.0001) // End MONITOR EXF statistics
(PID.TID 0000.0001) // =======================================================
 ph-ice B  5  0.  0.  0.
 ph-ice C  5  3.06281694E+11
 cg2d: Sum(rhs),rhsMax =   3.20070766106351E-08  1.19996672203157E+00
(PID.TID 0000.0001) // =======================================================
(PID.TID 0000.0001) // Begin MONITOR SEAICE statistics
(PID.TID 0000.0001) // =======================================================
(PID.TID 0000.0001) %MON seaice_tsnumber              =                     6
(PID.TID 0000.0001) %MON seaice_time_sec              =   2.1600000000000E+04
(PID.TID 0000.0001) %MON seaice_uice_max              =   2.3992786891557E-01
(PID.TID 0000.0001) %MON seaice_uice_min              =  -1.0534849502399E-01
(PID.TID 0000.0001) %MON seaice_uice_mean             =   8.0980931373080E-02
(PID.TID 0000.0001) %MON seaice_uice_sd               =   8.5694110466924E-02
(PID.TID 0000.0001) %MON seaice_uice_del2             =   1.0079227915651E-02
(PID.TID 0000.0001) %MON seaice_vice_max              =   9.8351447677789E-02
(PID.TID 0000.0001) %MON seaice_vice_min              =  -2.1228924535159E-01
(PID.TID 0000.0001) %MON seaice_vice_mean             =  -5.4937515088394E-02
(PID.TID 0000.0001) %MON seaice_vice_sd               =   7.2061970174928E-02
(PID.TID 0000.0001) %MON seaice_vice_del2             =   8.0226601365487E-03
(PID.TID 0000.0001) %MON seaice_area_max              =   1.0000000000000E+00
(PID.TID 0000.0001) %MON seaice_area_min              =   0.0000000000000E+00
(PID.TID 0000.0001) %MON seaice_area_mean             =   6.2417688249224E-01
(PID.TID 0000.0001) %MON seaice_area_sd               =   4.5808407102594E-01
(PID.TID 0000.0001) %MON seaice_area_del2             =   5.3631206670624E-02
(PID.TID 0000.0001) %MON seaice_heff_max              =   5.4790358803129E-01
(PID.TID 0000.0001) %MON seaice_heff_min              =   0.0000000000000E+00
(PID.TID 0000.0001) %MON seaice_heff_mean             =   1.4225490607581E-01
(PID.TID 0000.0001) %MON seaice_heff_sd               =   1.7422519659040E-01
(PID.TID 0000.0001) %MON seaice_heff_del2             =   1.3241096695928E-02
(PID.TID 0000.0001) %MON seaice_hsnow_max             =   2.0470995401277E-01
(PID.TID 0000.0001) %MON seaice_hsnow_min             =   0.0000000000000E+00
(PID.TID 0000.0001) %MON seaice_hsnow_mean            =   1.1841143347743E-01
(PID.TID 0000.0001) %MON seaice_hsnow_sd              =   9.7165681938107E-02
(PID.TID 0000.0001) %MON seaice_hsnow_del2            =   6.5148328813484E-03
(PID.TID 0000.0001) // =======================================================
(PID.TID 0000.0001) // End MONITOR SEAICE statistics
(PID.TID 0000.0001) // =======================================================
(PID.TID 0000.0001) // =======================================================
(PID.TID 0000.0001) // Begin MONITOR EXF statistics
(PID.TID 0000.0001) // =======================================================
(PID.TID 0000.0001) %MON exf_tsnumber                 =                     6
(PID.TID 0000.0001) %MON exf_time_sec                 =   2.1600000000000E+04
(PID.TID 0000.0001) %MON exf_ustress_max              =   5.2237984457481E-02
(PID.TID 0000.0001) %MON exf_ustress_min              =  -9.3794680426842E-02
(PID.TID 0000.0001) %MON exf_ustress_mean             =   1.7953009820015E-02
(PID.TID 0000.0001) %MON exf_ustress_sd               =   2.3720085001709E-02
(PID.TID 0000.0001) %MON exf_ustress_del2             =   2.8182313366853E-03
(PID.TID 0000.0001) %MON exf_vstress_max              =   5.3832418070363E-02
(PID.TID 0000.0001) %MON exf_vstress_min              =  -5.8451170700522E-02
(PID.TID 0000.0001) %MON exf_vstress_mean             =  -5.4433705330771E-03
(PID.TID 0000.0001) %MON exf_vstress_sd               =   1.4447187128180E-02
(PID.TID 0000.0001) %MON exf_vstress_del2             =   1.6932775252274E-03
(PID.TID 0000.0001) %MON exf_hflux_max                =   6.2507220073312E+02
(PID.TID 0000.0001) %MON exf_hflux_min                =  -5.1351197183346E+01
(PID.TID 0000.0001) %MON exf_hflux_mean               =   1.4630891279574E+02
(PID.TID 0000.0001) %MON exf_hflux_sd                 =   1.8003247794005E+02
(PID.TID 0000.0001) %MON exf_hflux_del2               =   1.6303857221076E+01
(PID.TID 0000.0001) %MON exf_sflux_max                =   3.9026275524019E-08
(PID.TID 0000.0001) %MON exf_sflux_min                =  -8.8868954899193E-08
(PID.TID 0000.0001) %MON exf_sflux_mean               =  -2.5950945377571E-08
(PID.TID 0000.0001) %MON exf_sflux_sd                 =   3.0354685858102E-08
(PID.TID 0000.0001) %MON exf_sflux_del2               =   3.1631146760641E-09
(PID.TID 0000.0001) %MON exf_uwind_max                =   6.4674192569295E+00
(PID.TID 0000.0001) %MON exf_uwind_min                =  -6.8373987635628E+00
(PID.TID 0000.0001) %MON exf_uwind_mean               =   2.7704180476696E+00
(PID.TID 0000.0001) %MON exf_uwind_sd                 =   2.9916966488382E+00
(PID.TID 0000.0001) %MON exf_uwind_del2               =   3.1575737272796E-01
(PID.TID 0000.0001) %MON exf_vwind_max                =   3.9242492972827E+00
(PID.TID 0000.0001) %MON exf_vwind_min                =  -6.0142679292648E+00
(PID.TID 0000.0001) %MON exf_vwind_mean               =  -7.5719204270894E-01
(PID.TID 0000.0001) %MON exf_vwind_sd                 =   1.7299937065642E+00
(PID.TID 0000.0001) %MON exf_vwind_del2               =   1.9329141077275E-01
(PID.TID 0000.0001) %MON exf_wspeed_max               =   7.8835115525503E+00
(PID.TID 0000.0001) %MON exf_wspeed_min               =   4.5889518386928E-01
(PID.TID 0000.0001) %MON exf_wspeed_mean              =   4.1987383082859E+00
(PID.TID 0000.0001) %MON exf_wspeed_sd                =   1.6007122259633E+00
(PID.TID 0000.0001) %MON exf_wspeed_del2              =   3.7725655435875E-01
(PID.TID 0000.0001) %MON exf_atemp_max                =   2.8187253958280E+02
(PID.TID 0000.0001) %MON exf_atemp_min                =   2.3643497929808E+02
(PID.TID 0000.0001) %MON exf_atemp_mean               =   2.6391819425235E+02
(PID.TID 0000.0001) %MON exf_atemp_sd                 =   1.1992188980341E+01
(PID.TID 0000.0001) %MON exf_atemp_del2               =   6.4953908265774E-01
(PID.TID 0000.0001) %MON exf_aqh_max                  =   6.3189936985002E-03
(PID.TID 0000.0001) %MON exf_aqh_min                  =   1.6312812718364E-04
(PID.TID 0000.0001) %MON exf_aqh_mean                 =   2.4770007717611E-03
(PID.TID 0000.0001) %MON exf_aqh_sd                   =   1.4258893952382E-03
(PID.TID 0000.0001) %MON exf_aqh_del2                 =   6.8059775232760E-05
(PID.TID 0000.0001) %MON exf_lwflux_max               =   1.8157457967829E+02
(PID.TID 0000.0001) %MON exf_lwflux_min               =   2.7062314432242E+01
(PID.TID 0000.0001) %MON exf_lwflux_mean              =   7.5238116487251E+01
(PID.TID 0000.0001) %MON exf_lwflux_sd                =   4.2774672031793E+01
(PID.TID 0000.0001) %MON exf_lwflux_del2              =   3.2322308321867E+00
(PID.TID 0000.0001) %MON exf_precip_max               =   1.0499595166344E-07
(PID.TID 0000.0001) %MON exf_precip_min               =   2.7279142810763E-10
(PID.TID 0000.0001) %MON exf_precip_mean              =   3.6390015478879E-08
(PID.TID 0000.0001) %MON exf_precip_sd                =   2.0580860600171E-08
(PID.TID 0000.0001) %MON exf_precip_del2              =   2.5583211448813E-09
(PID.TID 0000.0001) %MON exf_snowprecip_max           =   0.0000000000000E+00
(PID.TID 0000.0001) %MON exf_snowprecip_min           =   0.0000000000000E+00
(PID.TID 0000.0001) %MON exf_snowprecip_mean          =   0.0000000000000E+00
(PID.TID 0000.0001) %MON exf_snowprecip_sd            =   0.0000000000000E+00
(PID.TID 0000.0001) %MON exf_snowprecip_del2          =   0.0000000000000E+00
(PID.TID 0000.0001) %MON exf_swflux_max               =  -8.1207452738871E-02
(PID.TID 0000.0001) %MON exf_swflux_min               =  -6.4086336117103E+01
(PID.TID 0000.0001) %MON exf_swflux_mean              =  -2.6516416318198E+01
(PID.TID 0000.0001) %MON exf_swflux_sd                =   1.9648923659484E+01
(PID.TID 0000.0001) %MON exf_swflux_del2              =   4.7965400922860E-01
(PID.TID 0000.0001) %MON exf_evap_max                 =   4.5346507082529E-08
(PID.TID 0000.0001) %MON exf_evap_min                 =  -4.2210682160481E-09
(PID.TID 0000.0001) %MON exf_evap_mean                =   1.0439070101308E-08
(PID.TID 0000.0001) %MON exf_evap_sd                  =   1.1078855099675E-08
(PID.TID 0000.0001) %MON exf_evap_del2                =   1.3326442940500E-09
(PID.TID 0000.0001) %MON exf_swdown_max               =   7.1207040130115E+01
(PID.TID 0000.0001) %MON exf_swdown_min               =   9.0230503043190E-02
(PID.TID 0000.0001) %MON exf_swdown_mean              =   2.9462684797997E+01
(PID.TID 0000.0001) %MON exf_swdown_sd                =   2.1832137399427E+01
(PID.TID 0000.0001) %MON exf_swdown_del2              =   5.3294889914289E-01
(PID.TID 0000.0001) %MON exf_lwdown_max               =   3.0562676151463E+02
(PID.TID 0000.0001) %MON exf_lwdown_min               =   1.1590705083628E+02
(PID.TID 0000.0001) %MON exf_lwdown_mean              =   2.2585507298474E+02
(PID.TID 0000.0001) %MON exf_lwdown_sd                =   4.6301263017486E+01
(PID.TID 0000.0001) %MON exf_lwdown_del2              =   3.2438911371283E+00
(PID.TID 0000.0001) %MON exf_apressure_max            =   0.0000000000000E+00
(PID.TID 0000.0001) %MON exf_apressure_min            =   0.0000000000000E+00
(PID.TID 0000.0001) %MON exf_apressure_mean           =   0.0000000000000E+00
(PID.TID 0000.0001) %MON exf_apressure_sd             =   0.0000000000000E+00
(PID.TID 0000.0001) %MON exf_apressure_del2           =   0.0000000000000E+00
(PID.TID 0000.0001) %MON exf_runoff_max               =   0.0000000000000E+00
(PID.TID 0000.0001) %MON exf_runoff_min               =   0.0000000000000E+00
(PID.TID 0000.0001) %MON exf_runoff_mean              =   0.0000000000000E+00
(PID.TID 0000.0001) %MON exf_runoff_sd                =   0.0000000000000E+00
(PID.TID 0000.0001) %MON exf_runoff_del2              =   0.0000000000000E+00
(PID.TID 0000.0001) %MON exf_climsst_max              =   0.0000000000000E+00
(PID.TID 0000.0001) %MON exf_climsst_min              =   0.0000000000000E+00
(PID.TID 0000.0001) %MON exf_climsst_mean             =   0.0000000000000E+00
(PID.TID 0000.0001) %MON exf_climsst_sd               =   0.0000000000000E+00
(PID.TID 0000.0001) %MON exf_climsst_del2             =   0.0000000000000E+00
(PID.TID 0000.0001) %MON exf_climsss_max              =   3.5041439369077E+01
(PID.TID 0000.0001) %MON exf_climsss_min              =   3.0670869139374E+01
(PID.TID 0000.0001) %MON exf_climsss_mean             =   3.3462447601866E+01
(PID.TID 0000.0001) %MON exf_climsss_sd               =   1.0315283113566E+00
(PID.TID 0000.0001) %MON exf_climsss_del2             =   1.0009058571904E-01
(PID.TID 0000.0001) // =======================================================
(PID.TID 0000.0001) // End MONITOR EXF statistics
(PID.TID 0000.0001) // =======================================================
 ph-ice B  6  0.  0.  0.
 ph-ice C  6  3.56943128E+11
 cg2d: Sum(rhs),rhsMax =   3.26973396379271E-08  1.19247381631390E+00
(PID.TID 0000.0001) // =======================================================
(PID.TID 0000.0001) // Begin MONITOR SEAICE statistics
(PID.TID 0000.0001) // =======================================================
(PID.TID 0000.0001) %MON seaice_tsnumber              =                     7
(PID.TID 0000.0001) %MON seaice_time_sec              =   2.5200000000000E+04
(PID.TID 0000.0001) %MON seaice_uice_max              =   2.5685639783609E-01
(PID.TID 0000.0001) %MON seaice_uice_min              =  -9.7750591653012E-02
(PID.TID 0000.0001) %MON seaice_uice_mean             =   7.6056416112168E-02
(PID.TID 0000.0001) %MON seaice_uice_sd               =   8.5421798142894E-02
(PID.TID 0000.0001) %MON seaice_uice_del2             =   9.6584398958215E-03
(PID.TID 0000.0001) %MON seaice_vice_max              =   9.3826162065285E-02
(PID.TID 0000.0001) %MON seaice_vice_min              =  -2.2536421284052E-01
(PID.TID 0000.0001) %MON seaice_vice_mean             =  -6.0012462710695E-02
(PID.TID 0000.0001) %MON seaice_vice_sd               =   7.2852919570975E-02
(PID.TID 0000.0001) %MON seaice_vice_del2             =   8.1656245025904E-03
(PID.TID 0000.0001) %MON seaice_area_max              =   1.0000000000000E+00
(PID.TID 0000.0001) %MON seaice_area_min              =   0.0000000000000E+00
(PID.TID 0000.0001) %MON seaice_area_mean             =   6.2408688380035E-01
(PID.TID 0000.0001) %MON seaice_area_sd               =   4.5772399307410E-01
(PID.TID 0000.0001) %MON seaice_area_del2             =   5.3629429046005E-02
(PID.TID 0000.0001) %MON seaice_heff_max              =   5.4815057630988E-01
(PID.TID 0000.0001) %MON seaice_heff_min              =   0.0000000000000E+00
(PID.TID 0000.0001) %MON seaice_heff_mean             =   1.4221036134915E-01
(PID.TID 0000.0001) %MON seaice_heff_sd               =   1.7437204335609E-01
(PID.TID 0000.0001) %MON seaice_heff_del2             =   1.3220404366791E-02
(PID.TID 0000.0001) %MON seaice_hsnow_max             =   2.0549515084231E-01
(PID.TID 0000.0001) %MON seaice_hsnow_min             =   0.0000000000000E+00
(PID.TID 0000.0001) %MON seaice_hsnow_mean            =   1.1857184786736E-01
(PID.TID 0000.0001) %MON seaice_hsnow_sd              =   9.7287286135416E-02
(PID.TID 0000.0001) %MON seaice_hsnow_del2            =   6.5537586304193E-03
(PID.TID 0000.0001) // =======================================================
(PID.TID 0000.0001) // End MONITOR SEAICE statistics
(PID.TID 0000.0001) // =======================================================
(PID.TID 0000.0001) // =======================================================
(PID.TID 0000.0001) // Begin MONITOR EXF statistics
(PID.TID 0000.0001) // =======================================================
(PID.TID 0000.0001) %MON exf_tsnumber                 =                     7
(PID.TID 0000.0001) %MON exf_time_sec                 =   2.5200000000000E+04
(PID.TID 0000.0001) %MON exf_ustress_max              =   5.2243932822024E-02
(PID.TID 0000.0001) %MON exf_ustress_min              =  -9.3796695311269E-02
(PID.TID 0000.0001) %MON exf_ustress_mean             =   1.7960114228727E-02
(PID.TID 0000.0001) %MON exf_ustress_sd               =   2.3726165366229E-02
(PID.TID 0000.0001) %MON exf_ustress_del2             =   2.8191138207351E-03
(PID.TID 0000.0001) %MON exf_vstress_max              =   5.3833777652829E-02
(PID.TID 0000.0001) %MON exf_vstress_min              =  -5.8440994812778E-02
(PID.TID 0000.0001) %MON exf_vstress_mean             =  -5.4400592988487E-03
(PID.TID 0000.0001) %MON exf_vstress_sd               =   1.4449139792015E-02
(PID.TID 0000.0001) %MON exf_vstress_del2             =   1.6932576309810E-03
(PID.TID 0000.0001) %MON exf_hflux_max                =   6.2511249114509E+02
(PID.TID 0000.0001) %MON exf_hflux_min                =  -5.1292187882874E+01
(PID.TID 0000.0001) %MON exf_hflux_mean               =   1.4638052332972E+02
(PID.TID 0000.0001) %MON exf_hflux_sd                 =   1.8004884633063E+02
(PID.TID 0000.0001) %MON exf_hflux_del2               =   1.6307658947892E+01
(PID.TID 0000.0001) %MON exf_sflux_max                =   3.9024744508726E-08
(PID.TID 0000.0001) %MON exf_sflux_min                =  -8.8844029800386E-08
(PID.TID 0000.0001) %MON exf_sflux_mean               =  -2.5943668716099E-08
(PID.TID 0000.0001) %MON exf_sflux_sd                 =   3.0352934891584E-08
(PID.TID 0000.0001) %MON exf_sflux_del2               =   3.1638708725292E-09
(PID.TID 0000.0001) %MON exf_uwind_max                =   6.4679267093784E+00
(PID.TID 0000.0001) %MON exf_uwind_min                =  -6.8374255452651E+00
(PID.TID 0000.0001) %MON exf_uwind_mean               =   2.7705256000140E+00
(PID.TID 0000.0001) %MON exf_uwind_sd                 =   2.9919728561678E+00
(PID.TID 0000.0001) %MON exf_uwind_del2               =   3.1576527695052E-01
(PID.TID 0000.0001) %MON exf_vwind_max                =   3.9242794780783E+00
(PID.TID 0000.0001) %MON exf_vwind_min                =  -6.0133620194399E+00
(PID.TID 0000.0001) %MON exf_vwind_mean               =  -7.5657426961883E-01
(PID.TID 0000.0001) %MON exf_vwind_sd                 =   1.7301024272674E+00
(PID.TID 0000.0001) %MON exf_vwind_del2               =   1.9328456693798E-01
(PID.TID 0000.0001) %MON exf_wspeed_max               =   7.8835498038073E+00
(PID.TID 0000.0001) %MON exf_wspeed_min               =   4.5865235699732E-01
(PID.TID 0000.0001) %MON exf_wspeed_mean              =   4.1988415259832E+00
(PID.TID 0000.0001) %MON exf_wspeed_sd                =   1.6009692521540E+00
(PID.TID 0000.0001) %MON exf_wspeed_del2              =   3.7730984410389E-01
(PID.TID 0000.0001) %MON exf_atemp_max                =   2.8187082742993E+02
(PID.TID 0000.0001) %MON exf_atemp_min                =   2.3643051433042E+02
(PID.TID 0000.0001) %MON exf_atemp_mean               =   2.6391355016305E+02
(PID.TID 0000.0001) %MON exf_atemp_sd                 =   1.1993652433274E+01
(PID.TID 0000.0001) %MON exf_atemp_del2               =   6.4955841421018E-01
(PID.TID 0000.0001) %MON exf_aqh_max                  =   6.3182971576392E-03
(PID.TID 0000.0001) %MON exf_aqh_min                  =   1.6303402368524E-04
(PID.TID 0000.0001) %MON exf_aqh_mean                 =   2.4764404153565E-03
(PID.TID 0000.0001) %MON exf_aqh_sd                   =   1.4257865072101E-03
(PID.TID 0000.0001) %MON exf_aqh_del2                 =   6.8046107671613E-05
(PID.TID 0000.0001) %MON exf_lwflux_max               =   1.8159055041551E+02
(PID.TID 0000.0001) %MON exf_lwflux_min               =   2.7054912721713E+01
(PID.TID 0000.0001) %MON exf_lwflux_mean              =   7.5259465177430E+01
(PID.TID 0000.0001) %MON exf_lwflux_sd                =   4.2774130665914E+01
(PID.TID 0000.0001) %MON exf_lwflux_del2              =   3.2322877811585E+00
(PID.TID 0000.0001) %MON exf_precip_max               =   1.0499733310606E-07
(PID.TID 0000.0001) %MON exf_precip_min               =   2.7265750163496E-10
(PID.TID 0000.0001) %MON exf_precip_mean              =   3.6390004634845E-08
(PID.TID 0000.0001) %MON exf_precip_sd                =   2.0581314966068E-08
(PID.TID 0000.0001) %MON exf_precip_del2              =   2.5588488380710E-09
(PID.TID 0000.0001) %MON exf_snowprecip_max           =   0.0000000000000E+00
(PID.TID 0000.0001) %MON exf_snowprecip_min           =   0.0000000000000E+00
(PID.TID 0000.0001) %MON exf_snowprecip_mean          =   0.0000000000000E+00
(PID.TID 0000.0001) %MON exf_snowprecip_sd            =   0.0000000000000E+00
(PID.TID 0000.0001) %MON exf_snowprecip_del2          =   0.0000000000000E+00
(PID.TID 0000.0001) %MON exf_swflux_max               =  -8.1207735616653E-02
(PID.TID 0000.0001) %MON exf_swflux_min               =  -6.4105206467675E+01
(PID.TID 0000.0001) %MON exf_swflux_mean              =  -2.6526948534072E+01
(PID.TID 0000.0001) %MON exf_swflux_sd                =   1.9652762825246E+01
(PID.TID 0000.0001) %MON exf_swflux_del2              =   4.7976088317456E-01
(PID.TID 0000.0001) %MON exf_evap_max                 =   4.5344313356306E-08
(PID.TID 0000.0001) %MON exf_evap_min                 =  -4.2074595995111E-09
(PID.TID 0000.0001) %MON exf_evap_mean                =   1.0446335918746E-08
(PID.TID 0000.0001) %MON exf_evap_sd                  =   1.1077267475507E-08
(PID.TID 0000.0001) %MON exf_evap_del2                =   1.3331722187990E-09
(PID.TID 0000.0001) %MON exf_swdown_max               =   7.1228007186306E+01
(PID.TID 0000.0001) %MON exf_swdown_min               =   9.0230817351836E-02
(PID.TID 0000.0001) %MON exf_swdown_mean              =   2.9474387260081E+01
(PID.TID 0000.0001) %MON exf_swdown_sd                =   2.1836403139162E+01
(PID.TID 0000.0001) %MON exf_swdown_del2              =   5.3306764797174E-01
(PID.TID 0000.0001) %MON exf_lwdown_max               =   3.0561793543081E+02
(PID.TID 0000.0001) %MON exf_lwdown_min               =   1.1589194395764E+02
(PID.TID 0000.0001) %MON exf_lwdown_mean              =   2.2583936565568E+02
(PID.TID 0000.0001) %MON exf_lwdown_sd                =   4.6305239399294E+01
(PID.TID 0000.0001) %MON exf_lwdown_del2              =   3.2439027772011E+00
(PID.TID 0000.0001) %MON exf_apressure_max            =   0.0000000000000E+00
(PID.TID 0000.0001) %MON exf_apressure_min            =   0.0000000000000E+00
(PID.TID 0000.0001) %MON exf_apressure_mean           =   0.0000000000000E+00
(PID.TID 0000.0001) %MON exf_apressure_sd             =   0.0000000000000E+00
(PID.TID 0000.0001) %MON exf_apressure_del2           =   0.0000000000000E+00
(PID.TID 0000.0001) %MON exf_runoff_max               =   0.0000000000000E+00
(PID.TID 0000.0001) %MON exf_runoff_min               =   0.0000000000000E+00
(PID.TID 0000.0001) %MON exf_runoff_mean              =   0.0000000000000E+00
(PID.TID 0000.0001) %MON exf_runoff_sd                =   0.0000000000000E+00
(PID.TID 0000.0001) %MON exf_runoff_del2              =   0.0000000000000E+00
(PID.TID 0000.0001) %MON exf_climsst_max              =   0.0000000000000E+00
(PID.TID 0000.0001) %MON exf_climsst_min              =   0.0000000000000E+00
(PID.TID 0000.0001) %MON exf_climsst_mean             =   0.0000000000000E+00
(PID.TID 0000.0001) %MON exf_climsst_sd               =   0.0000000000000E+00
(PID.TID 0000.0001) %MON exf_climsst_del2             =   0.0000000000000E+00
(PID.TID 0000.0001) %MON exf_climsss_max              =   3.5041624116116E+01
(PID.TID 0000.0001) %MON exf_climsss_min              =   3.0671628467372E+01
(PID.TID 0000.0001) %MON exf_climsss_mean             =   3.3462968935345E+01
(PID.TID 0000.0001) %MON exf_climsss_sd               =   1.0314580197633E+00
(PID.TID 0000.0001) %MON exf_climsss_del2             =   1.0007335642865E-01
(PID.TID 0000.0001) // =======================================================
(PID.TID 0000.0001) // End MONITOR EXF statistics
(PID.TID 0000.0001) // =======================================================
 ph-ice B  7  0.  0.  0.
 ph-ice C  7  4.07568592E+11
 cg2d: Sum(rhs),rhsMax =   3.08542481078367E-08  1.18167591142292E+00
(PID.TID 0000.0001) // =======================================================
(PID.TID 0000.0001) // Begin MONITOR SEAICE statistics
(PID.TID 0000.0001) // =======================================================
(PID.TID 0000.0001) %MON seaice_tsnumber              =                     8
(PID.TID 0000.0001) %MON seaice_time_sec              =   2.8800000000000E+04
(PID.TID 0000.0001) %MON seaice_uice_max              =   2.6753778198521E-01
(PID.TID 0000.0001) %MON seaice_uice_min              =  -8.8502450661625E-02
(PID.TID 0000.0001) %MON seaice_uice_mean             =   6.9615417904029E-02
(PID.TID 0000.0001) %MON seaice_uice_sd               =   8.3093307347932E-02
(PID.TID 0000.0001) %MON seaice_uice_del2             =   8.8606792930624E-03
(PID.TID 0000.0001) %MON seaice_vice_max              =   8.6568020765126E-02
(PID.TID 0000.0001) %MON seaice_vice_min              =  -2.2434575855303E-01
(PID.TID 0000.0001) %MON seaice_vice_mean             =  -6.1223612875109E-02
(PID.TID 0000.0001) %MON seaice_vice_sd               =   7.0132448630370E-02
(PID.TID 0000.0001) %MON seaice_vice_del2             =   8.0006108761676E-03
(PID.TID 0000.0001) %MON seaice_area_max              =   1.0000000000000E+00
(PID.TID 0000.0001) %MON seaice_area_min              =   0.0000000000000E+00
(PID.TID 0000.0001) %MON seaice_area_mean             =   6.2402840417940E-01
(PID.TID 0000.0001) %MON seaice_area_sd               =   4.5740421606730E-01
(PID.TID 0000.0001) %MON seaice_area_del2             =   5.3616902904014E-02
(PID.TID 0000.0001) %MON seaice_heff_max              =   5.4845941034851E-01
(PID.TID 0000.0001) %MON seaice_heff_min              =   0.0000000000000E+00
(PID.TID 0000.0001) %MON seaice_heff_mean             =   1.4210939339658E-01
(PID.TID 0000.0001) %MON seaice_heff_sd               =   1.7454216249041E-01
(PID.TID 0000.0001) %MON seaice_heff_del2             =   1.3200259413794E-02
(PID.TID 0000.0001) %MON seaice_hsnow_max             =   2.0628031960974E-01
(PID.TID 0000.0001) %MON seaice_hsnow_min             =   0.0000000000000E+00
(PID.TID 0000.0001) %MON seaice_hsnow_mean            =   1.1873224113170E-01
(PID.TID 0000.0001) %MON seaice_hsnow_sd              =   9.7409172566955E-02
(PID.TID 0000.0001) %MON seaice_hsnow_del2            =   6.5932180692429E-03
(PID.TID 0000.0001) // =======================================================
(PID.TID 0000.0001) // End MONITOR SEAICE statistics
(PID.TID 0000.0001) // =======================================================
(PID.TID 0000.0001) // =======================================================
(PID.TID 0000.0001) // Begin MONITOR EXF statistics
(PID.TID 0000.0001) // =======================================================
(PID.TID 0000.0001) %MON exf_tsnumber                 =                     8
(PID.TID 0000.0001) %MON exf_time_sec                 =   2.8800000000000E+04
(PID.TID 0000.0001) %MON exf_ustress_max              =   5.2249214879206E-02
(PID.TID 0000.0001) %MON exf_ustress_min              =  -9.3798929022902E-02
(PID.TID 0000.0001) %MON exf_ustress_mean             =   1.7966525158637E-02
(PID.TID 0000.0001) %MON exf_ustress_sd               =   2.3731955563838E-02
(PID.TID 0000.0001) %MON exf_ustress_del2             =   2.8199347567163E-03
(PID.TID 0000.0001) %MON exf_vstress_max              =   5.3835262836833E-02
(PID.TID 0000.0001) %MON exf_vstress_min              =  -5.8423863255131E-02
(PID.TID 0000.0001) %MON exf_vstress_mean             =  -5.4366062855043E-03
(PID.TID 0000.0001) %MON exf_vstress_sd               =   1.4450709230301E-02
(PID.TID 0000.0001) %MON exf_vstress_del2             =   1.6932442085237E-03
(PID.TID 0000.0001) %MON exf_hflux_max                =   6.2516667571595E+02
(PID.TID 0000.0001) %MON exf_hflux_min                =  -5.1290005249650E+01
(PID.TID 0000.0001) %MON exf_hflux_mean               =   1.4644483022401E+02
(PID.TID 0000.0001) %MON exf_hflux_sd                 =   1.8007073075358E+02
(PID.TID 0000.0001) %MON exf_hflux_del2               =   1.6310913468507E+01
(PID.TID 0000.0001) %MON exf_sflux_max                =   3.9024984842028E-08
(PID.TID 0000.0001) %MON exf_sflux_min                =  -8.8852274145250E-08
(PID.TID 0000.0001) %MON exf_sflux_mean               =  -2.5937385414366E-08
(PID.TID 0000.0001) %MON exf_sflux_sd                 =   3.0352649937635E-08
(PID.TID 0000.0001) %MON exf_sflux_del2               =   3.1646045945301E-09
(PID.TID 0000.0001) %MON exf_uwind_max                =   6.4684341618272E+00
(PID.TID 0000.0001) %MON exf_uwind_min                =  -6.8374523269674E+00
(PID.TID 0000.0001) %MON exf_uwind_mean               =   2.7706331523584E+00
(PID.TID 0000.0001) %MON exf_uwind_sd                 =   2.9922491036980E+00
(PID.TID 0000.0001) %MON exf_uwind_del2               =   3.1577589455021E-01
(PID.TID 0000.0001) %MON exf_vwind_max                =   3.9243096588739E+00
(PID.TID 0000.0001) %MON exf_vwind_min                =  -6.0124561096150E+00
(PID.TID 0000.0001) %MON exf_vwind_mean               =  -7.5595649652871E-01
(PID.TID 0000.0001) %MON exf_vwind_sd                 =   1.7302112611019E+00
(PID.TID 0000.0001) %MON exf_vwind_del2               =   1.9327792057372E-01
(PID.TID 0000.0001) %MON exf_wspeed_max               =   7.8835880550853E+00
(PID.TID 0000.0001) %MON exf_wspeed_min               =   4.5840953253040E-01
(PID.TID 0000.0001) %MON exf_wspeed_mean              =   4.1989448725728E+00
(PID.TID 0000.0001) %MON exf_wspeed_sd                =   1.6012263903992E+00
(PID.TID 0000.0001) %MON exf_wspeed_del2              =   3.7736312737620E-01
(PID.TID 0000.0001) %MON exf_atemp_max                =   2.8186911527707E+02
(PID.TID 0000.0001) %MON exf_atemp_min                =   2.3642604936277E+02
(PID.TID 0000.0001) %MON exf_atemp_mean               =   2.6390890607375E+02
(PID.TID 0000.0001) %MON exf_atemp_sd                 =   1.1995116372948E+01
(PID.TID 0000.0001) %MON exf_atemp_del2               =   6.4957774576263E-01
(PID.TID 0000.0001) %MON exf_aqh_max                  =   6.3176006167781E-03
(PID.TID 0000.0001) %MON exf_aqh_min                  =   1.6293992018683E-04
(PID.TID 0000.0001) %MON exf_aqh_mean                 =   2.4758800589519E-03
(PID.TID 0000.0001) %MON exf_aqh_sd                   =   1.4256836550895E-03
(PID.TID 0000.0001) %MON exf_aqh_del2                 =   6.8032440110466E-05
(PID.TID 0000.0001) %MON exf_lwflux_max               =   1.8160657786430E+02
(PID.TID 0000.0001) %MON exf_lwflux_min               =   2.7042773785464E+01
(PID.TID 0000.0001) %MON exf_lwflux_mean              =   7.5278568762523E+01
(PID.TID 0000.0001) %MON exf_lwflux_sd                =   4.2775427412450E+01
(PID.TID 0000.0001) %MON exf_lwflux_del2              =   3.2322490205414E+00
(PID.TID 0000.0001) %MON exf_precip_max               =   1.0499871454869E-07
(PID.TID 0000.0001) %MON exf_precip_min               =   2.7252357516229E-10
(PID.TID 0000.0001) %MON exf_precip_mean              =   3.6389993790810E-08
(PID.TID 0000.0001) %MON exf_precip_sd                =   2.0581769987393E-08
(PID.TID 0000.0001) %MON exf_precip_del2              =   2.5593765312607E-09
(PID.TID 0000.0001) %MON exf_snowprecip_max           =   0.0000000000000E+00
(PID.TID 0000.0001) %MON exf_snowprecip_min           =   0.0000000000000E+00
(PID.TID 0000.0001) %MON exf_snowprecip_mean          =   0.0000000000000E+00
(PID.TID 0000.0001) %MON exf_snowprecip_sd            =   0.0000000000000E+00
(PID.TID 0000.0001) %MON exf_snowprecip_del2          =   0.0000000000000E+00
(PID.TID 0000.0001) %MON exf_swflux_max               =  -8.1208018494434E-02
(PID.TID 0000.0001) %MON exf_swflux_min               =  -6.4124076818247E+01
(PID.TID 0000.0001) %MON exf_swflux_mean              =  -2.6537480749947E+01
(PID.TID 0000.0001) %MON exf_swflux_sd                =   1.9656602581253E+01
(PID.TID 0000.0001) %MON exf_swflux_del2              =   4.7986775712052E-01
(PID.TID 0000.0001) %MON exf_evap_max                 =   4.5343890978677E-08
(PID.TID 0000.0001) %MON exf_evap_min                 =  -4.2045649071356E-09
(PID.TID 0000.0001) %MON exf_evap_mean                =   1.0452608376444E-08
(PID.TID 0000.0001) %MON exf_evap_sd                  =   1.1076426964425E-08
(PID.TID 0000.0001) %MON exf_evap_del2                =   1.3335972044514E-09
(PID.TID 0000.0001) %MON exf_swdown_max               =   7.1248974242497E+01
(PID.TID 0000.0001) %MON exf_swdown_min               =   9.0231131660482E-02
(PID.TID 0000.0001) %MON exf_swdown_mean              =   2.9486089722164E+01
(PID.TID 0000.0001) %MON exf_swdown_sd                =   2.1840669534725E+01
(PID.TID 0000.0001) %MON exf_swdown_del2              =   5.3318639680058E-01
(PID.TID 0000.0001) %MON exf_lwdown_max               =   3.0560910934698E+02
(PID.TID 0000.0001) %MON exf_lwdown_min               =   1.1587683707899E+02
(PID.TID 0000.0001) %MON exf_lwdown_mean              =   2.2582365832661E+02
(PID.TID 0000.0001) %MON exf_lwdown_sd                =   4.6309216947189E+01
(PID.TID 0000.0001) %MON exf_lwdown_del2              =   3.2439144172738E+00
(PID.TID 0000.0001) %MON exf_apressure_max            =   0.0000000000000E+00
(PID.TID 0000.0001) %MON exf_apressure_min            =   0.0000000000000E+00
(PID.TID 0000.0001) %MON exf_apressure_mean           =   0.0000000000000E+00
(PID.TID 0000.0001) %MON exf_apressure_sd             =   0.0000000000000E+00
(PID.TID 0000.0001) %MON exf_apressure_del2           =   0.0000000000000E+00
(PID.TID 0000.0001) %MON exf_runoff_max               =   0.0000000000000E+00
(PID.TID 0000.0001) %MON exf_runoff_min               =   0.0000000000000E+00
(PID.TID 0000.0001) %MON exf_runoff_mean              =   0.0000000000000E+00
(PID.TID 0000.0001) %MON exf_runoff_sd                =   0.0000000000000E+00
(PID.TID 0000.0001) %MON exf_runoff_del2              =   0.0000000000000E+00
(PID.TID 0000.0001) %MON exf_climsst_max              =   0.0000000000000E+00
(PID.TID 0000.0001) %MON exf_climsst_min              =   0.0000000000000E+00
(PID.TID 0000.0001) %MON exf_climsst_mean             =   0.0000000000000E+00
(PID.TID 0000.0001) %MON exf_climsst_sd               =   0.0000000000000E+00
(PID.TID 0000.0001) %MON exf_climsst_del2             =   0.0000000000000E+00
(PID.TID 0000.0001) %MON exf_climsss_max              =   3.5041808863155E+01
(PID.TID 0000.0001) %MON exf_climsss_min              =   3.0672387795370E+01
(PID.TID 0000.0001) %MON exf_climsss_mean             =   3.3463490268825E+01
(PID.TID 0000.0001) %MON exf_climsss_sd               =   1.0313879583737E+00
(PID.TID 0000.0001) %MON exf_climsss_del2             =   1.0005612713826E-01
(PID.TID 0000.0001) // =======================================================
(PID.TID 0000.0001) // End MONITOR EXF statistics
(PID.TID 0000.0001) // =======================================================
 ph-ice B  8  0.  0.  0.
 ph-ice C  8  4.5814524E+11
 cg2d: Sum(rhs),rhsMax =   2.95454772210324E-08  1.16732732296945E+00
(PID.TID 0000.0001) // =======================================================
(PID.TID 0000.0001) // Begin MONITOR SEAICE statistics
(PID.TID 0000.0001) // =======================================================
(PID.TID 0000.0001) %MON seaice_tsnumber              =                     9
(PID.TID 0000.0001) %MON seaice_time_sec              =   3.2400000000000E+04
(PID.TID 0000.0001) %MON seaice_uice_max              =   2.6897528900817E-01
(PID.TID 0000.0001) %MON seaice_uice_min              =  -8.0042763879586E-02
(PID.TID 0000.0001) %MON seaice_uice_mean             =   6.2855106515763E-02
(PID.TID 0000.0001) %MON seaice_uice_sd               =   7.9025079039205E-02
(PID.TID 0000.0001) %MON seaice_uice_del2             =   7.8428398765077E-03
(PID.TID 0000.0001) %MON seaice_vice_max              =   7.8808436809132E-02
(PID.TID 0000.0001) %MON seaice_vice_min              =  -2.0876036220504E-01
(PID.TID 0000.0001) %MON seaice_vice_mean             =  -5.8595787099323E-02
(PID.TID 0000.0001) %MON seaice_vice_sd               =   6.4348968070285E-02
(PID.TID 0000.0001) %MON seaice_vice_del2             =   7.5772026382948E-03
(PID.TID 0000.0001) %MON seaice_area_max              =   1.0000000000000E+00
(PID.TID 0000.0001) %MON seaice_area_min              =   0.0000000000000E+00
(PID.TID 0000.0001) %MON seaice_area_mean             =   6.2385269457660E-01
(PID.TID 0000.0001) %MON seaice_area_sd               =   4.5701602443867E-01
(PID.TID 0000.0001) %MON seaice_area_del2             =   5.3473206872977E-02
(PID.TID 0000.0001) %MON seaice_heff_max              =   5.4880172478809E-01
(PID.TID 0000.0001) %MON seaice_heff_min              =   0.0000000000000E+00
(PID.TID 0000.0001) %MON seaice_heff_mean             =   1.4197236062276E-01
(PID.TID 0000.0001) %MON seaice_heff_sd               =   1.7470055975556E-01
(PID.TID 0000.0001) %MON seaice_heff_del2             =   1.3179500049089E-02
(PID.TID 0000.0001) %MON seaice_hsnow_max             =   2.0706544703537E-01
(PID.TID 0000.0001) %MON seaice_hsnow_min             =   0.0000000000000E+00
(PID.TID 0000.0001) %MON seaice_hsnow_mean            =   1.1888097081154E-01
(PID.TID 0000.0001) %MON seaice_hsnow_sd              =   9.7521343287441E-02
(PID.TID 0000.0001) %MON seaice_hsnow_del2            =   6.6252286464513E-03
(PID.TID 0000.0001) // =======================================================
(PID.TID 0000.0001) // End MONITOR SEAICE statistics
(PID.TID 0000.0001) // =======================================================
(PID.TID 0000.0001) // =======================================================
(PID.TID 0000.0001) // Begin MONITOR EXF statistics
(PID.TID 0000.0001) // =======================================================
(PID.TID 0000.0001) %MON exf_tsnumber                 =                     9
(PID.TID 0000.0001) %MON exf_time_sec                 =   3.2400000000000E+04
(PID.TID 0000.0001) %MON exf_ustress_max              =   5.2253931426529E-02
(PID.TID 0000.0001) %MON exf_ustress_min              =  -9.3801402378650E-02
(PID.TID 0000.0001) %MON exf_ustress_mean             =   1.7972505498240E-02
(PID.TID 0000.0001) %MON exf_ustress_sd               =   2.3737459004114E-02
(PID.TID 0000.0001) %MON exf_ustress_del2             =   2.8207107414302E-03
(PID.TID 0000.0001) %MON exf_vstress_max              =   5.3836885571564E-02
(PID.TID 0000.0001) %MON exf_vstress_min              =  -5.8402245566884E-02
(PID.TID 0000.0001) %MON exf_vstress_mean             =  -5.4330602336809E-03
(PID.TID 0000.0001) %MON exf_vstress_sd               =   1.4451995183139E-02
(PID.TID 0000.0001) %MON exf_vstress_del2             =   1.6932500844336E-03
(PID.TID 0000.0001) %MON exf_hflux_max                =   6.2523607820797E+02
(PID.TID 0000.0001) %MON exf_hflux_min                =  -5.1341825205829E+01
(PID.TID 0000.0001) %MON exf_hflux_mean               =   1.4650256564486E+02
(PID.TID 0000.0001) %MON exf_hflux_sd                 =   1.8009646722259E+02
(PID.TID 0000.0001) %MON exf_hflux_del2               =   1.6313471443893E+01
(PID.TID 0000.0001) %MON exf_sflux_max                =   3.9027165063394E-08
(PID.TID 0000.0001) %MON exf_sflux_min                =  -8.8881916014422E-08
(PID.TID 0000.0001) %MON exf_sflux_mean               =  -2.5931981413998E-08
(PID.TID 0000.0001) %MON exf_sflux_sd                 =   3.0353385774833E-08
(PID.TID 0000.0001) %MON exf_sflux_del2               =   3.1652713816071E-09
(PID.TID 0000.0001) %MON exf_uwind_max                =   6.4689416142761E+00
(PID.TID 0000.0001) %MON exf_uwind_min                =  -6.8374791086697E+00
(PID.TID 0000.0001) %MON exf_uwind_mean               =   2.7707407047028E+00
(PID.TID 0000.0001) %MON exf_uwind_sd                 =   2.9925253914175E+00
(PID.TID 0000.0001) %MON exf_uwind_del2               =   3.1578823099586E-01
(PID.TID 0000.0001) %MON exf_vwind_max                =   3.9243398396695E+00
(PID.TID 0000.0001) %MON exf_vwind_min                =  -6.0115501997901E+00
(PID.TID 0000.0001) %MON exf_vwind_mean               =  -7.5533872343860E-01
(PID.TID 0000.0001) %MON exf_vwind_sd                 =   1.7303202080462E+00
(PID.TID 0000.0001) %MON exf_vwind_del2               =   1.9327127420947E-01
(PID.TID 0000.0001) %MON exf_wspeed_max               =   7.8836263063842E+00
(PID.TID 0000.0001) %MON exf_wspeed_min               =   4.5816671047235E-01
(PID.TID 0000.0001) %MON exf_wspeed_mean              =   4.1990483480424E+00
(PID.TID 0000.0001) %MON exf_wspeed_sd                =   1.6014836406520E+00
(PID.TID 0000.0001) %MON exf_wspeed_del2              =   3.7741640417905E-01
(PID.TID 0000.0001) %MON exf_atemp_max                =   2.8186740312420E+02
(PID.TID 0000.0001) %MON exf_atemp_min                =   2.3642158439511E+02
(PID.TID 0000.0001) %MON exf_atemp_mean               =   2.6390426198445E+02
(PID.TID 0000.0001) %MON exf_atemp_sd                 =   1.1996580799184E+01
(PID.TID 0000.0001) %MON exf_atemp_del2               =   6.4959707731507E-01
(PID.TID 0000.0001) %MON exf_aqh_max                  =   6.3169040759170E-03
(PID.TID 0000.0001) %MON exf_aqh_min                  =   1.6284581668843E-04
(PID.TID 0000.0001) %MON exf_aqh_mean                 =   2.4753197025473E-03
(PID.TID 0000.0001) %MON exf_aqh_sd                   =   1.4255808388841E-03
(PID.TID 0000.0001) %MON exf_aqh_del2                 =   6.8018772549319E-05
(PID.TID 0000.0001) %MON exf_lwflux_max               =   1.8162256096872E+02
(PID.TID 0000.0001) %MON exf_lwflux_min               =   2.7024547900767E+01
(PID.TID 0000.0001) %MON exf_lwflux_mean              =   7.5295900937942E+01
(PID.TID 0000.0001) %MON exf_lwflux_sd                =   4.2777933843968E+01
(PID.TID 0000.0001) %MON exf_lwflux_del2              =   3.2320783095555E+00
(PID.TID 0000.0001) %MON exf_precip_max               =   1.0500009599131E-07
(PID.TID 0000.0001) %MON exf_precip_min               =   2.7238964868961E-10
(PID.TID 0000.0001) %MON exf_precip_mean              =   3.6389982946776E-08
(PID.TID 0000.0001) %MON exf_precip_sd                =   2.0582225664103E-08
(PID.TID 0000.0001) %MON exf_precip_del2              =   2.5599042244504E-09
(PID.TID 0000.0001) %MON exf_snowprecip_max           =   0.0000000000000E+00
(PID.TID 0000.0001) %MON exf_snowprecip_min           =   0.0000000000000E+00
(PID.TID 0000.0001) %MON exf_snowprecip_mean          =   0.0000000000000E+00
(PID.TID 0000.0001) %MON exf_snowprecip_sd            =   0.0000000000000E+00
(PID.TID 0000.0001) %MON exf_snowprecip_del2          =   0.0000000000000E+00
(PID.TID 0000.0001) %MON exf_swflux_max               =  -8.1208301372215E-02
(PID.TID 0000.0001) %MON exf_swflux_min               =  -6.4142947168819E+01
(PID.TID 0000.0001) %MON exf_swflux_mean              =  -2.6548012965822E+01
(PID.TID 0000.0001) %MON exf_swflux_sd                =   1.9660442927159E+01
(PID.TID 0000.0001) %MON exf_swflux_del2              =   4.7997463106648E-01
(PID.TID 0000.0001) %MON exf_evap_max                 =   4.5345408489113E-08
(PID.TID 0000.0001) %MON exf_evap_min                 =  -4.2118523676943E-09
(PID.TID 0000.0001) %MON exf_evap_mean                =   1.0458001532778E-08
(PID.TID 0000.0001) %MON exf_evap_sd                  =   1.1076060086079E-08
(PID.TID 0000.0001) %MON exf_evap_del2                =   1.3338816809131E-09
(PID.TID 0000.0001) %MON exf_swdown_max               =   7.1269941298688E+01
(PID.TID 0000.0001) %MON exf_swdown_min               =   9.0231445969128E-02
(PID.TID 0000.0001) %MON exf_swdown_mean              =   2.9497792184247E+01
(PID.TID 0000.0001) %MON exf_swdown_sd                =   2.1844936585733E+01
(PID.TID 0000.0001) %MON exf_swdown_del2              =   5.3330514562942E-01
(PID.TID 0000.0001) %MON exf_lwdown_max               =   3.0560028326316E+02
(PID.TID 0000.0001) %MON exf_lwdown_min               =   1.1586173020035E+02
(PID.TID 0000.0001) %MON exf_lwdown_mean              =   2.2580795099755E+02
(PID.TID 0000.0001) %MON exf_lwdown_sd                =   4.6313195660870E+01
(PID.TID 0000.0001) %MON exf_lwdown_del2              =   3.2439260573465E+00
(PID.TID 0000.0001) %MON exf_apressure_max            =   0.0000000000000E+00
(PID.TID 0000.0001) %MON exf_apressure_min            =   0.0000000000000E+00
(PID.TID 0000.0001) %MON exf_apressure_mean           =   0.0000000000000E+00
(PID.TID 0000.0001) %MON exf_apressure_sd             =   0.0000000000000E+00
(PID.TID 0000.0001) %MON exf_apressure_del2           =   0.0000000000000E+00
(PID.TID 0000.0001) %MON exf_runoff_max               =   0.0000000000000E+00
(PID.TID 0000.0001) %MON exf_runoff_min               =   0.0000000000000E+00
(PID.TID 0000.0001) %MON exf_runoff_mean              =   0.0000000000000E+00
(PID.TID 0000.0001) %MON exf_runoff_sd                =   0.0000000000000E+00
(PID.TID 0000.0001) %MON exf_runoff_del2              =   0.0000000000000E+00
(PID.TID 0000.0001) %MON exf_climsst_max              =   0.0000000000000E+00
(PID.TID 0000.0001) %MON exf_climsst_min              =   0.0000000000000E+00
(PID.TID 0000.0001) %MON exf_climsst_mean             =   0.0000000000000E+00
(PID.TID 0000.0001) %MON exf_climsst_sd               =   0.0000000000000E+00
(PID.TID 0000.0001) %MON exf_climsst_del2             =   0.0000000000000E+00
(PID.TID 0000.0001) %MON exf_climsss_max              =   3.5041993610194E+01
(PID.TID 0000.0001) %MON exf_climsss_min              =   3.0673147123368E+01
(PID.TID 0000.0001) %MON exf_climsss_mean             =   3.3464011602304E+01
(PID.TID 0000.0001) %MON exf_climsss_sd               =   1.0313181272348E+00
(PID.TID 0000.0001) %MON exf_climsss_del2             =   1.0003889784787E-01
(PID.TID 0000.0001) // =======================================================
(PID.TID 0000.0001) // End MONITOR EXF statistics
(PID.TID 0000.0001) // =======================================================
 ph-ice B  9  0.  0.  0.
 ph-ice C  9  5.08667856E+11
 cg2d: Sum(rhs),rhsMax =   2.90785175174890E-08  1.15038865737041E+00
(PID.TID 0000.0001) // =======================================================
(PID.TID 0000.0001) // Begin MONITOR SEAICE statistics
(PID.TID 0000.0001) // =======================================================
(PID.TID 0000.0001) %MON seaice_tsnumber              =                    10
(PID.TID 0000.0001) %MON seaice_time_sec              =   3.6000000000000E+04
(PID.TID 0000.0001) %MON seaice_uice_max              =   2.6071382832468E-01
(PID.TID 0000.0001) %MON seaice_uice_min              =  -7.4569485539139E-02
(PID.TID 0000.0001) %MON seaice_uice_mean             =   5.6948623225746E-02
(PID.TID 0000.0001) %MON seaice_uice_sd               =   7.3695502135582E-02
(PID.TID 0000.0001) %MON seaice_uice_del2             =   6.9822420915707E-03
(PID.TID 0000.0001) %MON seaice_vice_max              =   7.2855153886457E-02
(PID.TID 0000.0001) %MON seaice_vice_min              =  -1.8167527162564E-01
(PID.TID 0000.0001) %MON seaice_vice_mean             =  -5.2953237177691E-02
(PID.TID 0000.0001) %MON seaice_vice_sd               =   5.6405785968678E-02
(PID.TID 0000.0001) %MON seaice_vice_del2             =   6.8591615568657E-03
(PID.TID 0000.0001) %MON seaice_area_max              =   1.0000000000000E+00
(PID.TID 0000.0001) %MON seaice_area_min              =   0.0000000000000E+00
(PID.TID 0000.0001) %MON seaice_area_mean             =   6.2310743316777E-01
(PID.TID 0000.0001) %MON seaice_area_sd               =   4.5675715169084E-01
(PID.TID 0000.0001) %MON seaice_area_del2             =   5.3102396748641E-02
(PID.TID 0000.0001) %MON seaice_heff_max              =   5.4914440244207E-01
(PID.TID 0000.0001) %MON seaice_heff_min              =   0.0000000000000E+00
(PID.TID 0000.0001) %MON seaice_heff_mean             =   1.4182069027924E-01
(PID.TID 0000.0001) %MON seaice_heff_sd               =   1.7482806875458E-01
(PID.TID 0000.0001) %MON seaice_heff_del2             =   1.3169991993436E-02
(PID.TID 0000.0001) %MON seaice_hsnow_max             =   2.0785054838239E-01
(PID.TID 0000.0001) %MON seaice_hsnow_min             =   0.0000000000000E+00
(PID.TID 0000.0001) %MON seaice_hsnow_mean            =   1.1901259287058E-01
(PID.TID 0000.0001) %MON seaice_hsnow_sd              =   9.7627028704260E-02
(PID.TID 0000.0001) %MON seaice_hsnow_del2            =   6.6467676998333E-03
(PID.TID 0000.0001) // =======================================================
(PID.TID 0000.0001) // End MONITOR SEAICE statistics
(PID.TID 0000.0001) // =======================================================
(PID.TID 0000.0001)  MDS_READ_FIELD: opening file: xx_atemp.0000000000.001.001.data
(PID.TID 0000.0001)  MDS_READ_FIELD: opening file: xx_atemp.0000000000.001.001.data
(PID.TID 0000.0001)  MDS_READ_FIELD: opening file: xx_atemp.0000000000.001.001.data
(PID.TID 0000.0001)  MDS_READ_FIELD: opening file: xx_atemp.0000000000.001.001.data
(PID.TID 0000.0001)  MDS_READ_FIELD: opening file: xx_aqh.0000000000.001.001.data
(PID.TID 0000.0001)  MDS_READ_FIELD: opening file: xx_aqh.0000000000.001.001.data
(PID.TID 0000.0001)  MDS_READ_FIELD: opening file: xx_aqh.0000000000.001.001.data
(PID.TID 0000.0001)  MDS_READ_FIELD: opening file: xx_aqh.0000000000.001.001.data
(PID.TID 0000.0001)  MDS_READ_FIELD: opening file: xx_uwind.0000000000.001.001.data
(PID.TID 0000.0001)  MDS_READ_FIELD: opening file: xx_uwind.0000000000.001.001.data
(PID.TID 0000.0001)  MDS_READ_FIELD: opening file: xx_uwind.0000000000.001.001.data
(PID.TID 0000.0001)  MDS_READ_FIELD: opening file: xx_uwind.0000000000.001.001.data
(PID.TID 0000.0001)  MDS_READ_FIELD: opening file: xx_vwind.0000000000.001.001.data
(PID.TID 0000.0001)  MDS_READ_FIELD: opening file: xx_vwind.0000000000.001.001.data
(PID.TID 0000.0001)  MDS_READ_FIELD: opening file: xx_vwind.0000000000.001.001.data
(PID.TID 0000.0001)  MDS_READ_FIELD: opening file: xx_vwind.0000000000.001.001.data
(PID.TID 0000.0001)  MDS_READ_FIELD: opening file: xx_precip.0000000000.001.001.data
(PID.TID 0000.0001)  MDS_READ_FIELD: opening file: xx_precip.0000000000.001.001.data
(PID.TID 0000.0001)  MDS_READ_FIELD: opening file: xx_precip.0000000000.001.001.data
(PID.TID 0000.0001)  MDS_READ_FIELD: opening file: xx_precip.0000000000.001.001.data
(PID.TID 0000.0001)  MDS_READ_FIELD: opening file: xx_swdown.0000000000.001.001.data
(PID.TID 0000.0001)  MDS_READ_FIELD: opening file: xx_swdown.0000000000.001.001.data
(PID.TID 0000.0001)  MDS_READ_FIELD: opening file: xx_swdown.0000000000.001.001.data
(PID.TID 0000.0001)  MDS_READ_FIELD: opening file: xx_swdown.0000000000.001.001.data
(PID.TID 0000.0001)  MDS_READ_FIELD: opening file: xx_lwdown.0000000000.001.001.data
(PID.TID 0000.0001)  MDS_READ_FIELD: opening file: xx_lwdown.0000000000.001.001.data
(PID.TID 0000.0001)  MDS_READ_FIELD: opening file: xx_lwdown.0000000000.001.001.data
(PID.TID 0000.0001)  MDS_READ_FIELD: opening file: xx_lwdown.0000000000.001.001.data
(PID.TID 0000.0001)  MDS_READ_FIELD: opening file: xx_snowprecip.0000000000.001.001.data
(PID.TID 0000.0001)  MDS_READ_FIELD: opening file: xx_snowprecip.0000000000.001.001.data
(PID.TID 0000.0001)  MDS_READ_FIELD: opening file: xx_snowprecip.0000000000.001.001.data
(PID.TID 0000.0001)  MDS_READ_FIELD: opening file: xx_snowprecip.0000000000.001.001.data
(PID.TID 0000.0001)  MDS_READ_FIELD: opening file: xx_apressure.0000000000.001.001.data
(PID.TID 0000.0001)  MDS_READ_FIELD: opening file: xx_apressure.0000000000.001.001.data
(PID.TID 0000.0001)  MDS_READ_FIELD: opening file: xx_apressure.0000000000.001.001.data
(PID.TID 0000.0001)  MDS_READ_FIELD: opening file: xx_apressure.0000000000.001.001.data
(PID.TID 0000.0001)  MDS_READ_FIELD: opening file: psbar.0000000000.001.001.data
(PID.TID 0000.0001)  cost_ssh: offset_sum =  0.710000000000000E+02
(PID.TID 0000.0001)  MDS_READ_FIELD: opening file: psbar.0000000000.001.001.data
(PID.TID 0000.0001) ph-cost call cost_sst
(PID.TID 0000.0001)  MDS_READ_FIELD: opening file: tbar.0000000000.001.001.data
(PID.TID 0000.0001) ph-cost call cost_theta
(PID.TID 0000.0001)  MDS_READ_FIELD: opening file: tbar.0000000000.001.001.data
(PID.TID 0000.0001) ph-cost call cost_salt
(PID.TID 0000.0001)  MDS_READ_FIELD: opening file: sbar.0000000000.001.001.data
(PID.TID 0000.0001) ph-cost call cost_smrarea
(PID.TID 0000.0001) ph-cost smrarea   0.0000000000E+00  0.0000000000E+00
 --> f_ice     = 0.508667855730364E+12
 --> f_smrarea = 0.000000000000000E+00
 --> f_temp    = 0.000000000000000E+00
 --> f_salt    = 0.000000000000000E+00
 --> f_temp0   = 0.000000000000000E+00
 --> f_salt0   = 0.000000000000000E+00
 --> f_temp0smoo = 0.000000000000000E+00
 --> f_salt0smoo = 0.000000000000000E+00
 --> f_sst     = 0.423905509020107E+04
 --> f_tmi     = 0.000000000000000E+00
 --> f_sss     = 0.000000000000000E+00
 --> f_ssh       = 0.000000000000000E+00
 --> f_tp        = 0.000000000000000E+00
 --> f_ers       = 0.000000000000000E+00
 --> f_gfo       = 0.000000000000000E+00
 --> f_tauu    = 0.000000000000000E+00
 --> f_tauum   = 0.000000000000000E+00
 --> f_tauusmoo = 0.000000000000000E+00
 --> f_tauv    = 0.000000000000000E+00
 --> f_tauvm   = 0.000000000000000E+00
 --> f_tauvsmoo = 0.000000000000000E+00
 --> f_hflux   = 0.000000000000000E+00
 --> f_hfluxm  = 0.000000000000000E+00
 --> f_hfluxmm = 0.000000000000000E+00
 --> f_hfluxsmoo = 0.000000000000000E+00
 --> f_sflux   = 0.000000000000000E+00
 --> f_sfluxm  = 0.000000000000000E+00
 --> f_sfluxmm = 0.000000000000000E+00
 --> f_sfluxsmoo = 0.000000000000000E+00
 --> f_uwind     = 0.000000000000000E+00
 --> f_vwind     = 0.000000000000000E+00
 --> f_atemp     = 0.200000000000000E-07
 --> f_aqh     = 0.000000000000000E+00
 --> f_precip  = 0.000000000000000E+00
 --> f_swflux  = 0.000000000000000E+00
 --> f_swdown  = 0.000000000000000E+00
 --> f_uwindm     = 0.000000000000000E+00
 --> f_vwindm     = 0.000000000000000E+00
 --> f_atempm     = 0.250000000000000E-08
 --> f_aqhm     = 0.000000000000000E+00
 --> f_precipm  = 0.000000000000000E+00
 --> f_swfluxm  = 0.000000000000000E+00
 --> f_swdownm  = 0.000000000000000E+00
 --> f_uwindsmoo     = 0.000000000000000E+00
 --> f_vwindsmoo     = 0.000000000000000E+00
 --> f_atempsmoo     = 0.000000000000000E+00
 --> f_aqhsmoo     = 0.000000000000000E+00
 --> f_precipsmoo  = 0.000000000000000E+00
 --> f_swfluxsmoo  = 0.000000000000000E+00
 --> f_swdownsmoo  = 0.000000000000000E+00
 --> f_atl     = 0.000000000000000E+00
 --> f_ctdt    = 0.000000000000000E+00
 --> f_ctds    = 0.000000000000000E+00
 --> f_ctdtclim= 0.000000000000000E+00
 --> f_ctdsclim= 0.000000000000000E+00
 --> f_xbt     = 0.000000000000000E+00
 --> f_argot   = 0.000000000000000E+00
 --> f_argos   = 0.000000000000000E+00
 --> f_drifter   = 0.000000000000000E+00
 --> f_tdrift  = 0.000000000000000E+00
 --> f_sdrift  = 0.000000000000000E+00
 --> f_wdrift  = 0.000000000000000E+00
 --> f_scatx   = 0.000000000000000E+00
 --> f_scaty   = 0.000000000000000E+00
 --> f_scatxm  = 0.000000000000000E+00
 --> f_scatym  = 0.000000000000000E+00
 --> f_obcsn   = 0.000000000000000E+00
 --> f_obcss   = 0.000000000000000E+00
 --> f_obcsw   = 0.000000000000000E+00
 --> f_obcse   = 0.000000000000000E+00
 --> f_ageos   = 0.000000000000000E+00
 --> f_curmtr  = 0.000000000000000E+00
 --> f_kapgm   = 0.000000000000000E+00
 --> f_diffkr  = 0.000000000000000E+00
 --> f_eddytau = 0.000000000000000E+00
 --> f_hfluxmm2           = 0.000000000000000E+00
 --> f_sfluxmm2           = 0.000000000000000E+00
 --> objf_hmean           = 0.920256477066811E-02
 --> fc               = 0.508667859969419E+12
 ph-check fcpertplus =   5.0866786E+11
(PID.TID 0000.0001)  MDS_READ_FIELD: opening file: xx_atemp.0000000000.001.001.data
 ph-check fcpertminus =   5.08667309E+11
(PID.TID 0000.0001)  MDS_READ_FIELD: opening file: xx_atemp.0000000000.001.001.data
(PID.TID 0000.0001) 
(PID.TID 0000.0001)  cal_TimeStamp: iter =          0 time =  0.00000000E+00
(PID.TID 0000.0001)                 date =   19790101           0
(PID.TID 0000.0001) 
(PID.TID 0000.0001) // =======================================================
(PID.TID 0000.0001) // Field Model R_low (ini_masks_etc) at iteration          1
(PID.TID 0000.0001) // CMIN =         -4.200000000000000E+03
(PID.TID 0000.0001) // CMAX =         -5.500000000000000E+01
(PID.TID 0000.0001) // CINT =          1.535185185185185E+02
(PID.TID 0000.0001) // SYMBOLS (CMIN->CMAX): -abcdefghijklmnopqrstuvwxyz+
(PID.TID 0000.0001) //                  0.0: .
(PID.TID 0000.0001) // RANGE I (Lo:Hi:Step):(  -2:  23:   1)
(PID.TID 0000.0001) // RANGE J (Lo:Hi:Step):(  19:  -2:  -1)
(PID.TID 0000.0001) // RANGE K (Lo:Hi:Step):(   1:   1:   1)
(PID.TID 0000.0001) // =======================================================
(PID.TID 0000.0001) K =   1
(PID.TID 0000.0001) //                I=7       I=17
(PID.TID 0000.0001) // |--J--|210123456|890123456|890123
(PID.TID 0000.0001) //     19 cc-..........+.zzxmgcc-...
(PID.TID 0000.0001) //     18 jc-.......+zzz..zzsmjc-...
(PID.TID 0000.0001) //     17 wc-........++z+++z+wwc-...
(PID.TID 0000.0001) //     16 ....zyyz................zy
(PID.TID 0000.0001) //     15 ...yxwwuspxyxz.........yxw
(PID.TID 0000.0001) //     14 ....+wwspppsxzz.........+w
(PID.TID 0000.0001) //     13 .......zwsppsyz...........
(PID.TID 0000.0001) //     12 .........+ypswzz+.........
(PID.TID 0000.0001) //     11 ...........+wwy+..........
(PID.TID 0000.0001) //     10 ..........zzzywy+.........
(PID.TID 0000.0001) //      9 ..z.......+zxsmmm+....z...
(PID.TID 0000.0001) //      8 ..s.....zzzxumjjjjuz..s...
(PID.TID 0000.0001) //      7 pmj......z.+zmjggggjpmj...
(PID.TID 0000.0001) //      6 ggg.........zxmjggggggg...
(PID.TID 0000.0001) //      5 ggg..........zzsjgggggg...
(PID.TID 0000.0001) //      4 ccg............zzmgcccg...
(PID.TID 0000.0001) //      3 cc-..........+.zzxmgcc-...
(PID.TID 0000.0001) //      2 jc-.......+zzz..zzsmjc-...
(PID.TID 0000.0001) //      1 wc-........++z+++z+wwc-...
(PID.TID 0000.0001) //      0 ....zyyz................zy
(PID.TID 0000.0001) //     -1 ...yxwwuspxyxz.........yxw
(PID.TID 0000.0001) //     -2 ....+wwspppsxzz.........+w
(PID.TID 0000.0001) // =======================================================
(PID.TID 0000.0001) // END OF FIELD                                          =
(PID.TID 0000.0001) // =======================================================
(PID.TID 0000.0001) 
(PID.TID 0000.0001) // =======================================================
(PID.TID 0000.0001) // Field Model Ro_surf (ini_masks_etc) at iteration          1
(PID.TID 0000.0001) // CMIN =          1.000000000000000E+32
(PID.TID 0000.0001) // CMAX =         -1.000000000000000E+32
(PID.TID 0000.0001) // CINT =          0.000000000000000E+00
(PID.TID 0000.0001) // SYMBOLS (CMIN->CMAX): -abcdefghijklmnopqrstuvwxyz+
(PID.TID 0000.0001) //                  0.0: .
(PID.TID 0000.0001) // RANGE I (Lo:Hi:Step):(  -2:  23:   1)
(PID.TID 0000.0001) // RANGE J (Lo:Hi:Step):(  19:  -2:  -1)
(PID.TID 0000.0001) // RANGE K (Lo:Hi:Step):(   1:   1:   1)
(PID.TID 0000.0001) // =======================================================
(PID.TID 0000.0001) // =======================================================
(PID.TID 0000.0001) // END OF FIELD                                          =
(PID.TID 0000.0001) // =======================================================
(PID.TID 0000.0001) 
(PID.TID 0000.0001) // =======================================================
(PID.TID 0000.0001) // Field hFacC at iteration          1
(PID.TID 0000.0001) // CMIN =          1.000000000000000E+00
(PID.TID 0000.0001) // CMAX =          1.000000000000000E+00
(PID.TID 0000.0001) // CINT =          0.000000000000000E+00
(PID.TID 0000.0001) // SYMBOLS (CMIN->CMAX): -abcdefghijklmnopqrstuvwxyz+
(PID.TID 0000.0001) //                  0.0: .
(PID.TID 0000.0001) // RANGE I (Lo:Hi:Step):(  -2:  23:   1)
(PID.TID 0000.0001) // RANGE J (Lo:Hi:Step):(  19:  -2:  -1)
(PID.TID 0000.0001) // RANGE K (Lo:Hi:Step):(   1:   1:   1)
(PID.TID 0000.0001) // =======================================================
(PID.TID 0000.0001) // =======================================================
(PID.TID 0000.0001) // END OF FIELD                                          =
(PID.TID 0000.0001) // =======================================================
(PID.TID 0000.0001) 
(PID.TID 0000.0001) // =======================================================
(PID.TID 0000.0001) // Field hFacW at iteration          1
(PID.TID 0000.0001) // CMIN =          1.000000000000000E+00
(PID.TID 0000.0001) // CMAX =          1.000000000000000E+00
(PID.TID 0000.0001) // CINT =          0.000000000000000E+00
(PID.TID 0000.0001) // SYMBOLS (CMIN->CMAX): -abcdefghijklmnopqrstuvwxyz+
(PID.TID 0000.0001) //                  0.0: .
(PID.TID 0000.0001) // RANGE I (Lo:Hi:Step):(  -2:  23:   1)
(PID.TID 0000.0001) // RANGE J (Lo:Hi:Step):(  19:  -2:  -1)
(PID.TID 0000.0001) // RANGE K (Lo:Hi:Step):(   1:   1:   1)
(PID.TID 0000.0001) // =======================================================
(PID.TID 0000.0001) // =======================================================
(PID.TID 0000.0001) // END OF FIELD                                          =
(PID.TID 0000.0001) // =======================================================
(PID.TID 0000.0001) 
(PID.TID 0000.0001) // =======================================================
(PID.TID 0000.0001) // Field hFacS at iteration          1
(PID.TID 0000.0001) // CMIN =          1.000000000000000E+00
(PID.TID 0000.0001) // CMAX =          1.000000000000000E+00
(PID.TID 0000.0001) // CINT =          0.000000000000000E+00
(PID.TID 0000.0001) // SYMBOLS (CMIN->CMAX): -abcdefghijklmnopqrstuvwxyz+
(PID.TID 0000.0001) //                  0.0: .
(PID.TID 0000.0001) // RANGE I (Lo:Hi:Step):(  -2:  23:   1)
(PID.TID 0000.0001) // RANGE J (Lo:Hi:Step):(  19:  -2:  -1)
(PID.TID 0000.0001) // RANGE K (Lo:Hi:Step):(   1:   1:   1)
(PID.TID 0000.0001) // =======================================================
(PID.TID 0000.0001) // =======================================================
(PID.TID 0000.0001) // END OF FIELD                                          =
(PID.TID 0000.0001) // =======================================================
(PID.TID 0000.0001) 
(PID.TID 0000.0001) %MON seaicefCori_max              =   1.4210453727344E-04
(PID.TID 0000.0001) %MON seaicefCori_min              =   1.0666243053630E-04
(PID.TID 0000.0001) %MON seaicefCori_mean             =   1.2711058365303E-04
(PID.TID 0000.0001) %MON seaicefCori_sd               =   1.1031533875266E-05
(PID.TID 0000.0001) %MON seaicefCoriG_max             =   1.4151032568025E-04
(PID.TID 0000.0001) %MON seaicefCoriG_min             =   1.0491029349513E-04
(PID.TID 0000.0001) %MON seaicefCoriG_mean            =   1.2591168756569E-04
(PID.TID 0000.0001) %MON seaicefCoriG_sd              =   1.1383815633153E-05
(PID.TID 0000.0001) %MON seaicefCoriCos_max           =   9.9464325599212E-05
(PID.TID 0000.0001) %MON seaicefCoriCos_min           =   3.2807417471054E-05
(PID.TID 0000.0001) %MON seaicefCoriCos_mean          =   6.7585896192312E-05
(PID.TID 0000.0001) %MON seaicefCoriCos_sd            =   2.0576140902612E-05
(PID.TID 0000.0001) INI_CG2D: CG2D normalisation factor =  1.6094939840939192E-04
(PID.TID 0000.0001) 
(PID.TID 0000.0001) // =======================================================
(PID.TID 0000.0001) // Field Initial Temperature at iteration          1
(PID.TID 0000.0001) // CMIN =          9.205863475799561E-01
(PID.TID 0000.0001) // CMAX =          1.333307647705078E+01
(PID.TID 0000.0001) // CINT =          4.597218566470676E-01
(PID.TID 0000.0001) // SYMBOLS (CMIN->CMAX): -abcdefghijklmnopqrstuvwxyz+
(PID.TID 0000.0001) //                  0.0: .
(PID.TID 0000.0001) // RANGE I (Lo:Hi:Step):(   1:  20:   1)
(PID.TID 0000.0001) // RANGE J (Lo:Hi:Step):(  16:   1:  -1)
(PID.TID 0000.0001) // RANGE K (Lo:Hi:Step):(   1:   1:   1)
(PID.TID 0000.0001) // =======================================================
(PID.TID 0000.0001) K =   1
(PID.TID 0000.0001)                I=10      I=20
(PID.TID 0000.0001) |--J--|123456789|123456789|
(PID.TID 0000.0001)     16 .----...............
(PID.TID 0000.0001)     15 aabaaaaaaaa.........
(PID.TID 0000.0001)     14 .ccccccbbbbc........
(PID.TID 0000.0001)     13 ....dddddddd........
(PID.TID 0000.0001)     12 ......dcdddddd......
(PID.TID 0000.0001)     11 ........cccdd.......
(PID.TID 0000.0001)     10 .......bbcdddd......
(PID.TID 0000.0001)      9 .......cdeeffff....j
(PID.TID 0000.0001)      8 .....ccdefgghhggh..k
(PID.TID 0000.0001)      7 ......d.fghiiiiiijkl
(PID.TID 0000.0001)      6 .........ghhijjjkklm
(PID.TID 0000.0001)      5 ..........hhhijklmnn
(PID.TID 0000.0001)      4 ............ghikmopq
(PID.TID 0000.0001)      3 ..........k.hhiknqsu
(PID.TID 0000.0001)      2 .......oonm..ijknqux
(PID.TID 0000.0001)      1 ........qponlkklosw+
(PID.TID 0000.0001) // =======================================================
(PID.TID 0000.0001) // END OF FIELD                                          =
(PID.TID 0000.0001) // =======================================================
(PID.TID 0000.0001) 
(PID.TID 0000.0001) // =======================================================
(PID.TID 0000.0001) // Field Initial Salinity at iteration          1
(PID.TID 0000.0001) // CMIN =          3.012869834899902E+01
(PID.TID 0000.0001) // CMAX =          3.487366104125977E+01
(PID.TID 0000.0001) // CINT =          1.757393589726201E-01
(PID.TID 0000.0001) // SYMBOLS (CMIN->CMAX): -abcdefghijklmnopqrstuvwxyz+
(PID.TID 0000.0001) //                  0.0: .
(PID.TID 0000.0001) // RANGE I (Lo:Hi:Step):(   1:  20:   1)
(PID.TID 0000.0001) // RANGE J (Lo:Hi:Step):(  16:   1:  -1)
(PID.TID 0000.0001) // RANGE K (Lo:Hi:Step):(   1:   1:   1)
(PID.TID 0000.0001) // =======================================================
(PID.TID 0000.0001) K =   1
(PID.TID 0000.0001)                I=10      I=20
(PID.TID 0000.0001) |--J--|123456789|123456789|
(PID.TID 0000.0001)     16 .nnos...............
(PID.TID 0000.0001)     15 lnoppppppol.........
(PID.TID 0000.0001)     14 .nponmllllmn........
(PID.TID 0000.0001)     13 ....ljhijkmo........
(PID.TID 0000.0001)     12 ......ghjlmors......
(PID.TID 0000.0001)     11 ........jmnpr.......
(PID.TID 0000.0001)     10 .......jlnpqrq......
(PID.TID 0000.0001)      9 .......noqsttts....w
(PID.TID 0000.0001)      8 .....jlnpsuvwwutu..x
(PID.TID 0000.0001)      7 ......j.rruwxyxxwxxy
(PID.TID 0000.0001)      6 .........ppruxyyzzzz
(PID.TID 0000.0001)      5 ..........ijoswyzzzz
(PID.TID 0000.0001)      4 ............iotwyzzz
(PID.TID 0000.0001)      3 ..........g.imquwyzz
(PID.TID 0000.0001)      2 .......-bef..knqtvxz
(PID.TID 0000.0001)      1 ........-cegijlosvy+
(PID.TID 0000.0001) // =======================================================
(PID.TID 0000.0001) // END OF FIELD                                          =
(PID.TID 0000.0001) // =======================================================
(PID.TID 0000.0001) 
(PID.TID 0000.0001) Start initial hydrostatic pressure computation
(PID.TID 0000.0001) Pressure is predetermined for buoyancyRelation OCEANIC
(PID.TID 0000.0001) 
(PID.TID 0000.0001)  MDS_READ_FIELD: opening file: xx_theta.0000000000.001.001.data
 ph-ctrl theta0 a   0.
 ph-ctrl theta0 b   0.
(PID.TID 0000.0001)  MDS_READ_FIELD: opening file: xx_salt.0000000000.001.001.data
(PID.TID 0000.0001) // =======================================================
(PID.TID 0000.0001) // Model current state
(PID.TID 0000.0001) // =======================================================
(PID.TID 0000.0001) 
(PID.TID 0000.0001) // =======================================================
(PID.TID 0000.0001) // Begin MONITOR SEAICE statistics
(PID.TID 0000.0001) // =======================================================
(PID.TID 0000.0001) %MON seaice_tsnumber              =                     0
(PID.TID 0000.0001) %MON seaice_time_sec              =   0.0000000000000E+00
(PID.TID 0000.0001) %MON seaice_uice_max              =   0.0000000000000E+00
(PID.TID 0000.0001) %MON seaice_uice_min              =   0.0000000000000E+00
(PID.TID 0000.0001) %MON seaice_uice_mean             =   0.0000000000000E+00
(PID.TID 0000.0001) %MON seaice_uice_sd               =   0.0000000000000E+00
(PID.TID 0000.0001) %MON seaice_uice_del2             =   0.0000000000000E+00
(PID.TID 0000.0001) %MON seaice_vice_max              =   0.0000000000000E+00
(PID.TID 0000.0001) %MON seaice_vice_min              =   0.0000000000000E+00
(PID.TID 0000.0001) %MON seaice_vice_mean             =   0.0000000000000E+00
(PID.TID 0000.0001) %MON seaice_vice_sd               =   0.0000000000000E+00
(PID.TID 0000.0001) %MON seaice_vice_del2             =   0.0000000000000E+00
(PID.TID 0000.0001) %MON seaice_area_max              =   1.0000000000000E+00
(PID.TID 0000.0001) %MON seaice_area_min              =   1.0000000000000E+00
(PID.TID 0000.0001) %MON seaice_area_mean             =   1.0000000000000E+00
(PID.TID 0000.0001) %MON seaice_area_sd               =   0.0000000000000E+00
(PID.TID 0000.0001) %MON seaice_area_del2             =   0.0000000000000E+00
(PID.TID 0000.0001) %MON seaice_heff_max              =   1.0000000000000E+00
(PID.TID 0000.0001) %MON seaice_heff_min              =   1.0000000000000E+00
(PID.TID 0000.0001) %MON seaice_heff_mean             =   1.0000000000000E+00
(PID.TID 0000.0001) %MON seaice_heff_sd               =   0.0000000000000E+00
(PID.TID 0000.0001) %MON seaice_heff_del2             =   0.0000000000000E+00
(PID.TID 0000.0001) %MON seaice_hsnow_max             =   2.0000000298023E-01
(PID.TID 0000.0001) %MON seaice_hsnow_min             =   2.0000000298023E-01
(PID.TID 0000.0001) %MON seaice_hsnow_mean            =   2.0000000298023E-01
(PID.TID 0000.0001) %MON seaice_hsnow_sd              =   5.8286708792821E-16
(PID.TID 0000.0001) %MON seaice_hsnow_del2            =   0.0000000000000E+00
(PID.TID 0000.0001) // =======================================================
(PID.TID 0000.0001) // End MONITOR SEAICE statistics
(PID.TID 0000.0001) // =======================================================
(PID.TID 0000.0001)  MDS_READ_FIELD: opening file: xx_atemp.0000000000.001.001.data
(PID.TID 0000.0001)  MDS_READ_FIELD: opening file: xx_atemp.0000000000.001.001.data
(PID.TID 0000.0001)  MDS_READ_FIELD: opening file: xx_aqh.0000000000.001.001.data
(PID.TID 0000.0001)  MDS_READ_FIELD: opening file: xx_aqh.0000000000.001.001.data
(PID.TID 0000.0001)  MDS_READ_FIELD: opening file: xx_precip.0000000000.001.001.data
(PID.TID 0000.0001)  MDS_READ_FIELD: opening file: xx_precip.0000000000.001.001.data
(PID.TID 0000.0001)  MDS_READ_FIELD: opening file: xx_swdown.0000000000.001.001.data
(PID.TID 0000.0001)  MDS_READ_FIELD: opening file: xx_swdown.0000000000.001.001.data
(PID.TID 0000.0001)  MDS_READ_FIELD: opening file: xx_lwdown.0000000000.001.001.data
(PID.TID 0000.0001)  MDS_READ_FIELD: opening file: xx_lwdown.0000000000.001.001.data
(PID.TID 0000.0001)  MDS_READ_FIELD: opening file: xx_snowprecip.0000000000.001.001.data
(PID.TID 0000.0001)  MDS_READ_FIELD: opening file: xx_snowprecip.0000000000.001.001.data
(PID.TID 0000.0001)  MDS_READ_FIELD: opening file: xx_apressure.0000000000.001.001.data
(PID.TID 0000.0001)  MDS_READ_FIELD: opening file: xx_apressure.0000000000.001.001.data
(PID.TID 0000.0001)  MDS_READ_FIELD: opening file: xx_uwind.0000000000.001.001.data
(PID.TID 0000.0001)  MDS_READ_FIELD: opening file: xx_uwind.0000000000.001.001.data
(PID.TID 0000.0001)  MDS_READ_FIELD: opening file: xx_vwind.0000000000.001.001.data
(PID.TID 0000.0001)  MDS_READ_FIELD: opening file: xx_vwind.0000000000.001.001.data
(PID.TID 0000.0001) // =======================================================
(PID.TID 0000.0001) // Begin MONITOR EXF statistics
(PID.TID 0000.0001) // =======================================================
(PID.TID 0000.0001) %MON exf_tsnumber                 =                     0
(PID.TID 0000.0001) %MON exf_time_sec                 =   0.0000000000000E+00
(PID.TID 0000.0001) %MON exf_ustress_max              =   6.3903775845771E-02
(PID.TID 0000.0001) %MON exf_ustress_min              =  -9.5324050318348E-02
(PID.TID 0000.0001) %MON exf_ustress_mean             =   2.2585162682284E-02
(PID.TID 0000.0001) %MON exf_ustress_sd               =   2.7275780623429E-02
(PID.TID 0000.0001) %MON exf_ustress_del2             =   2.9464926015654E-03
(PID.TID 0000.0001) %MON exf_vstress_max              =   5.4708944127586E-02
(PID.TID 0000.0001) %MON exf_vstress_min              =  -6.2488440618747E-02
(PID.TID 0000.0001) %MON exf_vstress_mean             =  -5.6174741996712E-03
(PID.TID 0000.0001) %MON exf_vstress_sd               =   1.5596129866977E-02
(PID.TID 0000.0001) %MON exf_vstress_del2             =   1.7930354449377E-03
(PID.TID 0000.0001) %MON exf_hflux_max                =   7.3111020636161E+02
(PID.TID 0000.0001) %MON exf_hflux_min                =   1.0991726570245E+02
(PID.TID 0000.0001) %MON exf_hflux_mean               =   2.7655956200851E+02
(PID.TID 0000.0001) %MON exf_hflux_sd                 =   1.5872018333726E+02
(PID.TID 0000.0001) %MON exf_hflux_del2               =   1.9324676459545E+01
(PID.TID 0000.0001) %MON exf_sflux_max                =   5.3473262221640E-08
(PID.TID 0000.0001) %MON exf_sflux_min                =  -6.1385296755754E-08
(PID.TID 0000.0001) %MON exf_sflux_mean               =  -7.3062642244726E-09
(PID.TID 0000.0001) %MON exf_sflux_sd                 =   2.6562207504943E-08
(PID.TID 0000.0001) %MON exf_sflux_del2               =   3.6392857459418E-09
(PID.TID 0000.0001) %MON exf_uwind_max                =   6.4643745422363E+00
(PID.TID 0000.0001) %MON exf_uwind_min                =  -6.8372380733490E+00
(PID.TID 0000.0001) %MON exf_uwind_mean               =   2.7697727336031E+00
(PID.TID 0000.0001) %MON exf_uwind_sd                 =   2.9900402496951E+00
(PID.TID 0000.0001) %MON exf_uwind_del2               =   3.1570994739265E-01
(PID.TID 0000.0001) %MON exf_vwind_max                =   3.9240682125092E+00
(PID.TID 0000.0001) %MON exf_vwind_min                =  -6.0197033882141E+00
(PID.TID 0000.0001) %MON exf_vwind_mean               =  -7.6089868124963E-01
(PID.TID 0000.0001) %MON exf_vwind_sd                 =   1.7293437592941E+00
(PID.TID 0000.0001) %MON exf_vwind_del2               =   1.9333263882436E-01
(PID.TID 0000.0001) %MON exf_wspeed_max               =   7.8832820454477E+00
(PID.TID 0000.0001) %MON exf_wspeed_min               =   4.6035219539401E-01
(PID.TID 0000.0001) %MON exf_wspeed_mean              =   4.1981217095273E+00
(PID.TID 0000.0001) %MON exf_wspeed_sd                =   1.5991724245810E+00
(PID.TID 0000.0001) %MON exf_wspeed_del2              =   3.7693667977018E-01
(PID.TID 0000.0001) %MON exf_atemp_max                =   2.8188281250000E+02
(PID.TID 0000.0001) %MON exf_atemp_min                =   2.3646176910400E+02
(PID.TID 0000.0001) %MON exf_atemp_mean               =   2.6394605689467E+02
(PID.TID 0000.0001) %MON exf_atemp_sd                 =   1.1983416894944E+01
(PID.TID 0000.0001) %MON exf_atemp_del2               =   6.4942242667643E-01
(PID.TID 0000.0001) %MON exf_aqh_max                  =   6.3231729436666E-03
(PID.TID 0000.0001) %MON exf_aqh_min                  =   1.6369274817407E-04
(PID.TID 0000.0001) %MON exf_aqh_mean                 =   2.4803629101886E-03
(PID.TID 0000.0001) %MON exf_aqh_sd                   =   1.4265074770275E-03
(PID.TID 0000.0001) %MON exf_aqh_del2                 =   6.8141780599641E-05
(PID.TID 0000.0001) %MON exf_lwflux_max               =   1.9978966060501E+02
(PID.TID 0000.0001) %MON exf_lwflux_min               =   6.3304595803996E+01
(PID.TID 0000.0001) %MON exf_lwflux_mean              =   1.0410079899302E+02
(PID.TID 0000.0001) %MON exf_lwflux_sd                =   3.6519264181786E+01
(PID.TID 0000.0001) %MON exf_lwflux_del2              =   3.1286635970398E+00
(PID.TID 0000.0001) %MON exf_precip_max               =   1.0498766300771E-07
(PID.TID 0000.0001) %MON exf_precip_min               =   2.7359498694368E-10
(PID.TID 0000.0001) %MON exf_precip_mean              =   3.6390080543085E-08
(PID.TID 0000.0001) %MON exf_precip_sd                =   2.0578148171209E-08
(PID.TID 0000.0001) %MON exf_precip_del2              =   2.5551549857431E-09
(PID.TID 0000.0001) %MON exf_snowprecip_max           =   0.0000000000000E+00
(PID.TID 0000.0001) %MON exf_snowprecip_min           =   0.0000000000000E+00
(PID.TID 0000.0001) %MON exf_snowprecip_mean          =   0.0000000000000E+00
(PID.TID 0000.0001) %MON exf_snowprecip_sd            =   0.0000000000000E+00
(PID.TID 0000.0001) %MON exf_snowprecip_del2          =   0.0000000000000E+00
(PID.TID 0000.0001) %MON exf_swflux_max               =  -8.1205755472183E-02
(PID.TID 0000.0001) %MON exf_swflux_min               =  -6.3973114013672E+01
(PID.TID 0000.0001) %MON exf_swflux_mean              =  -2.6453223022948E+01
(PID.TID 0000.0001) %MON exf_swflux_sd                =   1.9625901079469E+01
(PID.TID 0000.0001) %MON exf_swflux_del2              =   4.7901276555285E-01
(PID.TID 0000.0001) %MON exf_evap_max                 =   5.9797470045733E-08
(PID.TID 0000.0001) %MON exf_evap_min                 =   1.0729148721654E-08
(PID.TID 0000.0001) %MON exf_evap_mean                =   2.9083816318612E-08
(PID.TID 0000.0001) %MON exf_evap_sd                  =   9.2938019816934E-09
(PID.TID 0000.0001) %MON exf_evap_del2                =   2.0154589300898E-09
(PID.TID 0000.0001) %MON exf_swdown_max               =   7.1081237792969E+01
(PID.TID 0000.0001) %MON exf_swdown_min               =   9.0228617191315E-02
(PID.TID 0000.0001) %MON exf_swdown_mean              =   2.9392470025498E+01
(PID.TID 0000.0001) %MON exf_swdown_sd                =   2.1806556754965E+01
(PID.TID 0000.0001) %MON exf_swdown_del2              =   5.3223640616983E-01
(PID.TID 0000.0001) %MON exf_lwdown_max               =   3.0567971801758E+02
(PID.TID 0000.0001) %MON exf_lwdown_min               =   1.1599769210815E+02
(PID.TID 0000.0001) %MON exf_lwdown_mean              =   2.2594931695913E+02
(PID.TID 0000.0001) %MON exf_lwdown_sd                =   4.6277429231296E+01
(PID.TID 0000.0001) %MON exf_lwdown_del2              =   3.2438212966919E+00
(PID.TID 0000.0001) %MON exf_apressure_max            =   0.0000000000000E+00
(PID.TID 0000.0001) %MON exf_apressure_min            =   0.0000000000000E+00
(PID.TID 0000.0001) %MON exf_apressure_mean           =   0.0000000000000E+00
(PID.TID 0000.0001) %MON exf_apressure_sd             =   0.0000000000000E+00
(PID.TID 0000.0001) %MON exf_apressure_del2           =   0.0000000000000E+00
(PID.TID 0000.0001) %MON exf_runoff_max               =   0.0000000000000E+00
(PID.TID 0000.0001) %MON exf_runoff_min               =   0.0000000000000E+00
(PID.TID 0000.0001) %MON exf_runoff_mean              =   0.0000000000000E+00
(PID.TID 0000.0001) %MON exf_runoff_sd                =   0.0000000000000E+00
(PID.TID 0000.0001) %MON exf_runoff_del2              =   0.0000000000000E+00
(PID.TID 0000.0001) %MON exf_climsst_max              =   0.0000000000000E+00
(PID.TID 0000.0001) %MON exf_climsst_min              =   0.0000000000000E+00
(PID.TID 0000.0001) %MON exf_climsst_mean             =   0.0000000000000E+00
(PID.TID 0000.0001) %MON exf_climsst_sd               =   0.0000000000000E+00
(PID.TID 0000.0001) %MON exf_climsst_del2             =   0.0000000000000E+00
(PID.TID 0000.0001) %MON exf_climsss_max              =   3.5040330886841E+01
(PID.TID 0000.0001) %MON exf_climsss_min              =   3.0666313171387E+01
(PID.TID 0000.0001) %MON exf_climsss_mean             =   3.3459319600989E+01
(PID.TID 0000.0001) %MON exf_climsss_sd               =   1.0319548925494E+00
(PID.TID 0000.0001) %MON exf_climsss_del2             =   1.0019396146139E-01
(PID.TID 0000.0001) // =======================================================
(PID.TID 0000.0001) // End MONITOR EXF statistics
(PID.TID 0000.0001) // =======================================================
 ph-ice B  0  0.  0.  0.
 ph-ice C  0  5.30354909E+10
 cg2d: Sum(rhs),rhsMax =   1.05818132034585E-15  9.93037467350620E-01
(PID.TID 0000.0001) // =======================================================
(PID.TID 0000.0001) // Begin MONITOR SEAICE statistics
(PID.TID 0000.0001) // =======================================================
(PID.TID 0000.0001) %MON seaice_tsnumber              =                     1
(PID.TID 0000.0001) %MON seaice_time_sec              =   3.6000000000000E+03
(PID.TID 0000.0001) %MON seaice_uice_max              =   1.1830188588838E-01
(PID.TID 0000.0001) %MON seaice_uice_min              =  -3.6947667601810E-02
(PID.TID 0000.0001) %MON seaice_uice_mean             =   4.6351011395841E-02
(PID.TID 0000.0001) %MON seaice_uice_sd               =   4.4551623876367E-02
(PID.TID 0000.0001) %MON seaice_uice_del2             =   2.6893939150909E-03
(PID.TID 0000.0001) %MON seaice_vice_max              =   3.8048078875392E-02
(PID.TID 0000.0001) %MON seaice_vice_min              =  -7.2208311040469E-02
(PID.TID 0000.0001) %MON seaice_vice_mean             =  -1.7212953413442E-02
(PID.TID 0000.0001) %MON seaice_vice_sd               =   2.7498420195410E-02
(PID.TID 0000.0001) %MON seaice_vice_del2             =   2.2712992187913E-03
(PID.TID 0000.0001) %MON seaice_area_max              =   1.0000000000000E+00
(PID.TID 0000.0001) %MON seaice_area_min              =   0.0000000000000E+00
(PID.TID 0000.0001) %MON seaice_area_mean             =   6.3240418008182E-01
(PID.TID 0000.0001) %MON seaice_area_sd               =   4.5166862134438E-01
(PID.TID 0000.0001) %MON seaice_area_del2             =   4.7454801422287E-02
(PID.TID 0000.0001) %MON seaice_heff_max              =   6.0076635272005E-01
(PID.TID 0000.0001) %MON seaice_heff_min              =   0.0000000000000E+00
(PID.TID 0000.0001) %MON seaice_heff_mean             =   1.4887451421175E-01
(PID.TID 0000.0001) %MON seaice_heff_sd               =   1.8287366826742E-01
(PID.TID 0000.0001) %MON seaice_heff_del2             =   1.0146605918607E-02
(PID.TID 0000.0001) %MON seaice_hsnow_max             =   2.0078474686707E-01
(PID.TID 0000.0001) %MON seaice_hsnow_min             =   0.0000000000000E+00
(PID.TID 0000.0001) %MON seaice_hsnow_mean            =   1.1848697056338E-01
(PID.TID 0000.0001) %MON seaice_hsnow_sd              =   9.6623972770983E-02
(PID.TID 0000.0001) %MON seaice_hsnow_del2            =   6.2688952170602E-03
(PID.TID 0000.0001) // =======================================================
(PID.TID 0000.0001) // End MONITOR SEAICE statistics
(PID.TID 0000.0001) // =======================================================
(PID.TID 0000.0001) // =======================================================
(PID.TID 0000.0001) // Begin MONITOR EXF statistics
(PID.TID 0000.0001) // =======================================================
(PID.TID 0000.0001) %MON exf_tsnumber                 =                     1
(PID.TID 0000.0001) %MON exf_time_sec                 =   3.6000000000000E+03
(PID.TID 0000.0001) %MON exf_ustress_max              =   5.2215336216899E-02
(PID.TID 0000.0001) %MON exf_ustress_min              =  -9.3781516255246E-02
(PID.TID 0000.0001) %MON exf_ustress_mean             =   1.7908667192023E-02
(PID.TID 0000.0001) %MON exf_ustress_sd               =   2.3677826306585E-02
(PID.TID 0000.0001) %MON exf_ustress_del2             =   2.8185936748803E-03
(PID.TID 0000.0001) %MON exf_vstress_max              =   5.3823846971061E-02
(PID.TID 0000.0001) %MON exf_vstress_min              =  -5.8521115502029E-02
(PID.TID 0000.0001) %MON exf_vstress_mean             =  -5.4709252838666E-03
(PID.TID 0000.0001) %MON exf_vstress_sd               =   1.4440702673964E-02
(PID.TID 0000.0001) %MON exf_vstress_del2             =   1.6942467967344E-03
(PID.TID 0000.0001) %MON exf_hflux_max                =   6.2467472133264E+02
(PID.TID 0000.0001) %MON exf_hflux_min                =  -5.4116825759641E+01
(PID.TID 0000.0001) %MON exf_hflux_mean               =   1.4693365204240E+02
(PID.TID 0000.0001) %MON exf_hflux_sd                 =   1.8156698502768E+02
(PID.TID 0000.0001) %MON exf_hflux_del2               =   1.6567547708346E+01
(PID.TID 0000.0001) %MON exf_sflux_max                =   3.9008935708334E-08
(PID.TID 0000.0001) %MON exf_sflux_min                =  -8.8902774357601E-08
(PID.TID 0000.0001) %MON exf_sflux_mean               =  -2.5876940658429E-08
(PID.TID 0000.0001) %MON exf_sflux_sd                 =   3.0537598396762E-08
(PID.TID 0000.0001) %MON exf_sflux_del2               =   3.1605976814410E-09
(PID.TID 0000.0001) %MON exf_uwind_max                =   6.4648819946852E+00
(PID.TID 0000.0001) %MON exf_uwind_min                =  -6.8372648550513E+00
(PID.TID 0000.0001) %MON exf_uwind_mean               =   2.7698802859476E+00
(PID.TID 0000.0001) %MON exf_uwind_sd                 =   2.9903162155877E+00
(PID.TID 0000.0001) %MON exf_uwind_del2               =   3.1571785161521E-01
(PID.TID 0000.0001) %MON exf_vwind_max                =   3.9240983933048E+00
(PID.TID 0000.0001) %MON exf_vwind_min                =  -6.0187974783892E+00
(PID.TID 0000.0001) %MON exf_vwind_mean               =  -7.6028090815952E-01
(PID.TID 0000.0001) %MON exf_vwind_sd                 =   1.7294518007626E+00
(PID.TID 0000.0001) %MON exf_vwind_del2               =   1.9332576748242E-01
(PID.TID 0000.0001) %MON exf_wspeed_max               =   7.8833202965791E+00
(PID.TID 0000.0001) %MON exf_wspeed_min               =   4.6010935417159E-01
(PID.TID 0000.0001) %MON exf_wspeed_mean              =   4.1982241536133E+00
(PID.TID 0000.0001) %MON exf_wspeed_sd                =   1.5994287774633E+00
(PID.TID 0000.0001) %MON exf_wspeed_del2              =   3.7699000842292E-01
(PID.TID 0000.0001) %MON exf_atemp_max                =   2.8188110034713E+02
(PID.TID 0000.0001) %MON exf_atemp_min                =   2.3645730413635E+02
(PID.TID 0000.0001) %MON exf_atemp_mean               =   2.6394141281326E+02
(PID.TID 0000.0001) %MON exf_atemp_sd                 =   1.1984877430240E+01
(PID.TID 0000.0001) %MON exf_atemp_del2               =   6.4944176100665E-01
(PID.TID 0000.0001) %MON exf_aqh_max                  =   6.3224764028055E-03
(PID.TID 0000.0001) %MON exf_aqh_min                  =   1.6359864467567E-04
(PID.TID 0000.0001) %MON exf_aqh_mean                 =   2.4798025537840E-03
(PID.TID 0000.0001) %MON exf_aqh_sd                   =   1.4264043737180E-03
(PID.TID 0000.0001) %MON exf_aqh_del2                 =   6.8128113038494E-05
(PID.TID 0000.0001) %MON exf_lwflux_max               =   1.8380784776361E+02
(PID.TID 0000.0001) %MON exf_lwflux_min               =   2.6472644798215E+01
(PID.TID 0000.0001) %MON exf_lwflux_mean              =   7.5350572632798E+01
(PID.TID 0000.0001) %MON exf_lwflux_sd                =   4.3134595524525E+01
(PID.TID 0000.0001) %MON exf_lwflux_del2              =   3.2390977067912E+00
(PID.TID 0000.0001) %MON exf_precip_max               =   1.0498904445033E-07
(PID.TID 0000.0001) %MON exf_precip_min               =   2.7346106047101E-10
(PID.TID 0000.0001) %MON exf_precip_mean              =   3.6390069699050E-08
(PID.TID 0000.0001) %MON exf_precip_sd                =   2.0578598603627E-08
(PID.TID 0000.0001) %MON exf_precip_del2              =   2.5556826789328E-09
(PID.TID 0000.0001) %MON exf_snowprecip_max           =   0.0000000000000E+00
(PID.TID 0000.0001) %MON exf_snowprecip_min           =   0.0000000000000E+00
(PID.TID 0000.0001) %MON exf_snowprecip_mean          =   0.0000000000000E+00
(PID.TID 0000.0001) %MON exf_snowprecip_sd            =   0.0000000000000E+00
(PID.TID 0000.0001) %MON exf_snowprecip_del2          =   0.0000000000000E+00
(PID.TID 0000.0001) %MON exf_swflux_max               =  -8.1206038349965E-02
(PID.TID 0000.0001) %MON exf_swflux_min               =  -6.3991984364244E+01
(PID.TID 0000.0001) %MON exf_swflux_mean              =  -2.6463755238823E+01
(PID.TID 0000.0001) %MON exf_swflux_sd                =   1.9629736696482E+01
(PID.TID 0000.0001) %MON exf_swflux_del2              =   4.7911963949881E-01
(PID.TID 0000.0001) %MON exf_evap_max                 =   4.5332480821497E-08
(PID.TID 0000.0001) %MON exf_evap_min                 =  -4.7524365011618E-09
(PID.TID 0000.0001) %MON exf_evap_mean                =   1.0513129040622E-08
(PID.TID 0000.0001) %MON exf_evap_sd                  =   1.1274582998196E-08
(PID.TID 0000.0001) %MON exf_evap_del2                =   1.3716110257457E-09
(PID.TID 0000.0001) %MON exf_swdown_max               =   7.1102204849160E+01
(PID.TID 0000.0001) %MON exf_swdown_min               =   9.0228931499961E-02
(PID.TID 0000.0001) %MON exf_swdown_mean              =   2.9404172487581E+01
(PID.TID 0000.0001) %MON exf_swdown_sd                =   2.1810818551646E+01
(PID.TID 0000.0001) %MON exf_swdown_del2              =   5.3235515499868E-01
(PID.TID 0000.0001) %MON exf_lwdown_max               =   3.0567089193375E+02
(PID.TID 0000.0001) %MON exf_lwdown_min               =   1.1598258522951E+02
(PID.TID 0000.0001) %MON exf_lwdown_mean              =   2.2593360963007E+02
(PID.TID 0000.0001) %MON exf_lwdown_sd                =   4.6281398610271E+01
(PID.TID 0000.0001) %MON exf_lwdown_del2              =   3.2438329367646E+00
(PID.TID 0000.0001) %MON exf_apressure_max            =   0.0000000000000E+00
(PID.TID 0000.0001) %MON exf_apressure_min            =   0.0000000000000E+00
(PID.TID 0000.0001) %MON exf_apressure_mean           =   0.0000000000000E+00
(PID.TID 0000.0001) %MON exf_apressure_sd             =   0.0000000000000E+00
(PID.TID 0000.0001) %MON exf_apressure_del2           =   0.0000000000000E+00
(PID.TID 0000.0001) %MON exf_runoff_max               =   0.0000000000000E+00
(PID.TID 0000.0001) %MON exf_runoff_min               =   0.0000000000000E+00
(PID.TID 0000.0001) %MON exf_runoff_mean              =   0.0000000000000E+00
(PID.TID 0000.0001) %MON exf_runoff_sd                =   0.0000000000000E+00
(PID.TID 0000.0001) %MON exf_runoff_del2              =   0.0000000000000E+00
(PID.TID 0000.0001) %MON exf_climsst_max              =   0.0000000000000E+00
(PID.TID 0000.0001) %MON exf_climsst_min              =   0.0000000000000E+00
(PID.TID 0000.0001) %MON exf_climsst_mean             =   0.0000000000000E+00
(PID.TID 0000.0001) %MON exf_climsst_sd               =   0.0000000000000E+00
(PID.TID 0000.0001) %MON exf_climsst_del2             =   0.0000000000000E+00
(PID.TID 0000.0001) %MON exf_climsss_max              =   3.5040515633880E+01
(PID.TID 0000.0001) %MON exf_climsss_min              =   3.0667072499385E+01
(PID.TID 0000.0001) %MON exf_climsss_mean             =   3.3459840934468E+01
(PID.TID 0000.0001) %MON exf_climsss_sd               =   1.0318832207269E+00
(PID.TID 0000.0001) %MON exf_climsss_del2             =   1.0017673217099E-01
(PID.TID 0000.0001) // =======================================================
(PID.TID 0000.0001) // End MONITOR EXF statistics
(PID.TID 0000.0001) // =======================================================
 ph-ice B  1  0.  0.  0.
 ph-ice C  1  1.03662085E+11
 cg2d: Sum(rhs),rhsMax =   9.71447922104574E-10  1.19254195625089E+00
(PID.TID 0000.0001) // =======================================================
(PID.TID 0000.0001) // Begin MONITOR SEAICE statistics
(PID.TID 0000.0001) // =======================================================
(PID.TID 0000.0001) %MON seaice_tsnumber              =                     2
(PID.TID 0000.0001) %MON seaice_time_sec              =   7.2000000000000E+03
(PID.TID 0000.0001) %MON seaice_uice_max              =   1.5575757117815E-01
(PID.TID 0000.0001) %MON seaice_uice_min              =  -8.0942741430966E-02
(PID.TID 0000.0001) %MON seaice_uice_mean             =   6.5168649829382E-02
(PID.TID 0000.0001) %MON seaice_uice_sd               =   6.1631643089350E-02
(PID.TID 0000.0001) %MON seaice_uice_del2             =   6.8706904523403E-03
(PID.TID 0000.0001) %MON seaice_vice_max              =   7.0616929390505E-02
(PID.TID 0000.0001) %MON seaice_vice_min              =  -1.3662299947234E-01
(PID.TID 0000.0001) %MON seaice_vice_mean             =  -2.1829812692631E-02
(PID.TID 0000.0001) %MON seaice_vice_sd               =   4.1312329526262E-02
(PID.TID 0000.0001) %MON seaice_vice_del2             =   5.3521934566396E-03
(PID.TID 0000.0001) %MON seaice_area_max              =   1.0000000000000E+00
(PID.TID 0000.0001) %MON seaice_area_min              =   0.0000000000000E+00
(PID.TID 0000.0001) %MON seaice_area_mean             =   6.2511455210173E-01
(PID.TID 0000.0001) %MON seaice_area_sd               =   4.5918073702415E-01
(PID.TID 0000.0001) %MON seaice_area_del2             =   5.3309150568192E-02
(PID.TID 0000.0001) %MON seaice_heff_max              =   5.5572638142240E-01
(PID.TID 0000.0001) %MON seaice_heff_min              =   0.0000000000000E+00
(PID.TID 0000.0001) %MON seaice_heff_mean             =   1.4211256278540E-01
(PID.TID 0000.0001) %MON seaice_heff_sd               =   1.7471336181798E-01
(PID.TID 0000.0001) %MON seaice_heff_del2             =   1.3300800072063E-02
(PID.TID 0000.0001) %MON seaice_hsnow_max             =   2.0156957952176E-01
(PID.TID 0000.0001) %MON seaice_hsnow_min             =   0.0000000000000E+00
(PID.TID 0000.0001) %MON seaice_hsnow_mean            =   1.1798259565184E-01
(PID.TID 0000.0001) %MON seaice_hsnow_sd              =   9.6675387962263E-02
(PID.TID 0000.0001) %MON seaice_hsnow_del2            =   6.3372971187471E-03
(PID.TID 0000.0001) // =======================================================
(PID.TID 0000.0001) // End MONITOR SEAICE statistics
(PID.TID 0000.0001) // =======================================================
(PID.TID 0000.0001) // =======================================================
(PID.TID 0000.0001) // Begin MONITOR EXF statistics
(PID.TID 0000.0001) // =======================================================
(PID.TID 0000.0001) %MON exf_tsnumber                 =                     2
(PID.TID 0000.0001) %MON exf_time_sec                 =   7.2000000000000E+03
(PID.TID 0000.0001) %MON exf_ustress_max              =   5.2234389551241E-02
(PID.TID 0000.0001) %MON exf_ustress_min              =  -9.3783873525021E-02
(PID.TID 0000.0001) %MON exf_ustress_mean             =   1.7912605203018E-02
(PID.TID 0000.0001) %MON exf_ustress_sd               =   2.3689568487818E-02
(PID.TID 0000.0001) %MON exf_ustress_del2             =   2.8175381842339E-03
(PID.TID 0000.0001) %MON exf_vstress_max              =   5.3825403016462E-02
(PID.TID 0000.0001) %MON exf_vstress_min              =  -5.8501907463670E-02
(PID.TID 0000.0001) %MON exf_vstress_mean             =  -5.4571890319496E-03
(PID.TID 0000.0001) %MON exf_vstress_sd               =   1.4439149161759E-02
(PID.TID 0000.0001) %MON exf_vstress_del2             =   1.6937327679721E-03
(PID.TID 0000.0001) %MON exf_hflux_max                =   6.2473671698450E+02
(PID.TID 0000.0001) %MON exf_hflux_min                =  -5.1856944043789E+01
(PID.TID 0000.0001) %MON exf_hflux_mean               =   1.4603892420210E+02
(PID.TID 0000.0001) %MON exf_hflux_sd                 =   1.8006278133279E+02
(PID.TID 0000.0001) %MON exf_hflux_del2               =   1.6304064602312E+01
(PID.TID 0000.0001) %MON exf_sflux_max                =   3.9010172880204E-08
(PID.TID 0000.0001) %MON exf_sflux_min                =  -8.8920778732677E-08
(PID.TID 0000.0001) %MON exf_sflux_mean               =  -2.5980919473898E-08
(PID.TID 0000.0001) %MON exf_sflux_sd                 =   3.0374070270812E-08
(PID.TID 0000.0001) %MON exf_sflux_del2               =   3.1602147003014E-09
(PID.TID 0000.0001) %MON exf_uwind_max                =   6.4653894471340E+00
(PID.TID 0000.0001) %MON exf_uwind_min                =  -6.8372916367536E+00
(PID.TID 0000.0001) %MON exf_uwind_mean               =   2.7699878382920E+00
(PID.TID 0000.0001) %MON exf_uwind_sd                 =   2.9905922217476E+00
(PID.TID 0000.0001) %MON exf_uwind_del2               =   3.1572575583776E-01
(PID.TID 0000.0001) %MON exf_vwind_max                =   3.9241285741003E+00
(PID.TID 0000.0001) %MON exf_vwind_min                =  -6.0178915685643E+00
(PID.TID 0000.0001) %MON exf_vwind_mean               =  -7.5966313506940E-01
(PID.TID 0000.0001) %MON exf_vwind_sd                 =   1.7295599554900E+00
(PID.TID 0000.0001) %MON exf_vwind_del2               =   1.9331889614049E-01
(PID.TID 0000.0001) %MON exf_wspeed_max               =   7.8833585477315E+00
(PID.TID 0000.0001) %MON exf_wspeed_min               =   4.5986651533145E-01
(PID.TID 0000.0001) %MON exf_wspeed_mean              =   4.1983267266652E+00
(PID.TID 0000.0001) %MON exf_wspeed_sd                =   1.5996852426804E+00
(PID.TID 0000.0001) %MON exf_wspeed_del2              =   3.7704333058266E-01
(PID.TID 0000.0001) %MON exf_atemp_max                =   2.8187938819427E+02
(PID.TID 0000.0001) %MON exf_atemp_min                =   2.3645283916869E+02
(PID.TID 0000.0001) %MON exf_atemp_mean               =   2.6393676873185E+02
(PID.TID 0000.0001) %MON exf_atemp_sd                 =   1.1986338453347E+01
(PID.TID 0000.0001) %MON exf_atemp_del2               =   6.4946109533687E-01
(PID.TID 0000.0001) %MON exf_aqh_max                  =   6.3217798619445E-03
(PID.TID 0000.0001) %MON exf_aqh_min                  =   1.6350454117726E-04
(PID.TID 0000.0001) %MON exf_aqh_mean                 =   2.4792421973794E-03
(PID.TID 0000.0001) %MON exf_aqh_sd                   =   1.4263013062694E-03
(PID.TID 0000.0001) %MON exf_aqh_del2                 =   6.8114445477348E-05
(PID.TID 0000.0001) %MON exf_lwflux_max               =   1.8153743597504E+02
(PID.TID 0000.0001) %MON exf_lwflux_min               =   2.6999313161451E+01
(PID.TID 0000.0001) %MON exf_lwflux_mean              =   7.5148003033944E+01
(PID.TID 0000.0001) %MON exf_lwflux_sd                =   4.2803183327828E+01
(PID.TID 0000.0001) %MON exf_lwflux_del2              =   3.2353096159734E+00
(PID.TID 0000.0001) %MON exf_precip_max               =   1.0499042589295E-07
(PID.TID 0000.0001) %MON exf_precip_min               =   2.7332713399833E-10
(PID.TID 0000.0001) %MON exf_precip_mean              =   3.6390058855016E-08
(PID.TID 0000.0001) %MON exf_precip_sd                =   2.0579049691733E-08
(PID.TID 0000.0001) %MON exf_precip_del2              =   2.5562103721225E-09
(PID.TID 0000.0001) %MON exf_snowprecip_max           =   0.0000000000000E+00
(PID.TID 0000.0001) %MON exf_snowprecip_min           =   0.0000000000000E+00
(PID.TID 0000.0001) %MON exf_snowprecip_mean          =   0.0000000000000E+00
(PID.TID 0000.0001) %MON exf_snowprecip_sd            =   0.0000000000000E+00
(PID.TID 0000.0001) %MON exf_snowprecip_del2          =   0.0000000000000E+00
(PID.TID 0000.0001) %MON exf_swflux_max               =  -8.1206321227746E-02
(PID.TID 0000.0001) %MON exf_swflux_min               =  -6.4010854714816E+01
(PID.TID 0000.0001) %MON exf_swflux_mean              =  -2.6474287454698E+01
(PID.TID 0000.0001) %MON exf_swflux_sd                =   1.9633572905820E+01
(PID.TID 0000.0001) %MON exf_swflux_del2              =   4.7922651344477E-01
(PID.TID 0000.0001) %MON exf_evap_max                 =   4.5333055282436E-08
(PID.TID 0000.0001) %MON exf_evap_min                 =  -4.3262573270113E-09
(PID.TID 0000.0001) %MON exf_evap_mean                =   1.0409139381118E-08
(PID.TID 0000.0001) %MON exf_evap_sd                  =   1.1101640232926E-08
(PID.TID 0000.0001) %MON exf_evap_del2                =   1.3339356730055E-09
(PID.TID 0000.0001) %MON exf_swdown_max               =   7.1123171905351E+01
(PID.TID 0000.0001) %MON exf_swdown_min               =   9.0229245808607E-02
(PID.TID 0000.0001) %MON exf_swdown_mean              =   2.9415874949665E+01
(PID.TID 0000.0001) %MON exf_swdown_sd                =   2.1815081006466E+01
(PID.TID 0000.0001) %MON exf_swdown_del2              =   5.3247390382752E-01
(PID.TID 0000.0001) %MON exf_lwdown_max               =   3.0566206584993E+02
(PID.TID 0000.0001) %MON exf_lwdown_min               =   1.1596747835086E+02
(PID.TID 0000.0001) %MON exf_lwdown_mean              =   2.2591790230100E+02
(PID.TID 0000.0001) %MON exf_lwdown_sd                =   4.6285369157136E+01
(PID.TID 0000.0001) %MON exf_lwdown_del2              =   3.2438445768374E+00
(PID.TID 0000.0001) %MON exf_apressure_max            =   0.0000000000000E+00
(PID.TID 0000.0001) %MON exf_apressure_min            =   0.0000000000000E+00
(PID.TID 0000.0001) %MON exf_apressure_mean           =   0.0000000000000E+00
(PID.TID 0000.0001) %MON exf_apressure_sd             =   0.0000000000000E+00
(PID.TID 0000.0001) %MON exf_apressure_del2           =   0.0000000000000E+00
(PID.TID 0000.0001) %MON exf_runoff_max               =   0.0000000000000E+00
(PID.TID 0000.0001) %MON exf_runoff_min               =   0.0000000000000E+00
(PID.TID 0000.0001) %MON exf_runoff_mean              =   0.0000000000000E+00
(PID.TID 0000.0001) %MON exf_runoff_sd                =   0.0000000000000E+00
(PID.TID 0000.0001) %MON exf_runoff_del2              =   0.0000000000000E+00
(PID.TID 0000.0001) %MON exf_climsst_max              =   0.0000000000000E+00
(PID.TID 0000.0001) %MON exf_climsst_min              =   0.0000000000000E+00
(PID.TID 0000.0001) %MON exf_climsst_mean             =   0.0000000000000E+00
(PID.TID 0000.0001) %MON exf_climsst_sd               =   0.0000000000000E+00
(PID.TID 0000.0001) %MON exf_climsst_del2             =   0.0000000000000E+00
(PID.TID 0000.0001) %MON exf_climsss_max              =   3.5040700380919E+01
(PID.TID 0000.0001) %MON exf_climsss_min              =   3.0667831827383E+01
(PID.TID 0000.0001) %MON exf_climsss_mean             =   3.3460362267948E+01
(PID.TID 0000.0001) %MON exf_climsss_sd               =   1.0318117788237E+00
(PID.TID 0000.0001) %MON exf_climsss_del2             =   1.0015950288060E-01
(PID.TID 0000.0001) // =======================================================
(PID.TID 0000.0001) // End MONITOR EXF statistics
(PID.TID 0000.0001) // =======================================================
 ph-ice B  2  0.  0.  0.
 ph-ice C  2  1.54286126E+11
 cg2d: Sum(rhs),rhsMax =  -4.69101552741380E-10  1.21345933392297E+00
(PID.TID 0000.0001) // =======================================================
(PID.TID 0000.0001) // Begin MONITOR SEAICE statistics
(PID.TID 0000.0001) // =======================================================
(PID.TID 0000.0001) %MON seaice_tsnumber              =                     3
(PID.TID 0000.0001) %MON seaice_time_sec              =   1.0800000000000E+04
(PID.TID 0000.0001) %MON seaice_uice_max              =   1.7677554871248E-01
(PID.TID 0000.0001) %MON seaice_uice_min              =  -9.9473388719800E-02
(PID.TID 0000.0001) %MON seaice_uice_mean             =   7.5385002139958E-02
(PID.TID 0000.0001) %MON seaice_uice_sd               =   7.1157132616078E-02
(PID.TID 0000.0001) %MON seaice_uice_del2             =   8.3170545104049E-03
(PID.TID 0000.0001) %MON seaice_vice_max              =   8.9019948018044E-02
(PID.TID 0000.0001) %MON seaice_vice_min              =  -1.7696029803366E-01
(PID.TID 0000.0001) %MON seaice_vice_mean             =  -2.9256776690505E-02
(PID.TID 0000.0001) %MON seaice_vice_sd               =   5.2264403830257E-02
(PID.TID 0000.0001) %MON seaice_vice_del2             =   6.1178194509289E-03
(PID.TID 0000.0001) %MON seaice_area_max              =   1.0000000000000E+00
(PID.TID 0000.0001) %MON seaice_area_min              =   0.0000000000000E+00
(PID.TID 0000.0001) %MON seaice_area_mean             =   6.2473165128401E-01
(PID.TID 0000.0001) %MON seaice_area_sd               =   4.5913418284775E-01
(PID.TID 0000.0001) %MON seaice_area_del2             =   5.3480662075902E-02
(PID.TID 0000.0001) %MON seaice_heff_max              =   5.5368221576291E-01
(PID.TID 0000.0001) %MON seaice_heff_min              =   0.0000000000000E+00
(PID.TID 0000.0001) %MON seaice_heff_mean             =   1.4210539863368E-01
(PID.TID 0000.0001) %MON seaice_heff_sd               =   1.7434508667247E-01
(PID.TID 0000.0001) %MON seaice_heff_del2             =   1.3231250044036E-02
(PID.TID 0000.0001) %MON seaice_hsnow_max             =   2.0235454638389E-01
(PID.TID 0000.0001) %MON seaice_hsnow_min             =   0.0000000000000E+00
(PID.TID 0000.0001) %MON seaice_hsnow_mean            =   1.1801725658722E-01
(PID.TID 0000.0001) %MON seaice_hsnow_sd              =   9.6786605530350E-02
(PID.TID 0000.0001) %MON seaice_hsnow_del2            =   6.3531464967029E-03
(PID.TID 0000.0001) // =======================================================
(PID.TID 0000.0001) // End MONITOR SEAICE statistics
(PID.TID 0000.0001) // =======================================================
(PID.TID 0000.0001) // =======================================================
(PID.TID 0000.0001) // Begin MONITOR EXF statistics
(PID.TID 0000.0001) // =======================================================
(PID.TID 0000.0001) %MON exf_tsnumber                 =                     3
(PID.TID 0000.0001) %MON exf_time_sec                 =   1.0800000000000E+04
(PID.TID 0000.0001) %MON exf_ustress_max              =   5.2220278364581E-02
(PID.TID 0000.0001) %MON exf_ustress_min              =  -9.3786644941843E-02
(PID.TID 0000.0001) %MON exf_ustress_mean             =   1.7925098066974E-02
(PID.TID 0000.0001) %MON exf_ustress_sd               =   2.3700145310850E-02
(PID.TID 0000.0001) %MON exf_ustress_del2             =   2.8158738647330E-03
(PID.TID 0000.0001) %MON exf_vstress_max              =   5.3827196762903E-02
(PID.TID 0000.0001) %MON exf_vstress_min              =  -5.8480358160314E-02
(PID.TID 0000.0001) %MON exf_vstress_mean             =  -5.4532177678055E-03
(PID.TID 0000.0001) %MON exf_vstress_sd               =   1.4440792907370E-02
(PID.TID 0000.0001) %MON exf_vstress_del2             =   1.6929394890160E-03
(PID.TID 0000.0001) %MON exf_hflux_max                =   6.2482499785037E+02
(PID.TID 0000.0001) %MON exf_hflux_min                =  -5.1652096224170E+01
(PID.TID 0000.0001) %MON exf_hflux_mean               =   1.4608871397944E+02
(PID.TID 0000.0001) %MON exf_hflux_sd                 =   1.8003233239008E+02
(PID.TID 0000.0001) %MON exf_hflux_del2               =   1.6307605461940E+01
(PID.TID 0000.0001) %MON exf_sflux_max                =   3.9014761130189E-08
(PID.TID 0000.0001) %MON exf_sflux_min                =  -8.8949891199021E-08
(PID.TID 0000.0001) %MON exf_sflux_mean               =  -2.5974537141222E-08
(PID.TID 0000.0001) %MON exf_sflux_sd                 =   3.0366720973645E-08
(PID.TID 0000.0001) %MON exf_sflux_del2               =   3.1622834307629E-09
(PID.TID 0000.0001) %MON exf_uwind_max                =   6.4658968995829E+00
(PID.TID 0000.0001) %MON exf_uwind_min                =  -6.8373184184559E+00
(PID.TID 0000.0001) %MON exf_uwind_mean               =   2.7700953906364E+00
(PID.TID 0000.0001) %MON exf_uwind_sd                 =   2.9908682681638E+00
(PID.TID 0000.0001) %MON exf_uwind_del2               =   3.1573366006031E-01
(PID.TID 0000.0001) %MON exf_vwind_max                =   3.9241587548959E+00
(PID.TID 0000.0001) %MON exf_vwind_min                =  -6.0169856587394E+00
(PID.TID 0000.0001) %MON exf_vwind_mean               =  -7.5904536197929E-01
(PID.TID 0000.0001) %MON exf_vwind_sd                 =   1.7296682234552E+00
(PID.TID 0000.0001) %MON exf_vwind_del2               =   1.9331202479855E-01
(PID.TID 0000.0001) %MON exf_wspeed_max               =   7.8833967989048E+00
(PID.TID 0000.0001) %MON exf_wspeed_min               =   4.5962367887737E-01
(PID.TID 0000.0001) %MON exf_wspeed_mean              =   4.1984294286706E+00
(PID.TID 0000.0001) %MON exf_wspeed_sd                =   1.5999418201857E+00
(PID.TID 0000.0001) %MON exf_wspeed_del2              =   3.7709664625274E-01
(PID.TID 0000.0001) %MON exf_atemp_max                =   2.8187767604140E+02
(PID.TID 0000.0001) %MON exf_atemp_min                =   2.3644837420104E+02
(PID.TID 0000.0001) %MON exf_atemp_mean               =   2.6393212465043E+02
(PID.TID 0000.0001) %MON exf_atemp_sd                 =   1.1987799964088E+01
(PID.TID 0000.0001) %MON exf_atemp_del2               =   6.4948042966709E-01
(PID.TID 0000.0001) %MON exf_aqh_max                  =   6.3210833210834E-03
(PID.TID 0000.0001) %MON exf_aqh_min                  =   1.6341043767886E-04
(PID.TID 0000.0001) %MON exf_aqh_mean                 =   2.4786818409748E-03
(PID.TID 0000.0001) %MON exf_aqh_sd                   =   1.4261982746893E-03
(PID.TID 0000.0001) %MON exf_aqh_del2                 =   6.8100777916201E-05
(PID.TID 0000.0001) %MON exf_lwflux_max               =   1.8153866759519E+02
(PID.TID 0000.0001) %MON exf_lwflux_min               =   2.7117659273114E+01
(PID.TID 0000.0001) %MON exf_lwflux_mean              =   7.5167336263930E+01
(PID.TID 0000.0001) %MON exf_lwflux_sd                =   4.2791334923082E+01
(PID.TID 0000.0001) %MON exf_lwflux_del2              =   3.2353470330810E+00
(PID.TID 0000.0001) %MON exf_precip_max               =   1.0499180733557E-07
(PID.TID 0000.0001) %MON exf_precip_min               =   2.7319320752566E-10
(PID.TID 0000.0001) %MON exf_precip_mean              =   3.6390048010982E-08
(PID.TID 0000.0001) %MON exf_precip_sd                =   2.0579501435483E-08
(PID.TID 0000.0001) %MON exf_precip_del2              =   2.5567380653122E-09
(PID.TID 0000.0001) %MON exf_snowprecip_max           =   0.0000000000000E+00
(PID.TID 0000.0001) %MON exf_snowprecip_min           =   0.0000000000000E+00
(PID.TID 0000.0001) %MON exf_snowprecip_mean          =   0.0000000000000E+00
(PID.TID 0000.0001) %MON exf_snowprecip_sd            =   0.0000000000000E+00
(PID.TID 0000.0001) %MON exf_snowprecip_del2          =   0.0000000000000E+00
(PID.TID 0000.0001) %MON exf_swflux_max               =  -8.1206604105527E-02
(PID.TID 0000.0001) %MON exf_swflux_min               =  -6.4029725065388E+01
(PID.TID 0000.0001) %MON exf_swflux_mean              =  -2.6484819670573E+01
(PID.TID 0000.0001) %MON exf_swflux_sd                =   1.9637409707136E+01
(PID.TID 0000.0001) %MON exf_swflux_del2              =   4.7933338739073E-01
(PID.TID 0000.0001) %MON exf_evap_max                 =   4.5336980821491E-08
(PID.TID 0000.0001) %MON exf_evap_min                 =  -4.2852111082945E-09
(PID.TID 0000.0001) %MON exf_evap_mean                =   1.0415510869759E-08
(PID.TID 0000.0001) %MON exf_evap_sd                  =   1.1091288865238E-08
(PID.TID 0000.0001) %MON exf_evap_del2                =   1.3330271432529E-09
(PID.TID 0000.0001) %MON exf_swdown_max               =   7.1144138961542E+01
(PID.TID 0000.0001) %MON exf_swdown_min               =   9.0229560117253E-02
(PID.TID 0000.0001) %MON exf_swdown_mean              =   2.9427577411748E+01
(PID.TID 0000.0001) %MON exf_swdown_sd                =   2.1819344119040E+01
(PID.TID 0000.0001) %MON exf_swdown_del2              =   5.3259265265636E-01
(PID.TID 0000.0001) %MON exf_lwdown_max               =   3.0565323976611E+02
(PID.TID 0000.0001) %MON exf_lwdown_min               =   1.1595237147222E+02
(PID.TID 0000.0001) %MON exf_lwdown_mean              =   2.2590219497194E+02
(PID.TID 0000.0001) %MON exf_lwdown_sd                =   4.6289340871590E+01
(PID.TID 0000.0001) %MON exf_lwdown_del2              =   3.2438562169101E+00
(PID.TID 0000.0001) %MON exf_apressure_max            =   0.0000000000000E+00
(PID.TID 0000.0001) %MON exf_apressure_min            =   0.0000000000000E+00
(PID.TID 0000.0001) %MON exf_apressure_mean           =   0.0000000000000E+00
(PID.TID 0000.0001) %MON exf_apressure_sd             =   0.0000000000000E+00
(PID.TID 0000.0001) %MON exf_apressure_del2           =   0.0000000000000E+00
(PID.TID 0000.0001) %MON exf_runoff_max               =   0.0000000000000E+00
(PID.TID 0000.0001) %MON exf_runoff_min               =   0.0000000000000E+00
(PID.TID 0000.0001) %MON exf_runoff_mean              =   0.0000000000000E+00
(PID.TID 0000.0001) %MON exf_runoff_sd                =   0.0000000000000E+00
(PID.TID 0000.0001) %MON exf_runoff_del2              =   0.0000000000000E+00
(PID.TID 0000.0001) %MON exf_climsst_max              =   0.0000000000000E+00
(PID.TID 0000.0001) %MON exf_climsst_min              =   0.0000000000000E+00
(PID.TID 0000.0001) %MON exf_climsst_mean             =   0.0000000000000E+00
(PID.TID 0000.0001) %MON exf_climsst_sd               =   0.0000000000000E+00
(PID.TID 0000.0001) %MON exf_climsst_del2             =   0.0000000000000E+00
(PID.TID 0000.0001) %MON exf_climsss_max              =   3.5040885127959E+01
(PID.TID 0000.0001) %MON exf_climsss_min              =   3.0668591155380E+01
(PID.TID 0000.0001) %MON exf_climsss_mean             =   3.3460883601427E+01
(PID.TID 0000.0001) %MON exf_climsss_sd               =   1.0317405668875E+00
(PID.TID 0000.0001) %MON exf_climsss_del2             =   1.0014227359021E-01
(PID.TID 0000.0001) // =======================================================
(PID.TID 0000.0001) // End MONITOR EXF statistics
(PID.TID 0000.0001) // =======================================================
 ph-ice B  3  0.  0.  0.
 ph-ice C  3  2.0493353E+11
 cg2d: Sum(rhs),rhsMax =   3.25077589534428E-08  1.21053585103723E+00
(PID.TID 0000.0001) // =======================================================
(PID.TID 0000.0001) // Begin MONITOR SEAICE statistics
(PID.TID 0000.0001) // =======================================================
(PID.TID 0000.0001) %MON seaice_tsnumber              =                     4
(PID.TID 0000.0001) %MON seaice_time_sec              =   1.4400000000000E+04
(PID.TID 0000.0001) %MON seaice_uice_max              =   2.0410589043308E-01
(PID.TID 0000.0001) %MON seaice_uice_min              =  -1.0820664027343E-01
(PID.TID 0000.0001) %MON seaice_uice_mean             =   8.1218833761753E-02
(PID.TID 0000.0001) %MON seaice_uice_sd               =   7.8521023106532E-02
(PID.TID 0000.0001) %MON seaice_uice_del2             =   9.4129540595007E-03
(PID.TID 0000.0001) %MON seaice_vice_max              =   9.9288338553913E-02
(PID.TID 0000.0001) %MON seaice_vice_min              =  -1.9612309361762E-01
(PID.TID 0000.0001) %MON seaice_vice_mean             =  -3.7794416747282E-02
(PID.TID 0000.0001) %MON seaice_vice_sd               =   6.1057437516186E-02
(PID.TID 0000.0001) %MON seaice_vice_del2             =   6.9481563432590E-03
(PID.TID 0000.0001) %MON seaice_area_max              =   1.0000000000000E+00
(PID.TID 0000.0001) %MON seaice_area_min              =   0.0000000000000E+00
(PID.TID 0000.0001) %MON seaice_area_mean             =   6.2448964134029E-01
(PID.TID 0000.0001) %MON seaice_area_sd               =   4.5884276157193E-01
(PID.TID 0000.0001) %MON seaice_area_del2             =   5.3567607319693E-02
(PID.TID 0000.0001) %MON seaice_heff_max              =   5.5146835059086E-01
(PID.TID 0000.0001) %MON seaice_heff_min              =   0.0000000000000E+00
(PID.TID 0000.0001) %MON seaice_heff_mean             =   1.4217098028067E-01
(PID.TID 0000.0001) %MON seaice_heff_sd               =   1.7417998529730E-01
(PID.TID 0000.0001) %MON seaice_heff_del2             =   1.3240081984406E-02
(PID.TID 0000.0001) %MON seaice_hsnow_max             =   2.0313961711978E-01
(PID.TID 0000.0001) %MON seaice_hsnow_min             =   0.0000000000000E+00
(PID.TID 0000.0001) %MON seaice_hsnow_mean            =   1.1810788894667E-01
(PID.TID 0000.0001) %MON seaice_hsnow_sd              =   9.6917239052198E-02
(PID.TID 0000.0001) %MON seaice_hsnow_del2            =   6.4249667981939E-03
(PID.TID 0000.0001) // =======================================================
(PID.TID 0000.0001) // End MONITOR SEAICE statistics
(PID.TID 0000.0001) // =======================================================
(PID.TID 0000.0001) // =======================================================
(PID.TID 0000.0001) // Begin MONITOR EXF statistics
(PID.TID 0000.0001) // =======================================================
(PID.TID 0000.0001) %MON exf_tsnumber                 =                     4
(PID.TID 0000.0001) %MON exf_time_sec                 =   1.4400000000000E+04
(PID.TID 0000.0001) %MON exf_ustress_max              =   5.2222749041070E-02
(PID.TID 0000.0001) %MON exf_ustress_min              =  -9.3790194486454E-02
(PID.TID 0000.0001) %MON exf_ustress_mean             =   1.7935665893261E-02
(PID.TID 0000.0001) %MON exf_ustress_sd               =   2.3707713997327E-02
(PID.TID 0000.0001) %MON exf_ustress_del2             =   2.8164265040791E-03
(PID.TID 0000.0001) %MON exf_vstress_max              =   5.3829437114216E-02
(PID.TID 0000.0001) %MON exf_vstress_min              =  -5.8464476572420E-02
(PID.TID 0000.0001) %MON exf_vstress_mean             =  -5.4495370552161E-03
(PID.TID 0000.0001) %MON exf_vstress_sd               =   1.4442680928596E-02
(PID.TID 0000.0001) %MON exf_vstress_del2             =   1.6931343495826E-03
(PID.TID 0000.0001) %MON exf_hflux_max                =   6.2496267398705E+02
(PID.TID 0000.0001) %MON exf_hflux_min                =  -5.1565362842419E+01
(PID.TID 0000.0001) %MON exf_hflux_mean               =   1.4615661304586E+02
(PID.TID 0000.0001) %MON exf_hflux_sd                 =   1.8002235100403E+02
(PID.TID 0000.0001) %MON exf_hflux_del2               =   1.6301998342773E+01
(PID.TID 0000.0001) %MON exf_sflux_max                =   3.9025647077274E-08
(PID.TID 0000.0001) %MON exf_sflux_min                =  -8.8952139751793E-08
(PID.TID 0000.0001) %MON exf_sflux_mean               =  -2.5966971319362E-08
(PID.TID 0000.0001) %MON exf_sflux_sd                 =   3.0361915137207E-08
(PID.TID 0000.0001) %MON exf_sflux_del2               =   3.1623401388023E-09
(PID.TID 0000.0001) %MON exf_uwind_max                =   6.4664043520318E+00
(PID.TID 0000.0001) %MON exf_uwind_min                =  -6.8373452001582E+00
(PID.TID 0000.0001) %MON exf_uwind_mean               =   2.7702029429808E+00
(PID.TID 0000.0001) %MON exf_uwind_sd                 =   2.9911443548250E+00
(PID.TID 0000.0001) %MON exf_uwind_del2               =   3.1574156428286E-01
(PID.TID 0000.0001) %MON exf_vwind_max                =   3.9241889356915E+00
(PID.TID 0000.0001) %MON exf_vwind_min                =  -6.0160797489145E+00
(PID.TID 0000.0001) %MON exf_vwind_mean               =  -7.5842758888917E-01
(PID.TID 0000.0001) %MON exf_vwind_sd                 =   1.7297766046368E+00
(PID.TID 0000.0001) %MON exf_vwind_del2               =   1.9330515345662E-01
(PID.TID 0000.0001) %MON exf_wspeed_max               =   7.8834350500991E+00
(PID.TID 0000.0001) %MON exf_wspeed_min               =   4.5938084481311E-01
(PID.TID 0000.0001) %MON exf_wspeed_mean              =   4.1985322596174E+00
(PID.TID 0000.0001) %MON exf_wspeed_sd                =   1.6001985099325E+00
(PID.TID 0000.0001) %MON exf_wspeed_del2              =   3.7714995543655E-01
(PID.TID 0000.0001) %MON exf_atemp_max                =   2.8187596388853E+02
(PID.TID 0000.0001) %MON exf_atemp_min                =   2.3644390923339E+02
(PID.TID 0000.0001) %MON exf_atemp_mean               =   2.6392748056902E+02
(PID.TID 0000.0001) %MON exf_atemp_sd                 =   1.1989261962284E+01
(PID.TID 0000.0001) %MON exf_atemp_del2               =   6.4949976399731E-01
(PID.TID 0000.0001) %MON exf_aqh_max                  =   6.3203867802223E-03
(PID.TID 0000.0001) %MON exf_aqh_min                  =   1.6331633418045E-04
(PID.TID 0000.0001) %MON exf_aqh_mean                 =   2.4781214845702E-03
(PID.TID 0000.0001) %MON exf_aqh_sd                   =   1.4260952789855E-03
(PID.TID 0000.0001) %MON exf_aqh_del2                 =   6.8087110355054E-05
(PID.TID 0000.0001) %MON exf_lwflux_max               =   1.8154800702574E+02
(PID.TID 0000.0001) %MON exf_lwflux_min               =   2.7104463759519E+01
(PID.TID 0000.0001) %MON exf_lwflux_mean              =   7.5190183469828E+01
(PID.TID 0000.0001) %MON exf_lwflux_sd                =   4.2783226621594E+01
(PID.TID 0000.0001) %MON exf_lwflux_del2              =   3.2333536710256E+00
(PID.TID 0000.0001) %MON exf_precip_max               =   1.0499318877820E-07
(PID.TID 0000.0001) %MON exf_precip_min               =   2.7305928105298E-10
(PID.TID 0000.0001) %MON exf_precip_mean              =   3.6390037166947E-08
(PID.TID 0000.0001) %MON exf_precip_sd                =   2.0579953834835E-08
(PID.TID 0000.0001) %MON exf_precip_del2              =   2.5572657585019E-09
(PID.TID 0000.0001) %MON exf_snowprecip_max           =   0.0000000000000E+00
(PID.TID 0000.0001) %MON exf_snowprecip_min           =   0.0000000000000E+00
(PID.TID 0000.0001) %MON exf_snowprecip_mean          =   0.0000000000000E+00
(PID.TID 0000.0001) %MON exf_snowprecip_sd            =   0.0000000000000E+00
(PID.TID 0000.0001) %MON exf_snowprecip_del2          =   0.0000000000000E+00
(PID.TID 0000.0001) %MON exf_swflux_max               =  -8.1206886983309E-02
(PID.TID 0000.0001) %MON exf_swflux_min               =  -6.4048595415960E+01
(PID.TID 0000.0001) %MON exf_swflux_mean              =  -2.6495351886448E+01
(PID.TID 0000.0001) %MON exf_swflux_sd                =   1.9641247100083E+01
(PID.TID 0000.0001) %MON exf_swflux_del2              =   4.7944026133668E-01
(PID.TID 0000.0001) %MON exf_evap_max                 =   4.5347204057645E-08
(PID.TID 0000.0001) %MON exf_evap_min                 =  -4.2663929287204E-09
(PID.TID 0000.0001) %MON exf_evap_mean                =   1.0423065847585E-08
(PID.TID 0000.0001) %MON exf_evap_sd                  =   1.1085437744530E-08
(PID.TID 0000.0001) %MON exf_evap_del2                =   1.3323750975167E-09
(PID.TID 0000.0001) %MON exf_swdown_max               =   7.1165106017733E+01
(PID.TID 0000.0001) %MON exf_swdown_min               =   9.0229874425898E-02
(PID.TID 0000.0001) %MON exf_swdown_mean              =   2.9439279873831E+01
(PID.TID 0000.0001) %MON exf_swdown_sd                =   2.1823607888981E+01
(PID.TID 0000.0001) %MON exf_swdown_del2              =   5.3271140148521E-01
(PID.TID 0000.0001) %MON exf_lwdown_max               =   3.0564441368228E+02
(PID.TID 0000.0001) %MON exf_lwdown_min               =   1.1593726459357E+02
(PID.TID 0000.0001) %MON exf_lwdown_mean              =   2.2588648764287E+02
(PID.TID 0000.0001) %MON exf_lwdown_sd                =   4.6293313753333E+01
(PID.TID 0000.0001) %MON exf_lwdown_del2              =   3.2438678569828E+00
(PID.TID 0000.0001) %MON exf_apressure_max            =   0.0000000000000E+00
(PID.TID 0000.0001) %MON exf_apressure_min            =   0.0000000000000E+00
(PID.TID 0000.0001) %MON exf_apressure_mean           =   0.0000000000000E+00
(PID.TID 0000.0001) %MON exf_apressure_sd             =   0.0000000000000E+00
(PID.TID 0000.0001) %MON exf_apressure_del2           =   0.0000000000000E+00
(PID.TID 0000.0001) %MON exf_runoff_max               =   0.0000000000000E+00
(PID.TID 0000.0001) %MON exf_runoff_min               =   0.0000000000000E+00
(PID.TID 0000.0001) %MON exf_runoff_mean              =   0.0000000000000E+00
(PID.TID 0000.0001) %MON exf_runoff_sd                =   0.0000000000000E+00
(PID.TID 0000.0001) %MON exf_runoff_del2              =   0.0000000000000E+00
(PID.TID 0000.0001) %MON exf_climsst_max              =   0.0000000000000E+00
(PID.TID 0000.0001) %MON exf_climsst_min              =   0.0000000000000E+00
(PID.TID 0000.0001) %MON exf_climsst_mean             =   0.0000000000000E+00
(PID.TID 0000.0001) %MON exf_climsst_sd               =   0.0000000000000E+00
(PID.TID 0000.0001) %MON exf_climsst_del2             =   0.0000000000000E+00
(PID.TID 0000.0001) %MON exf_climsss_max              =   3.5041069874998E+01
(PID.TID 0000.0001) %MON exf_climsss_min              =   3.0669350483378E+01
(PID.TID 0000.0001) %MON exf_climsss_mean             =   3.3461404934907E+01
(PID.TID 0000.0001) %MON exf_climsss_sd               =   1.0316695849659E+00
(PID.TID 0000.0001) %MON exf_climsss_del2             =   1.0012504429982E-01
(PID.TID 0000.0001) // =======================================================
(PID.TID 0000.0001) // End MONITOR EXF statistics
(PID.TID 0000.0001) // =======================================================
 ph-ice B  4  0.  0.  0.
 ph-ice C  4  2.55604504E+11
 cg2d: Sum(rhs),rhsMax =   3.22657728937803E-08  1.20538351472326E+00
(PID.TID 0000.0001) // =======================================================
(PID.TID 0000.0001) // Begin MONITOR SEAICE statistics
(PID.TID 0000.0001) // =======================================================
(PID.TID 0000.0001) %MON seaice_tsnumber              =                     5
(PID.TID 0000.0001) %MON seaice_time_sec              =   1.8000000000000E+04
(PID.TID 0000.0001) %MON seaice_uice_max              =   2.1945386211045E-01
(PID.TID 0000.0001) %MON seaice_uice_min              =  -1.0939009902189E-01
(PID.TID 0000.0001) %MON seaice_uice_mean             =   8.3081274941245E-02
(PID.TID 0000.0001) %MON seaice_uice_sd               =   8.3462882216852E-02
(PID.TID 0000.0001) %MON seaice_uice_del2             =   1.0024722456314E-02
(PID.TID 0000.0001) %MON seaice_vice_max              =   1.0086663993450E-01
(PID.TID 0000.0001) %MON seaice_vice_min              =  -1.9808188876161E-01
(PID.TID 0000.0001) %MON seaice_vice_mean             =  -4.6968654088801E-02
(PID.TID 0000.0001) %MON seaice_vice_sd               =   6.7920790367370E-02
(PID.TID 0000.0001) %MON seaice_vice_del2             =   7.5957086769889E-03
(PID.TID 0000.0001) %MON seaice_area_max              =   1.0000000000000E+00
(PID.TID 0000.0001) %MON seaice_area_min              =   0.0000000000000E+00
(PID.TID 0000.0001) %MON seaice_area_mean             =   6.2430150051163E-01
(PID.TID 0000.0001) %MON seaice_area_sd               =   4.5848056987967E-01
(PID.TID 0000.0001) %MON seaice_area_del2             =   5.3615010685633E-02
(PID.TID 0000.0001) %MON seaice_heff_max              =   5.4903937822394E-01
(PID.TID 0000.0001) %MON seaice_heff_min              =   0.0000000000000E+00
(PID.TID 0000.0001) %MON seaice_heff_mean             =   1.4223714164698E-01
(PID.TID 0000.0001) %MON seaice_heff_sd               =   1.7414909819585E-01
(PID.TID 0000.0001) %MON seaice_heff_del2             =   1.3251332107639E-02
(PID.TID 0000.0001) %MON seaice_hsnow_max             =   2.0392476353420E-01
(PID.TID 0000.0001) %MON seaice_hsnow_min             =   0.0000000000000E+00
(PID.TID 0000.0001) %MON seaice_hsnow_mean            =   1.1825099134290E-01
(PID.TID 0000.0001) %MON seaice_hsnow_sd              =   9.7044356049326E-02
(PID.TID 0000.0001) %MON seaice_hsnow_del2            =   6.4762509719051E-03
(PID.TID 0000.0001) // =======================================================
(PID.TID 0000.0001) // End MONITOR SEAICE statistics
(PID.TID 0000.0001) // =======================================================
(PID.TID 0000.0001) // =======================================================
(PID.TID 0000.0001) // Begin MONITOR EXF statistics
(PID.TID 0000.0001) // =======================================================
(PID.TID 0000.0001) %MON exf_tsnumber                 =                     5
(PID.TID 0000.0001) %MON exf_time_sec                 =   1.8000000000000E+04
(PID.TID 0000.0001) %MON exf_ustress_max              =   5.2230884117616E-02
(PID.TID 0000.0001) %MON exf_ustress_min              =  -9.3792692313509E-02
(PID.TID 0000.0001) %MON exf_ustress_mean             =   1.7944942221186E-02
(PID.TID 0000.0001) %MON exf_ustress_sd               =   2.3713965276769E-02
(PID.TID 0000.0001) %MON exf_ustress_del2             =   2.8173043689768E-03
(PID.TID 0000.0001) %MON exf_vstress_max              =   5.3831073859948E-02
(PID.TID 0000.0001) %MON exf_vstress_min              =  -5.8456785540594E-02
(PID.TID 0000.0001) %MON exf_vstress_mean             =  -5.4464507937751E-03
(PID.TID 0000.0001) %MON exf_vstress_sd               =   1.4444945374067E-02
(PID.TID 0000.0001) %MON exf_vstress_del2             =   1.6932731229194E-03
(PID.TID 0000.0001) %MON exf_hflux_max                =   6.2503361232608E+02
(PID.TID 0000.0001) %MON exf_hflux_min                =  -5.1451597518261E+01
(PID.TID 0000.0001) %MON exf_hflux_mean               =   1.4623261259621E+02
(PID.TID 0000.0001) %MON exf_hflux_sd                 =   1.8002328648361E+02
(PID.TID 0000.0001) %MON exf_hflux_del2               =   1.6301002002693E+01
(PID.TID 0000.0001) %MON exf_sflux_max                =   3.9028023656350E-08
(PID.TID 0000.0001) %MON exf_sflux_min                =  -8.8915527500304E-08
(PID.TID 0000.0001) %MON exf_sflux_mean               =  -2.5958892679214E-08
(PID.TID 0000.0001) %MON exf_sflux_sd                 =   3.0357858206220E-08
(PID.TID 0000.0001) %MON exf_sflux_del2               =   3.1625233626398E-09
(PID.TID 0000.0001) %MON exf_uwind_max                =   6.4669118044806E+00
(PID.TID 0000.0001) %MON exf_uwind_min                =  -6.8373719818605E+00
(PID.TID 0000.0001) %MON exf_uwind_mean               =   2.7703104953252E+00
(PID.TID 0000.0001) %MON exf_uwind_sd                 =   2.9914204817202E+00
(PID.TID 0000.0001) %MON exf_uwind_del2               =   3.1574946850541E-01
(PID.TID 0000.0001) %MON exf_vwind_max                =   3.9242191164871E+00
(PID.TID 0000.0001) %MON exf_vwind_min                =  -6.0151738390896E+00
(PID.TID 0000.0001) %MON exf_vwind_mean               =  -7.5780981579906E-01
(PID.TID 0000.0001) %MON exf_vwind_sd                 =   1.7298850990135E+00
(PID.TID 0000.0001) %MON exf_vwind_del2               =   1.9329828211469E-01
(PID.TID 0000.0001) %MON exf_wspeed_max               =   7.8834733013142E+00
(PID.TID 0000.0001) %MON exf_wspeed_min               =   4.5913801314248E-01
(PID.TID 0000.0001) %MON exf_wspeed_mean              =   4.1986352194932E+00
(PID.TID 0000.0001) %MON exf_wspeed_sd                =   1.6004553118739E+00
(PID.TID 0000.0001) %MON exf_wspeed_del2              =   3.7720325813743E-01
(PID.TID 0000.0001) %MON exf_atemp_max                =   2.8187425173567E+02
(PID.TID 0000.0001) %MON exf_atemp_min                =   2.3643944426573E+02
(PID.TID 0000.0001) %MON exf_atemp_mean               =   2.6392283648761E+02
(PID.TID 0000.0001) %MON exf_atemp_sd                 =   1.1990724447757E+01
(PID.TID 0000.0001) %MON exf_atemp_del2               =   6.4951909832753E-01
(PID.TID 0000.0001) %MON exf_aqh_max                  =   6.3196902393613E-03
(PID.TID 0000.0001) %MON exf_aqh_min                  =   1.6322223068205E-04
(PID.TID 0000.0001) %MON exf_aqh_mean                 =   2.4775611281656E-03
(PID.TID 0000.0001) %MON exf_aqh_sd                   =   1.4259923191659E-03
(PID.TID 0000.0001) %MON exf_aqh_del2                 =   6.8073442793907E-05
(PID.TID 0000.0001) %MON exf_lwflux_max               =   1.8156112611884E+02
(PID.TID 0000.0001) %MON exf_lwflux_min               =   2.7075633020329E+01
(PID.TID 0000.0001) %MON exf_lwflux_mean              =   7.5214632527674E+01
(PID.TID 0000.0001) %MON exf_lwflux_sd                =   4.2777639573537E+01
(PID.TID 0000.0001) %MON exf_lwflux_del2              =   3.2323852521635E+00
(PID.TID 0000.0001) %MON exf_precip_max               =   1.0499457022082E-07
(PID.TID 0000.0001) %MON exf_precip_min               =   2.7292535458031E-10
(PID.TID 0000.0001) %MON exf_precip_mean              =   3.6390026322913E-08
(PID.TID 0000.0001) %MON exf_precip_sd                =   2.0580406889746E-08
(PID.TID 0000.0001) %MON exf_precip_del2              =   2.5577934516916E-09
(PID.TID 0000.0001) %MON exf_snowprecip_max           =   0.0000000000000E+00
(PID.TID 0000.0001) %MON exf_snowprecip_min           =   0.0000000000000E+00
(PID.TID 0000.0001) %MON exf_snowprecip_mean          =   0.0000000000000E+00
(PID.TID 0000.0001) %MON exf_snowprecip_sd            =   0.0000000000000E+00
(PID.TID 0000.0001) %MON exf_snowprecip_del2          =   0.0000000000000E+00
(PID.TID 0000.0001) %MON exf_swflux_max               =  -8.1207169861090E-02
(PID.TID 0000.0001) %MON exf_swflux_min               =  -6.4067465766532E+01
(PID.TID 0000.0001) %MON exf_swflux_mean              =  -2.6505884102323E+01
(PID.TID 0000.0001) %MON exf_swflux_sd                =   1.9645085084315E+01
(PID.TID 0000.0001) %MON exf_swflux_del2              =   4.7954713528264E-01
(PID.TID 0000.0001) %MON exf_evap_max                 =   4.5348917925791E-08
(PID.TID 0000.0001) %MON exf_evap_min                 =  -4.2424751701923E-09
(PID.TID 0000.0001) %MON exf_evap_mean                =   1.0431133643700E-08
(PID.TID 0000.0001) %MON exf_evap_sd                  =   1.1081500379882E-08
(PID.TID 0000.0001) %MON exf_evap_del2                =   1.3323462875335E-09
(PID.TID 0000.0001) %MON exf_swdown_max               =   7.1186073073924E+01
(PID.TID 0000.0001) %MON exf_swdown_min               =   9.0230188734544E-02
(PID.TID 0000.0001) %MON exf_swdown_mean              =   2.9450982335914E+01
(PID.TID 0000.0001) %MON exf_swdown_sd                =   2.1827872315905E+01
(PID.TID 0000.0001) %MON exf_swdown_del2              =   5.3283015031405E-01
(PID.TID 0000.0001) %MON exf_lwdown_max               =   3.0563558759846E+02
(PID.TID 0000.0001) %MON exf_lwdown_min               =   1.1592215771493E+02
(PID.TID 0000.0001) %MON exf_lwdown_mean              =   2.2587078031381E+02
(PID.TID 0000.0001) %MON exf_lwdown_sd                =   4.6297287802066E+01
(PID.TID 0000.0001) %MON exf_lwdown_del2              =   3.2438794970556E+00
(PID.TID 0000.0001) %MON exf_apressure_max            =   0.0000000000000E+00
(PID.TID 0000.0001) %MON exf_apressure_min            =   0.0000000000000E+00
(PID.TID 0000.0001) %MON exf_apressure_mean           =   0.0000000000000E+00
(PID.TID 0000.0001) %MON exf_apressure_sd             =   0.0000000000000E+00
(PID.TID 0000.0001) %MON exf_apressure_del2           =   0.0000000000000E+00
(PID.TID 0000.0001) %MON exf_runoff_max               =   0.0000000000000E+00
(PID.TID 0000.0001) %MON exf_runoff_min               =   0.0000000000000E+00
(PID.TID 0000.0001) %MON exf_runoff_mean              =   0.0000000000000E+00
(PID.TID 0000.0001) %MON exf_runoff_sd                =   0.0000000000000E+00
(PID.TID 0000.0001) %MON exf_runoff_del2              =   0.0000000000000E+00
(PID.TID 0000.0001) %MON exf_climsst_max              =   0.0000000000000E+00
(PID.TID 0000.0001) %MON exf_climsst_min              =   0.0000000000000E+00
(PID.TID 0000.0001) %MON exf_climsst_mean             =   0.0000000000000E+00
(PID.TID 0000.0001) %MON exf_climsst_sd               =   0.0000000000000E+00
(PID.TID 0000.0001) %MON exf_climsst_del2             =   0.0000000000000E+00
(PID.TID 0000.0001) %MON exf_climsss_max              =   3.5041254622037E+01
(PID.TID 0000.0001) %MON exf_climsss_min              =   3.0670109811376E+01
(PID.TID 0000.0001) %MON exf_climsss_mean             =   3.3461926268386E+01
(PID.TID 0000.0001) %MON exf_climsss_sd               =   1.0315988331065E+00
(PID.TID 0000.0001) %MON exf_climsss_del2             =   1.0010781500943E-01
(PID.TID 0000.0001) // =======================================================
(PID.TID 0000.0001) // End MONITOR EXF statistics
(PID.TID 0000.0001) // =======================================================
 ph-ice B  5  0.  0.  0.
 ph-ice C  5  3.06281747E+11
 cg2d: Sum(rhs),rhsMax =   3.20075538330633E-08  1.19996672428414E+00
(PID.TID 0000.0001) // =======================================================
(PID.TID 0000.0001) // Begin MONITOR SEAICE statistics
(PID.TID 0000.0001) // =======================================================
(PID.TID 0000.0001) %MON seaice_tsnumber              =                     6
(PID.TID 0000.0001) %MON seaice_time_sec              =   2.1600000000000E+04
(PID.TID 0000.0001) %MON seaice_uice_max              =   2.3992786689703E-01
(PID.TID 0000.0001) %MON seaice_uice_min              =  -1.0534849502410E-01
(PID.TID 0000.0001) %MON seaice_uice_mean             =   8.0981032773414E-02
(PID.TID 0000.0001) %MON seaice_uice_sd               =   8.5694125561203E-02
(PID.TID 0000.0001) %MON seaice_uice_del2             =   1.0079223673554E-02
(PID.TID 0000.0001) %MON seaice_vice_max              =   9.8351447680405E-02
(PID.TID 0000.0001) %MON seaice_vice_min              =  -2.1228924531002E-01
(PID.TID 0000.0001) %MON seaice_vice_mean             =  -5.4937550756740E-02
(PID.TID 0000.0001) %MON seaice_vice_sd               =   7.2061965513206E-02
(PID.TID 0000.0001) %MON seaice_vice_del2             =   8.0226606876960E-03
(PID.TID 0000.0001) %MON seaice_area_max              =   1.0000000000000E+00
(PID.TID 0000.0001) %MON seaice_area_min              =   0.0000000000000E+00
(PID.TID 0000.0001) %MON seaice_area_mean             =   6.2417688245640E-01
(PID.TID 0000.0001) %MON seaice_area_sd               =   4.5808407047433E-01
(PID.TID 0000.0001) %MON seaice_area_del2             =   5.3631206500646E-02
(PID.TID 0000.0001) %MON seaice_heff_max              =   5.4790358803114E-01
(PID.TID 0000.0001) %MON seaice_heff_min              =   0.0000000000000E+00
(PID.TID 0000.0001) %MON seaice_heff_mean             =   1.4225473812203E-01
(PID.TID 0000.0001) %MON seaice_heff_sd               =   1.7422533342792E-01
(PID.TID 0000.0001) %MON seaice_heff_del2             =   1.3241155823855E-02
(PID.TID 0000.0001) %MON seaice_hsnow_max             =   2.0470995401277E-01
(PID.TID 0000.0001) %MON seaice_hsnow_min             =   0.0000000000000E+00
(PID.TID 0000.0001) %MON seaice_hsnow_mean            =   1.1841143347152E-01
(PID.TID 0000.0001) %MON seaice_hsnow_sd              =   9.7165681940040E-02
(PID.TID 0000.0001) %MON seaice_hsnow_del2            =   6.5148328853707E-03
(PID.TID 0000.0001) // =======================================================
(PID.TID 0000.0001) // End MONITOR SEAICE statistics
(PID.TID 0000.0001) // =======================================================
(PID.TID 0000.0001) // =======================================================
(PID.TID 0000.0001) // Begin MONITOR EXF statistics
(PID.TID 0000.0001) // =======================================================
(PID.TID 0000.0001) %MON exf_tsnumber                 =                     6
(PID.TID 0000.0001) %MON exf_time_sec                 =   2.1600000000000E+04
(PID.TID 0000.0001) %MON exf_ustress_max              =   5.2237984457527E-02
(PID.TID 0000.0001) %MON exf_ustress_min              =  -9.3794680426843E-02
(PID.TID 0000.0001) %MON exf_ustress_mean             =   1.7953014161978E-02
(PID.TID 0000.0001) %MON exf_ustress_sd               =   2.3720088724477E-02
(PID.TID 0000.0001) %MON exf_ustress_del2             =   2.8182299460509E-03
(PID.TID 0000.0001) %MON exf_vstress_max              =   5.3832418070363E-02
(PID.TID 0000.0001) %MON exf_vstress_min              =  -5.8451170700639E-02
(PID.TID 0000.0001) %MON exf_vstress_mean             =  -5.4433694519439E-03
(PID.TID 0000.0001) %MON exf_vstress_sd               =   1.4447187865002E-02
(PID.TID 0000.0001) %MON exf_vstress_del2             =   1.6932778515010E-03
(PID.TID 0000.0001) %MON exf_hflux_max                =   6.2507220073319E+02
(PID.TID 0000.0001) %MON exf_hflux_min                =  -5.1351197173641E+01
(PID.TID 0000.0001) %MON exf_hflux_mean               =   1.4630888000413E+02
(PID.TID 0000.0001) %MON exf_hflux_sd                 =   1.8003248169654E+02
(PID.TID 0000.0001) %MON exf_hflux_del2               =   1.6303859929719E+01
(PID.TID 0000.0001) %MON exf_sflux_max                =   3.9026275524028E-08
(PID.TID 0000.0001) %MON exf_sflux_min                =  -8.8868954898637E-08
(PID.TID 0000.0001) %MON exf_sflux_mean               =  -2.5950949911758E-08
(PID.TID 0000.0001) %MON exf_sflux_sd                 =   3.0354687573697E-08
(PID.TID 0000.0001) %MON exf_sflux_del2               =   3.1631191562604E-09
(PID.TID 0000.0001) %MON exf_uwind_max                =   6.4674192569295E+00
(PID.TID 0000.0001) %MON exf_uwind_min                =  -6.8373987635628E+00
(PID.TID 0000.0001) %MON exf_uwind_mean               =   2.7704180476696E+00
(PID.TID 0000.0001) %MON exf_uwind_sd                 =   2.9916966488382E+00
(PID.TID 0000.0001) %MON exf_uwind_del2               =   3.1575737272796E-01
(PID.TID 0000.0001) %MON exf_vwind_max                =   3.9242492972827E+00
(PID.TID 0000.0001) %MON exf_vwind_min                =  -6.0142679292648E+00
(PID.TID 0000.0001) %MON exf_vwind_mean               =  -7.5719204270894E-01
(PID.TID 0000.0001) %MON exf_vwind_sd                 =   1.7299937065642E+00
(PID.TID 0000.0001) %MON exf_vwind_del2               =   1.9329141077275E-01
(PID.TID 0000.0001) %MON exf_wspeed_max               =   7.8835115525503E+00
(PID.TID 0000.0001) %MON exf_wspeed_min               =   4.5889518386928E-01
(PID.TID 0000.0001) %MON exf_wspeed_mean              =   4.1987383082859E+00
(PID.TID 0000.0001) %MON exf_wspeed_sd                =   1.6007122259633E+00
(PID.TID 0000.0001) %MON exf_wspeed_del2              =   3.7725655435875E-01
(PID.TID 0000.0001) %MON exf_atemp_max                =   2.8187253958280E+02
(PID.TID 0000.0001) %MON exf_atemp_min                =   2.3643497929808E+02
(PID.TID 0000.0001) %MON exf_atemp_mean               =   2.6391819240620E+02
(PID.TID 0000.0001) %MON exf_atemp_sd                 =   1.1992187420328E+01
(PID.TID 0000.0001) %MON exf_atemp_del2               =   6.4953843265774E-01
(PID.TID 0000.0001) %MON exf_aqh_max                  =   6.3189936985002E-03
(PID.TID 0000.0001) %MON exf_aqh_min                  =   1.6312812718364E-04
(PID.TID 0000.0001) %MON exf_aqh_mean                 =   2.4770007717611E-03
(PID.TID 0000.0001) %MON exf_aqh_sd                   =   1.4258893952382E-03
(PID.TID 0000.0001) %MON exf_aqh_del2                 =   6.8059775232760E-05
(PID.TID 0000.0001) %MON exf_lwflux_max               =   1.8157457967830E+02
(PID.TID 0000.0001) %MON exf_lwflux_min               =   2.7062314427731E+01
(PID.TID 0000.0001) %MON exf_lwflux_mean              =   7.5238104828418E+01
(PID.TID 0000.0001) %MON exf_lwflux_sd                =   4.2774669461689E+01
(PID.TID 0000.0001) %MON exf_lwflux_del2              =   3.2322314491897E+00
(PID.TID 0000.0001) %MON exf_precip_max               =   1.0499595166344E-07
(PID.TID 0000.0001) %MON exf_precip_min               =   2.7279142810763E-10
(PID.TID 0000.0001) %MON exf_precip_mean              =   3.6390015478879E-08
(PID.TID 0000.0001) %MON exf_precip_sd                =   2.0580860600171E-08
(PID.TID 0000.0001) %MON exf_precip_del2              =   2.5583211448813E-09
(PID.TID 0000.0001) %MON exf_snowprecip_max           =   0.0000000000000E+00
(PID.TID 0000.0001) %MON exf_snowprecip_min           =   0.0000000000000E+00
(PID.TID 0000.0001) %MON exf_snowprecip_mean          =   0.0000000000000E+00
(PID.TID 0000.0001) %MON exf_snowprecip_sd            =   0.0000000000000E+00
(PID.TID 0000.0001) %MON exf_snowprecip_del2          =   0.0000000000000E+00
(PID.TID 0000.0001) %MON exf_swflux_max               =  -8.1207452738871E-02
(PID.TID 0000.0001) %MON exf_swflux_min               =  -6.4086336117103E+01
(PID.TID 0000.0001) %MON exf_swflux_mean              =  -2.6516416318198E+01
(PID.TID 0000.0001) %MON exf_swflux_sd                =   1.9648923659484E+01
(PID.TID 0000.0001) %MON exf_swflux_del2              =   4.7965400922860E-01
(PID.TID 0000.0001) %MON exf_evap_max                 =   4.5346507082538E-08
(PID.TID 0000.0001) %MON exf_evap_min                 =  -4.2210682142185E-09
(PID.TID 0000.0001) %MON exf_evap_mean                =   1.0439065567120E-08
(PID.TID 0000.0001) %MON exf_evap_sd                  =   1.1078855365128E-08
(PID.TID 0000.0001) %MON exf_evap_del2                =   1.3326491301121E-09
(PID.TID 0000.0001) %MON exf_swdown_max               =   7.1207040130115E+01
(PID.TID 0000.0001) %MON exf_swdown_min               =   9.0230503043190E-02
(PID.TID 0000.0001) %MON exf_swdown_mean              =   2.9462684797997E+01
(PID.TID 0000.0001) %MON exf_swdown_sd                =   2.1832137399427E+01
(PID.TID 0000.0001) %MON exf_swdown_del2              =   5.3294889914289E-01
(PID.TID 0000.0001) %MON exf_lwdown_max               =   3.0562676151463E+02
(PID.TID 0000.0001) %MON exf_lwdown_min               =   1.1590705083628E+02
(PID.TID 0000.0001) %MON exf_lwdown_mean              =   2.2585507298474E+02
(PID.TID 0000.0001) %MON exf_lwdown_sd                =   4.6301263017486E+01
(PID.TID 0000.0001) %MON exf_lwdown_del2              =   3.2438911371283E+00
(PID.TID 0000.0001) %MON exf_apressure_max            =   0.0000000000000E+00
(PID.TID 0000.0001) %MON exf_apressure_min            =   0.0000000000000E+00
(PID.TID 0000.0001) %MON exf_apressure_mean           =   0.0000000000000E+00
(PID.TID 0000.0001) %MON exf_apressure_sd             =   0.0000000000000E+00
(PID.TID 0000.0001) %MON exf_apressure_del2           =   0.0000000000000E+00
(PID.TID 0000.0001) %MON exf_runoff_max               =   0.0000000000000E+00
(PID.TID 0000.0001) %MON exf_runoff_min               =   0.0000000000000E+00
(PID.TID 0000.0001) %MON exf_runoff_mean              =   0.0000000000000E+00
(PID.TID 0000.0001) %MON exf_runoff_sd                =   0.0000000000000E+00
(PID.TID 0000.0001) %MON exf_runoff_del2              =   0.0000000000000E+00
(PID.TID 0000.0001) %MON exf_climsst_max              =   0.0000000000000E+00
(PID.TID 0000.0001) %MON exf_climsst_min              =   0.0000000000000E+00
(PID.TID 0000.0001) %MON exf_climsst_mean             =   0.0000000000000E+00
(PID.TID 0000.0001) %MON exf_climsst_sd               =   0.0000000000000E+00
(PID.TID 0000.0001) %MON exf_climsst_del2             =   0.0000000000000E+00
(PID.TID 0000.0001) %MON exf_climsss_max              =   3.5041439369077E+01
(PID.TID 0000.0001) %MON exf_climsss_min              =   3.0670869139374E+01
(PID.TID 0000.0001) %MON exf_climsss_mean             =   3.3462447601866E+01
(PID.TID 0000.0001) %MON exf_climsss_sd               =   1.0315283113566E+00
(PID.TID 0000.0001) %MON exf_climsss_del2             =   1.0009058571904E-01
(PID.TID 0000.0001) // =======================================================
(PID.TID 0000.0001) // End MONITOR EXF statistics
(PID.TID 0000.0001) // =======================================================
 ph-ice B  6  0.  0.  0.
 ph-ice C  6  3.56943251E+11
 cg2d: Sum(rhs),rhsMax =   3.26978109484177E-08  1.19247381787307E+00
(PID.TID 0000.0001) // =======================================================
(PID.TID 0000.0001) // Begin MONITOR SEAICE statistics
(PID.TID 0000.0001) // =======================================================
(PID.TID 0000.0001) %MON seaice_tsnumber              =                     7
(PID.TID 0000.0001) %MON seaice_time_sec              =   2.5200000000000E+04
(PID.TID 0000.0001) %MON seaice_uice_max              =   2.5685627004168E-01
(PID.TID 0000.0001) %MON seaice_uice_min              =  -9.7750591653372E-02
(PID.TID 0000.0001) %MON seaice_uice_mean             =   7.6055091037345E-02
(PID.TID 0000.0001) %MON seaice_uice_sd               =   8.5421401565875E-02
(PID.TID 0000.0001) %MON seaice_uice_del2             =   9.6583210684613E-03
(PID.TID 0000.0001) %MON seaice_vice_max              =   9.3826162071154E-02
(PID.TID 0000.0001) %MON seaice_vice_min              =  -2.2536421281571E-01
(PID.TID 0000.0001) %MON seaice_vice_mean             =  -6.0012361982261E-02
(PID.TID 0000.0001) %MON seaice_vice_sd               =   7.2852925550072E-02
(PID.TID 0000.0001) %MON seaice_vice_del2             =   8.1656071615414E-03
(PID.TID 0000.0001) %MON seaice_area_max              =   1.0000000000000E+00
(PID.TID 0000.0001) %MON seaice_area_min              =   0.0000000000000E+00
(PID.TID 0000.0001) %MON seaice_area_mean             =   6.2408688377149E-01
(PID.TID 0000.0001) %MON seaice_area_sd               =   4.5772399505260E-01
(PID.TID 0000.0001) %MON seaice_area_del2             =   5.3629429017412E-02
(PID.TID 0000.0001) %MON seaice_heff_max              =   5.4815057630941E-01
(PID.TID 0000.0001) %MON seaice_heff_min              =   0.0000000000000E+00
(PID.TID 0000.0001) %MON seaice_heff_mean             =   1.4221056009947E-01
(PID.TID 0000.0001) %MON seaice_heff_sd               =   1.7437188395054E-01
(PID.TID 0000.0001) %MON seaice_heff_del2             =   1.3220465104962E-02
(PID.TID 0000.0001) %MON seaice_hsnow_max             =   2.0549515084231E-01
(PID.TID 0000.0001) %MON seaice_hsnow_min             =   0.0000000000000E+00
(PID.TID 0000.0001) %MON seaice_hsnow_mean            =   1.1857184786145E-01
(PID.TID 0000.0001) %MON seaice_hsnow_sd              =   9.7287286137357E-02
(PID.TID 0000.0001) %MON seaice_hsnow_del2            =   6.5537586344426E-03
(PID.TID 0000.0001) // =======================================================
(PID.TID 0000.0001) // End MONITOR SEAICE statistics
(PID.TID 0000.0001) // =======================================================
(PID.TID 0000.0001) // =======================================================
(PID.TID 0000.0001) // Begin MONITOR EXF statistics
(PID.TID 0000.0001) // =======================================================
(PID.TID 0000.0001) %MON exf_tsnumber                 =                     7
(PID.TID 0000.0001) %MON exf_time_sec                 =   2.5200000000000E+04
(PID.TID 0000.0001) %MON exf_ustress_max              =   5.2243932822035E-02
(PID.TID 0000.0001) %MON exf_ustress_min              =  -9.3796695311271E-02
(PID.TID 0000.0001) %MON exf_ustress_mean             =   1.7960119233750E-02
(PID.TID 0000.0001) %MON exf_ustress_sd               =   2.3726169385610E-02
(PID.TID 0000.0001) %MON exf_ustress_del2             =   2.8191125752425E-03
(PID.TID 0000.0001) %MON exf_vstress_max              =   5.3833777652831E-02
(PID.TID 0000.0001) %MON exf_vstress_min              =  -5.8440994812813E-02
(PID.TID 0000.0001) %MON exf_vstress_mean             =  -5.4400583406513E-03
(PID.TID 0000.0001) %MON exf_vstress_sd               =   1.4449140522697E-02
(PID.TID 0000.0001) %MON exf_vstress_del2             =   1.6932579967244E-03
(PID.TID 0000.0001) %MON exf_hflux_max                =   6.2511249114524E+02
(PID.TID 0000.0001) %MON exf_hflux_min                =  -5.1292187882422E+01
(PID.TID 0000.0001) %MON exf_hflux_mean               =   1.4638050856747E+02
(PID.TID 0000.0001) %MON exf_hflux_sd                 =   1.8004883872690E+02
(PID.TID 0000.0001) %MON exf_hflux_del2               =   1.6307672338891E+01
(PID.TID 0000.0001) %MON exf_sflux_max                =   3.9024744508746E-08
(PID.TID 0000.0001) %MON exf_sflux_min                =  -8.8844029800221E-08
(PID.TID 0000.0001) %MON exf_sflux_mean               =  -2.5943670744001E-08
(PID.TID 0000.0001) %MON exf_sflux_sd                 =   3.0352936616316E-08
(PID.TID 0000.0001) %MON exf_sflux_del2               =   3.1638761649745E-09
(PID.TID 0000.0001) %MON exf_uwind_max                =   6.4679267093784E+00
(PID.TID 0000.0001) %MON exf_uwind_min                =  -6.8374255452651E+00
(PID.TID 0000.0001) %MON exf_uwind_mean               =   2.7705256000140E+00
(PID.TID 0000.0001) %MON exf_uwind_sd                 =   2.9919728561678E+00
(PID.TID 0000.0001) %MON exf_uwind_del2               =   3.1576527695052E-01
(PID.TID 0000.0001) %MON exf_vwind_max                =   3.9242794780783E+00
(PID.TID 0000.0001) %MON exf_vwind_min                =  -6.0133620194399E+00
(PID.TID 0000.0001) %MON exf_vwind_mean               =  -7.5657426961883E-01
(PID.TID 0000.0001) %MON exf_vwind_sd                 =   1.7301024272674E+00
(PID.TID 0000.0001) %MON exf_vwind_del2               =   1.9328456693798E-01
(PID.TID 0000.0001) %MON exf_wspeed_max               =   7.8835498038073E+00
(PID.TID 0000.0001) %MON exf_wspeed_min               =   4.5865235699732E-01
(PID.TID 0000.0001) %MON exf_wspeed_mean              =   4.1988415259832E+00
(PID.TID 0000.0001) %MON exf_wspeed_sd                =   1.6009692521540E+00
(PID.TID 0000.0001) %MON exf_wspeed_del2              =   3.7730984410389E-01
(PID.TID 0000.0001) %MON exf_atemp_max                =   2.8187082742993E+02
(PID.TID 0000.0001) %MON exf_atemp_min                =   2.3643051433042E+02
(PID.TID 0000.0001) %MON exf_atemp_mean               =   2.6391354832479E+02
(PID.TID 0000.0001) %MON exf_atemp_sd                 =   1.1993650879819E+01
(PID.TID 0000.0001) %MON exf_atemp_del2               =   6.4955776698796E-01
(PID.TID 0000.0001) %MON exf_aqh_max                  =   6.3182971576392E-03
(PID.TID 0000.0001) %MON exf_aqh_min                  =   1.6303402368524E-04
(PID.TID 0000.0001) %MON exf_aqh_mean                 =   2.4764404153565E-03
(PID.TID 0000.0001) %MON exf_aqh_sd                   =   1.4257865072101E-03
(PID.TID 0000.0001) %MON exf_aqh_del2                 =   6.8046107671613E-05
(PID.TID 0000.0001) %MON exf_lwflux_max               =   1.8159055041553E+02
(PID.TID 0000.0001) %MON exf_lwflux_min               =   2.7054912711164E+01
(PID.TID 0000.0001) %MON exf_lwflux_mean              =   7.5259457197265E+01
(PID.TID 0000.0001) %MON exf_lwflux_sd                =   4.2774124863689E+01
(PID.TID 0000.0001) %MON exf_lwflux_del2              =   3.2322906786592E+00
(PID.TID 0000.0001) %MON exf_precip_max               =   1.0499733310606E-07
(PID.TID 0000.0001) %MON exf_precip_min               =   2.7265750163496E-10
(PID.TID 0000.0001) %MON exf_precip_mean              =   3.6390004634845E-08
(PID.TID 0000.0001) %MON exf_precip_sd                =   2.0581314966068E-08
(PID.TID 0000.0001) %MON exf_precip_del2              =   2.5588488380710E-09
(PID.TID 0000.0001) %MON exf_snowprecip_max           =   0.0000000000000E+00
(PID.TID 0000.0001) %MON exf_snowprecip_min           =   0.0000000000000E+00
(PID.TID 0000.0001) %MON exf_snowprecip_mean          =   0.0000000000000E+00
(PID.TID 0000.0001) %MON exf_snowprecip_sd            =   0.0000000000000E+00
(PID.TID 0000.0001) %MON exf_snowprecip_del2          =   0.0000000000000E+00
(PID.TID 0000.0001) %MON exf_swflux_max               =  -8.1207735616653E-02
(PID.TID 0000.0001) %MON exf_swflux_min               =  -6.4105206467675E+01
(PID.TID 0000.0001) %MON exf_swflux_mean              =  -2.6526948534072E+01
(PID.TID 0000.0001) %MON exf_swflux_sd                =   1.9652762825246E+01
(PID.TID 0000.0001) %MON exf_swflux_del2              =   4.7976088317456E-01
(PID.TID 0000.0001) %MON exf_evap_max                 =   4.5344313356326E-08
(PID.TID 0000.0001) %MON exf_evap_min                 =  -4.2074595994260E-09
(PID.TID 0000.0001) %MON exf_evap_mean                =   1.0446333890843E-08
(PID.TID 0000.0001) %MON exf_evap_sd                  =   1.1077267898548E-08
(PID.TID 0000.0001) %MON exf_evap_del2                =   1.3331792542519E-09
(PID.TID 0000.0001) %MON exf_swdown_max               =   7.1228007186306E+01
(PID.TID 0000.0001) %MON exf_swdown_min               =   9.0230817351836E-02
(PID.TID 0000.0001) %MON exf_swdown_mean              =   2.9474387260081E+01
(PID.TID 0000.0001) %MON exf_swdown_sd                =   2.1836403139162E+01
(PID.TID 0000.0001) %MON exf_swdown_del2              =   5.3306764797174E-01
(PID.TID 0000.0001) %MON exf_lwdown_max               =   3.0561793543081E+02
(PID.TID 0000.0001) %MON exf_lwdown_min               =   1.1589194395764E+02
(PID.TID 0000.0001) %MON exf_lwdown_mean              =   2.2583936565568E+02
(PID.TID 0000.0001) %MON exf_lwdown_sd                =   4.6305239399294E+01
(PID.TID 0000.0001) %MON exf_lwdown_del2              =   3.2439027772011E+00
(PID.TID 0000.0001) %MON exf_apressure_max            =   0.0000000000000E+00
(PID.TID 0000.0001) %MON exf_apressure_min            =   0.0000000000000E+00
(PID.TID 0000.0001) %MON exf_apressure_mean           =   0.0000000000000E+00
(PID.TID 0000.0001) %MON exf_apressure_sd             =   0.0000000000000E+00
(PID.TID 0000.0001) %MON exf_apressure_del2           =   0.0000000000000E+00
(PID.TID 0000.0001) %MON exf_runoff_max               =   0.0000000000000E+00
(PID.TID 0000.0001) %MON exf_runoff_min               =   0.0000000000000E+00
(PID.TID 0000.0001) %MON exf_runoff_mean              =   0.0000000000000E+00
(PID.TID 0000.0001) %MON exf_runoff_sd                =   0.0000000000000E+00
(PID.TID 0000.0001) %MON exf_runoff_del2              =   0.0000000000000E+00
(PID.TID 0000.0001) %MON exf_climsst_max              =   0.0000000000000E+00
(PID.TID 0000.0001) %MON exf_climsst_min              =   0.0000000000000E+00
(PID.TID 0000.0001) %MON exf_climsst_mean             =   0.0000000000000E+00
(PID.TID 0000.0001) %MON exf_climsst_sd               =   0.0000000000000E+00
(PID.TID 0000.0001) %MON exf_climsst_del2             =   0.0000000000000E+00
(PID.TID 0000.0001) %MON exf_climsss_max              =   3.5041624116116E+01
(PID.TID 0000.0001) %MON exf_climsss_min              =   3.0671628467372E+01
(PID.TID 0000.0001) %MON exf_climsss_mean             =   3.3462968935345E+01
(PID.TID 0000.0001) %MON exf_climsss_sd               =   1.0314580197633E+00
(PID.TID 0000.0001) %MON exf_climsss_del2             =   1.0007335642865E-01
(PID.TID 0000.0001) // =======================================================
(PID.TID 0000.0001) // End MONITOR EXF statistics
(PID.TID 0000.0001) // =======================================================
 ph-ice B  7  0.  0.  0.
 ph-ice C  7  4.07568606E+11
 cg2d: Sum(rhs),rhsMax =   3.08547296670736E-08  1.18167591259701E+00
(PID.TID 0000.0001) // =======================================================
(PID.TID 0000.0001) // Begin MONITOR SEAICE statistics
(PID.TID 0000.0001) // =======================================================
(PID.TID 0000.0001) %MON seaice_tsnumber              =                     8
(PID.TID 0000.0001) %MON seaice_time_sec              =   2.8800000000000E+04
(PID.TID 0000.0001) %MON seaice_uice_max              =   2.6753592891565E-01
(PID.TID 0000.0001) %MON seaice_uice_min              =  -8.8502450662523E-02
(PID.TID 0000.0001) %MON seaice_uice_mean             =   6.9614026377928E-02
(PID.TID 0000.0001) %MON seaice_uice_sd               =   8.3092537658531E-02
(PID.TID 0000.0001) %MON seaice_uice_del2             =   8.8606356356653E-03
(PID.TID 0000.0001) %MON seaice_vice_max              =   8.6568020776026E-02
(PID.TID 0000.0001) %MON seaice_vice_min              =  -2.2434575854528E-01
(PID.TID 0000.0001) %MON seaice_vice_mean             =  -6.1223604832916E-02
(PID.TID 0000.0001) %MON seaice_vice_sd               =   7.0132394413827E-02
(PID.TID 0000.0001) %MON seaice_vice_del2             =   8.0005932410960E-03
(PID.TID 0000.0001) %MON seaice_area_max              =   1.0000000000000E+00
(PID.TID 0000.0001) %MON seaice_area_min              =   0.0000000000000E+00
(PID.TID 0000.0001) %MON seaice_area_mean             =   6.2402840457919E-01
(PID.TID 0000.0001) %MON seaice_area_sd               =   4.5740421975210E-01
(PID.TID 0000.0001) %MON seaice_area_del2             =   5.3616902749444E-02
(PID.TID 0000.0001) %MON seaice_heff_max              =   5.4845941034736E-01
(PID.TID 0000.0001) %MON seaice_heff_min              =   0.0000000000000E+00
(PID.TID 0000.0001) %MON seaice_heff_mean             =   1.4210908377009E-01
(PID.TID 0000.0001) %MON seaice_heff_sd               =   1.7454241300598E-01
(PID.TID 0000.0001) %MON seaice_heff_del2             =   1.3200139646442E-02
(PID.TID 0000.0001) %MON seaice_hsnow_max             =   2.0628031960974E-01
(PID.TID 0000.0001) %MON seaice_hsnow_min             =   0.0000000000000E+00
(PID.TID 0000.0001) %MON seaice_hsnow_mean            =   1.1873224112578E-01
(PID.TID 0000.0001) %MON seaice_hsnow_sd              =   9.7409172568897E-02
(PID.TID 0000.0001) %MON seaice_hsnow_del2            =   6.5932180732643E-03
(PID.TID 0000.0001) // =======================================================
(PID.TID 0000.0001) // End MONITOR SEAICE statistics
(PID.TID 0000.0001) // =======================================================
(PID.TID 0000.0001) // =======================================================
(PID.TID 0000.0001) // Begin MONITOR EXF statistics
(PID.TID 0000.0001) // =======================================================
(PID.TID 0000.0001) %MON exf_tsnumber                 =                     8
(PID.TID 0000.0001) %MON exf_time_sec                 =   2.8800000000000E+04
(PID.TID 0000.0001) %MON exf_ustress_max              =   5.2249214879179E-02
(PID.TID 0000.0001) %MON exf_ustress_min              =  -9.3798929022906E-02
(PID.TID 0000.0001) %MON exf_ustress_mean             =   1.7966530572536E-02
(PID.TID 0000.0001) %MON exf_ustress_sd               =   2.3731959752782E-02
(PID.TID 0000.0001) %MON exf_ustress_del2             =   2.8199333993608E-03
(PID.TID 0000.0001) %MON exf_vstress_max              =   5.3835262836835E-02
(PID.TID 0000.0001) %MON exf_vstress_min              =  -5.8423863255033E-02
(PID.TID 0000.0001) %MON exf_vstress_mean             =  -5.4366054026261E-03
(PID.TID 0000.0001) %MON exf_vstress_sd               =   1.4450709929089E-02
(PID.TID 0000.0001) %MON exf_vstress_del2             =   1.6932445532595E-03
(PID.TID 0000.0001) %MON exf_hflux_max                =   6.2516667571621E+02
(PID.TID 0000.0001) %MON exf_hflux_min                =  -5.1290005255197E+01
(PID.TID 0000.0001) %MON exf_hflux_mean               =   1.4644480531372E+02
(PID.TID 0000.0001) %MON exf_hflux_sd                 =   1.8007071380454E+02
(PID.TID 0000.0001) %MON exf_hflux_del2               =   1.6310931778453E+01
(PID.TID 0000.0001) %MON exf_sflux_max                =   3.9024984842061E-08
(PID.TID 0000.0001) %MON exf_sflux_min                =  -8.8852274145720E-08
(PID.TID 0000.0001) %MON exf_sflux_mean               =  -2.5937388399399E-08
(PID.TID 0000.0001) %MON exf_sflux_sd                 =   3.0352650727804E-08
(PID.TID 0000.0001) %MON exf_sflux_del2               =   3.1646079502801E-09
(PID.TID 0000.0001) %MON exf_uwind_max                =   6.4684341618272E+00
(PID.TID 0000.0001) %MON exf_uwind_min                =  -6.8374523269674E+00
(PID.TID 0000.0001) %MON exf_uwind_mean               =   2.7706331523584E+00
(PID.TID 0000.0001) %MON exf_uwind_sd                 =   2.9922491036980E+00
(PID.TID 0000.0001) %MON exf_uwind_del2               =   3.1577589455021E-01
(PID.TID 0000.0001) %MON exf_vwind_max                =   3.9243096588739E+00
(PID.TID 0000.0001) %MON exf_vwind_min                =  -6.0124561096150E+00
(PID.TID 0000.0001) %MON exf_vwind_mean               =  -7.5595649652871E-01
(PID.TID 0000.0001) %MON exf_vwind_sd                 =   1.7302112611019E+00
(PID.TID 0000.0001) %MON exf_vwind_del2               =   1.9327792057372E-01
(PID.TID 0000.0001) %MON exf_wspeed_max               =   7.8835880550853E+00
(PID.TID 0000.0001) %MON exf_wspeed_min               =   4.5840953253040E-01
(PID.TID 0000.0001) %MON exf_wspeed_mean              =   4.1989448725728E+00
(PID.TID 0000.0001) %MON exf_wspeed_sd                =   1.6012263903992E+00
(PID.TID 0000.0001) %MON exf_wspeed_del2              =   3.7736312737620E-01
(PID.TID 0000.0001) %MON exf_atemp_max                =   2.8186911527707E+02
(PID.TID 0000.0001) %MON exf_atemp_min                =   2.3642604936277E+02
(PID.TID 0000.0001) %MON exf_atemp_mean               =   2.6390890424337E+02
(PID.TID 0000.0001) %MON exf_atemp_sd                 =   1.1995114826053E+01
(PID.TID 0000.0001) %MON exf_atemp_del2               =   6.4957710131818E-01
(PID.TID 0000.0001) %MON exf_aqh_max                  =   6.3176006167781E-03
(PID.TID 0000.0001) %MON exf_aqh_min                  =   1.6293992018683E-04
(PID.TID 0000.0001) %MON exf_aqh_mean                 =   2.4758800589519E-03
(PID.TID 0000.0001) %MON exf_aqh_sd                   =   1.4256836550895E-03
(PID.TID 0000.0001) %MON exf_aqh_del2                 =   6.8032440110466E-05
(PID.TID 0000.0001) %MON exf_lwflux_max               =   1.8160657786433E+02
(PID.TID 0000.0001) %MON exf_lwflux_min               =   2.7042773770459E+01
(PID.TID 0000.0001) %MON exf_lwflux_mean              =   7.5278557596320E+01
(PID.TID 0000.0001) %MON exf_lwflux_sd                =   4.2775414355122E+01
(PID.TID 0000.0001) %MON exf_lwflux_del2              =   3.2322524639065E+00
(PID.TID 0000.0001) %MON exf_precip_max               =   1.0499871454869E-07
(PID.TID 0000.0001) %MON exf_precip_min               =   2.7252357516229E-10
(PID.TID 0000.0001) %MON exf_precip_mean              =   3.6389993790810E-08
(PID.TID 0000.0001) %MON exf_precip_sd                =   2.0581769987393E-08
(PID.TID 0000.0001) %MON exf_precip_del2              =   2.5593765312607E-09
(PID.TID 0000.0001) %MON exf_snowprecip_max           =   0.0000000000000E+00
(PID.TID 0000.0001) %MON exf_snowprecip_min           =   0.0000000000000E+00
(PID.TID 0000.0001) %MON exf_snowprecip_mean          =   0.0000000000000E+00
(PID.TID 0000.0001) %MON exf_snowprecip_sd            =   0.0000000000000E+00
(PID.TID 0000.0001) %MON exf_snowprecip_del2          =   0.0000000000000E+00
(PID.TID 0000.0001) %MON exf_swflux_max               =  -8.1208018494434E-02
(PID.TID 0000.0001) %MON exf_swflux_min               =  -6.4124076818247E+01
(PID.TID 0000.0001) %MON exf_swflux_mean              =  -2.6537480749947E+01
(PID.TID 0000.0001) %MON exf_swflux_sd                =   1.9656602581253E+01
(PID.TID 0000.0001) %MON exf_swflux_del2              =   4.7986775712052E-01
(PID.TID 0000.0001) %MON exf_evap_max                 =   4.5343890978710E-08
(PID.TID 0000.0001) %MON exf_evap_min                 =  -4.2045649081816E-09
(PID.TID 0000.0001) %MON exf_evap_mean                =   1.0452605391411E-08
(PID.TID 0000.0001) %MON exf_evap_sd                  =   1.1076426598597E-08
(PID.TID 0000.0001) %MON exf_evap_del2                =   1.3336030979328E-09
(PID.TID 0000.0001) %MON exf_swdown_max               =   7.1248974242497E+01
(PID.TID 0000.0001) %MON exf_swdown_min               =   9.0231131660482E-02
(PID.TID 0000.0001) %MON exf_swdown_mean              =   2.9486089722164E+01
(PID.TID 0000.0001) %MON exf_swdown_sd                =   2.1840669534725E+01
(PID.TID 0000.0001) %MON exf_swdown_del2              =   5.3318639680058E-01
(PID.TID 0000.0001) %MON exf_lwdown_max               =   3.0560910934698E+02
(PID.TID 0000.0001) %MON exf_lwdown_min               =   1.1587683707899E+02
(PID.TID 0000.0001) %MON exf_lwdown_mean              =   2.2582365832661E+02
(PID.TID 0000.0001) %MON exf_lwdown_sd                =   4.6309216947189E+01
(PID.TID 0000.0001) %MON exf_lwdown_del2              =   3.2439144172738E+00
(PID.TID 0000.0001) %MON exf_apressure_max            =   0.0000000000000E+00
(PID.TID 0000.0001) %MON exf_apressure_min            =   0.0000000000000E+00
(PID.TID 0000.0001) %MON exf_apressure_mean           =   0.0000000000000E+00
(PID.TID 0000.0001) %MON exf_apressure_sd             =   0.0000000000000E+00
(PID.TID 0000.0001) %MON exf_apressure_del2           =   0.0000000000000E+00
(PID.TID 0000.0001) %MON exf_runoff_max               =   0.0000000000000E+00
(PID.TID 0000.0001) %MON exf_runoff_min               =   0.0000000000000E+00
(PID.TID 0000.0001) %MON exf_runoff_mean              =   0.0000000000000E+00
(PID.TID 0000.0001) %MON exf_runoff_sd                =   0.0000000000000E+00
(PID.TID 0000.0001) %MON exf_runoff_del2              =   0.0000000000000E+00
(PID.TID 0000.0001) %MON exf_climsst_max              =   0.0000000000000E+00
(PID.TID 0000.0001) %MON exf_climsst_min              =   0.0000000000000E+00
(PID.TID 0000.0001) %MON exf_climsst_mean             =   0.0000000000000E+00
(PID.TID 0000.0001) %MON exf_climsst_sd               =   0.0000000000000E+00
(PID.TID 0000.0001) %MON exf_climsst_del2             =   0.0000000000000E+00
(PID.TID 0000.0001) %MON exf_climsss_max              =   3.5041808863155E+01
(PID.TID 0000.0001) %MON exf_climsss_min              =   3.0672387795370E+01
(PID.TID 0000.0001) %MON exf_climsss_mean             =   3.3463490268825E+01
(PID.TID 0000.0001) %MON exf_climsss_sd               =   1.0313879583737E+00
(PID.TID 0000.0001) %MON exf_climsss_del2             =   1.0005612713826E-01
(PID.TID 0000.0001) // =======================================================
(PID.TID 0000.0001) // End MONITOR EXF statistics
(PID.TID 0000.0001) // =======================================================
 ph-ice B  8  0.  0.  0.
 ph-ice C  8  4.5814509E+11
 cg2d: Sum(rhs),rhsMax =   2.95460040773687E-08  1.16732732396036E+00
(PID.TID 0000.0001) // =======================================================
(PID.TID 0000.0001) // Begin MONITOR SEAICE statistics
(PID.TID 0000.0001) // =======================================================
(PID.TID 0000.0001) %MON seaice_tsnumber              =                     9
(PID.TID 0000.0001) %MON seaice_time_sec              =   3.2400000000000E+04
(PID.TID 0000.0001) %MON seaice_uice_max              =   2.6897217781051E-01
(PID.TID 0000.0001) %MON seaice_uice_min              =  -8.0042763881871E-02
(PID.TID 0000.0001) %MON seaice_uice_mean             =   6.2854310557788E-02
(PID.TID 0000.0001) %MON seaice_uice_sd               =   7.9024242659969E-02
(PID.TID 0000.0001) %MON seaice_uice_del2             =   7.8428528181684E-03
(PID.TID 0000.0001) %MON seaice_vice_max              =   7.8808436825531E-02
(PID.TID 0000.0001) %MON seaice_vice_min              =  -2.0876036210593E-01
(PID.TID 0000.0001) %MON seaice_vice_mean             =  -5.8595868055276E-02
(PID.TID 0000.0001) %MON seaice_vice_sd               =   6.4348884106758E-02
(PID.TID 0000.0001) %MON seaice_vice_del2             =   7.5771945822636E-03
(PID.TID 0000.0001) %MON seaice_area_max              =   1.0000000000000E+00
(PID.TID 0000.0001) %MON seaice_area_min              =   0.0000000000000E+00
(PID.TID 0000.0001) %MON seaice_area_mean             =   6.2385269574525E-01
(PID.TID 0000.0001) %MON seaice_area_sd               =   4.5701602821774E-01
(PID.TID 0000.0001) %MON seaice_area_del2             =   5.3473206512019E-02
(PID.TID 0000.0001) %MON seaice_heff_max              =   5.4880172478578E-01
(PID.TID 0000.0001) %MON seaice_heff_min              =   0.0000000000000E+00
(PID.TID 0000.0001) %MON seaice_heff_mean             =   1.4197190314086E-01
(PID.TID 0000.0001) %MON seaice_heff_sd               =   1.7470092919969E-01
(PID.TID 0000.0001) %MON seaice_heff_del2             =   1.3179501691595E-02
(PID.TID 0000.0001) %MON seaice_hsnow_max             =   2.0706544703537E-01
(PID.TID 0000.0001) %MON seaice_hsnow_min             =   0.0000000000000E+00
(PID.TID 0000.0001) %MON seaice_hsnow_mean            =   1.1888097080642E-01
(PID.TID 0000.0001) %MON seaice_hsnow_sd              =   9.7521343290137E-02
(PID.TID 0000.0001) %MON seaice_hsnow_del2            =   6.6252286509079E-03
(PID.TID 0000.0001) // =======================================================
(PID.TID 0000.0001) // End MONITOR SEAICE statistics
(PID.TID 0000.0001) // =======================================================
(PID.TID 0000.0001) // =======================================================
(PID.TID 0000.0001) // Begin MONITOR EXF statistics
(PID.TID 0000.0001) // =======================================================
(PID.TID 0000.0001) %MON exf_tsnumber                 =                     9
(PID.TID 0000.0001) %MON exf_time_sec                 =   3.2400000000000E+04
(PID.TID 0000.0001) %MON exf_ustress_max              =   5.2253931426080E-02
(PID.TID 0000.0001) %MON exf_ustress_min              =  -9.3801402378655E-02
(PID.TID 0000.0001) %MON exf_ustress_mean             =   1.7972511359879E-02
(PID.TID 0000.0001) %MON exf_ustress_sd               =   2.3737463294266E-02
(PID.TID 0000.0001) %MON exf_ustress_del2             =   2.8207098826536E-03
(PID.TID 0000.0001) %MON exf_vstress_max              =   5.3836885571567E-02
(PID.TID 0000.0001) %MON exf_vstress_min              =  -5.8402245562237E-02
(PID.TID 0000.0001) %MON exf_vstress_mean             =  -5.4330595911689E-03
(PID.TID 0000.0001) %MON exf_vstress_sd               =   1.4451995878146E-02
(PID.TID 0000.0001) %MON exf_vstress_del2             =   1.6932504130891E-03
(PID.TID 0000.0001) %MON exf_hflux_max                =   6.2523607820831E+02
(PID.TID 0000.0001) %MON exf_hflux_min                =  -5.1341825216112E+01
(PID.TID 0000.0001) %MON exf_hflux_mean               =   1.4650259457009E+02
(PID.TID 0000.0001) %MON exf_hflux_sd                 =   1.8009643352626E+02
(PID.TID 0000.0001) %MON exf_hflux_del2               =   1.6313485326587E+01
(PID.TID 0000.0001) %MON exf_sflux_max                =   3.9027165063437E-08
(PID.TID 0000.0001) %MON exf_sflux_min                =  -8.8881916036564E-08
(PID.TID 0000.0001) %MON exf_sflux_mean               =  -2.5931978073930E-08
(PID.TID 0000.0001) %MON exf_sflux_sd                 =   3.0353385189226E-08
(PID.TID 0000.0001) %MON exf_sflux_del2               =   3.1652717311214E-09
(PID.TID 0000.0001) %MON exf_uwind_max                =   6.4689416142761E+00
(PID.TID 0000.0001) %MON exf_uwind_min                =  -6.8374791086697E+00
(PID.TID 0000.0001) %MON exf_uwind_mean               =   2.7707407047028E+00
(PID.TID 0000.0001) %MON exf_uwind_sd                 =   2.9925253914175E+00
(PID.TID 0000.0001) %MON exf_uwind_del2               =   3.1578823099586E-01
(PID.TID 0000.0001) %MON exf_vwind_max                =   3.9243398396695E+00
(PID.TID 0000.0001) %MON exf_vwind_min                =  -6.0115501997901E+00
(PID.TID 0000.0001) %MON exf_vwind_mean               =  -7.5533872343860E-01
(PID.TID 0000.0001) %MON exf_vwind_sd                 =   1.7303202080462E+00
(PID.TID 0000.0001) %MON exf_vwind_del2               =   1.9327127420947E-01
(PID.TID 0000.0001) %MON exf_wspeed_max               =   7.8836263063842E+00
(PID.TID 0000.0001) %MON exf_wspeed_min               =   4.5816671047235E-01
(PID.TID 0000.0001) %MON exf_wspeed_mean              =   4.1990483480424E+00
(PID.TID 0000.0001) %MON exf_wspeed_sd                =   1.6014836406520E+00
(PID.TID 0000.0001) %MON exf_wspeed_del2              =   3.7741640417905E-01
(PID.TID 0000.0001) %MON exf_atemp_max                =   2.8186740312420E+02
(PID.TID 0000.0001) %MON exf_atemp_min                =   2.3642158439511E+02
(PID.TID 0000.0001) %MON exf_atemp_mean               =   2.6390426016196E+02
(PID.TID 0000.0001) %MON exf_atemp_sd                 =   1.1996579258850E+01
(PID.TID 0000.0001) %MON exf_atemp_del2               =   6.4959643564840E-01
(PID.TID 0000.0001) %MON exf_aqh_max                  =   6.3169040759170E-03
(PID.TID 0000.0001) %MON exf_aqh_min                  =   1.6284581668843E-04
(PID.TID 0000.0001) %MON exf_aqh_mean                 =   2.4753197025473E-03
(PID.TID 0000.0001) %MON exf_aqh_sd                   =   1.4255808388841E-03
(PID.TID 0000.0001) %MON exf_aqh_del2                 =   6.8018772549319E-05
(PID.TID 0000.0001) %MON exf_lwflux_max               =   1.8162256096876E+02
(PID.TID 0000.0001) %MON exf_lwflux_min               =   2.7024547883093E+01
(PID.TID 0000.0001) %MON exf_lwflux_mean              =   7.5295904323019E+01
(PID.TID 0000.0001) %MON exf_lwflux_sd                =   4.2777922335253E+01
(PID.TID 0000.0001) %MON exf_lwflux_del2              =   3.2320808980440E+00
(PID.TID 0000.0001) %MON exf_precip_max               =   1.0500009599131E-07
(PID.TID 0000.0001) %MON exf_precip_min               =   2.7238964868961E-10
(PID.TID 0000.0001) %MON exf_precip_mean              =   3.6389982946776E-08
(PID.TID 0000.0001) %MON exf_precip_sd                =   2.0582225664103E-08
(PID.TID 0000.0001) %MON exf_precip_del2              =   2.5599042244504E-09
(PID.TID 0000.0001) %MON exf_snowprecip_max           =   0.0000000000000E+00
(PID.TID 0000.0001) %MON exf_snowprecip_min           =   0.0000000000000E+00
(PID.TID 0000.0001) %MON exf_snowprecip_mean          =   0.0000000000000E+00
(PID.TID 0000.0001) %MON exf_snowprecip_sd            =   0.0000000000000E+00
(PID.TID 0000.0001) %MON exf_snowprecip_del2          =   0.0000000000000E+00
(PID.TID 0000.0001) %MON exf_swflux_max               =  -8.1208301372215E-02
(PID.TID 0000.0001) %MON exf_swflux_min               =  -6.4142947168819E+01
(PID.TID 0000.0001) %MON exf_swflux_mean              =  -2.6548012965822E+01
(PID.TID 0000.0001) %MON exf_swflux_sd                =   1.9660442927159E+01
(PID.TID 0000.0001) %MON exf_swflux_del2              =   4.7997463106648E-01
(PID.TID 0000.0001) %MON exf_evap_max                 =   4.5345408489157E-08
(PID.TID 0000.0001) %MON exf_evap_min                 =  -4.2118523696332E-09
(PID.TID 0000.0001) %MON exf_evap_mean                =   1.0458004872846E-08
(PID.TID 0000.0001) %MON exf_evap_sd                  =   1.1076059405422E-08
(PID.TID 0000.0001) %MON exf_evap_del2                =   1.3338841789832E-09
(PID.TID 0000.0001) %MON exf_swdown_max               =   7.1269941298688E+01
(PID.TID 0000.0001) %MON exf_swdown_min               =   9.0231445969128E-02
(PID.TID 0000.0001) %MON exf_swdown_mean              =   2.9497792184247E+01
(PID.TID 0000.0001) %MON exf_swdown_sd                =   2.1844936585733E+01
(PID.TID 0000.0001) %MON exf_swdown_del2              =   5.3330514562942E-01
(PID.TID 0000.0001) %MON exf_lwdown_max               =   3.0560028326316E+02
(PID.TID 0000.0001) %MON exf_lwdown_min               =   1.1586173020035E+02
(PID.TID 0000.0001) %MON exf_lwdown_mean              =   2.2580795099755E+02
(PID.TID 0000.0001) %MON exf_lwdown_sd                =   4.6313195660870E+01
(PID.TID 0000.0001) %MON exf_lwdown_del2              =   3.2439260573465E+00
(PID.TID 0000.0001) %MON exf_apressure_max            =   0.0000000000000E+00
(PID.TID 0000.0001) %MON exf_apressure_min            =   0.0000000000000E+00
(PID.TID 0000.0001) %MON exf_apressure_mean           =   0.0000000000000E+00
(PID.TID 0000.0001) %MON exf_apressure_sd             =   0.0000000000000E+00
(PID.TID 0000.0001) %MON exf_apressure_del2           =   0.0000000000000E+00
(PID.TID 0000.0001) %MON exf_runoff_max               =   0.0000000000000E+00
(PID.TID 0000.0001) %MON exf_runoff_min               =   0.0000000000000E+00
(PID.TID 0000.0001) %MON exf_runoff_mean              =   0.0000000000000E+00
(PID.TID 0000.0001) %MON exf_runoff_sd                =   0.0000000000000E+00
(PID.TID 0000.0001) %MON exf_runoff_del2              =   0.0000000000000E+00
(PID.TID 0000.0001) %MON exf_climsst_max              =   0.0000000000000E+00
(PID.TID 0000.0001) %MON exf_climsst_min              =   0.0000000000000E+00
(PID.TID 0000.0001) %MON exf_climsst_mean             =   0.0000000000000E+00
(PID.TID 0000.0001) %MON exf_climsst_sd               =   0.0000000000000E+00
(PID.TID 0000.0001) %MON exf_climsst_del2             =   0.0000000000000E+00
(PID.TID 0000.0001) %MON exf_climsss_max              =   3.5041993610194E+01
(PID.TID 0000.0001) %MON exf_climsss_min              =   3.0673147123368E+01
(PID.TID 0000.0001) %MON exf_climsss_mean             =   3.3464011602304E+01
(PID.TID 0000.0001) %MON exf_climsss_sd               =   1.0313181272348E+00
(PID.TID 0000.0001) %MON exf_climsss_del2             =   1.0003889784787E-01
(PID.TID 0000.0001) // =======================================================
(PID.TID 0000.0001) // End MONITOR EXF statistics
(PID.TID 0000.0001) // =======================================================
 ph-ice B  9  0.  0.  0.
 ph-ice C  9  5.08667759E+11
 cg2d: Sum(rhs),rhsMax =   2.90791708768001E-08  1.15038865863744E+00
(PID.TID 0000.0001) // =======================================================
(PID.TID 0000.0001) // Begin MONITOR SEAICE statistics
(PID.TID 0000.0001) // =======================================================
(PID.TID 0000.0001) %MON seaice_tsnumber              =                    10
(PID.TID 0000.0001) %MON seaice_time_sec              =   3.6000000000000E+04
(PID.TID 0000.0001) %MON seaice_uice_max              =   2.6071102305348E-01
(PID.TID 0000.0001) %MON seaice_uice_min              =  -7.4569485545072E-02
(PID.TID 0000.0001) %MON seaice_uice_mean             =   5.6948059868756E-02
(PID.TID 0000.0001) %MON seaice_uice_sd               =   7.3694766883851E-02
(PID.TID 0000.0001) %MON seaice_uice_del2             =   6.9822426233252E-03
(PID.TID 0000.0001) %MON seaice_vice_max              =   7.2855153906803E-02
(PID.TID 0000.0001) %MON seaice_vice_min              =  -1.8167527184168E-01
(PID.TID 0000.0001) %MON seaice_vice_mean             =  -5.2953319724759E-02
(PID.TID 0000.0001) %MON seaice_vice_sd               =   5.6405720830317E-02
(PID.TID 0000.0001) %MON seaice_vice_del2             =   6.8591538339938E-03
(PID.TID 0000.0001) %MON seaice_area_max              =   1.0000000000000E+00
(PID.TID 0000.0001) %MON seaice_area_min              =   0.0000000000000E+00
(PID.TID 0000.0001) %MON seaice_area_mean             =   6.2310743527988E-01
(PID.TID 0000.0001) %MON seaice_area_sd               =   4.5675715532177E-01
(PID.TID 0000.0001) %MON seaice_area_del2             =   5.3102395959850E-02
(PID.TID 0000.0001) %MON seaice_heff_max              =   5.4914440243820E-01
(PID.TID 0000.0001) %MON seaice_heff_min              =   0.0000000000000E+00
(PID.TID 0000.0001) %MON seaice_heff_mean             =   1.4182083838105E-01
(PID.TID 0000.0001) %MON seaice_heff_sd               =   1.7482794889166E-01
(PID.TID 0000.0001) %MON seaice_heff_del2             =   1.3169944538798E-02
(PID.TID 0000.0001) %MON seaice_hsnow_max             =   2.0785054838239E-01
(PID.TID 0000.0001) %MON seaice_hsnow_min             =   0.0000000000000E+00
(PID.TID 0000.0001) %MON seaice_hsnow_mean            =   1.1901259289165E-01
(PID.TID 0000.0001) %MON seaice_hsnow_sd              =   9.7627028712879E-02
(PID.TID 0000.0001) %MON seaice_hsnow_del2            =   6.6467677246125E-03
(PID.TID 0000.0001) // =======================================================
(PID.TID 0000.0001) // End MONITOR SEAICE statistics
(PID.TID 0000.0001) // =======================================================
(PID.TID 0000.0001)  MDS_READ_FIELD: opening file: xx_atemp.0000000000.001.001.data
(PID.TID 0000.0001)  MDS_READ_FIELD: opening file: xx_atemp.0000000000.001.001.data
(PID.TID 0000.0001)  MDS_READ_FIELD: opening file: xx_atemp.0000000000.001.001.data
(PID.TID 0000.0001)  MDS_READ_FIELD: opening file: xx_atemp.0000000000.001.001.data
(PID.TID 0000.0001)  MDS_READ_FIELD: opening file: xx_aqh.0000000000.001.001.data
(PID.TID 0000.0001)  MDS_READ_FIELD: opening file: xx_aqh.0000000000.001.001.data
(PID.TID 0000.0001)  MDS_READ_FIELD: opening file: xx_aqh.0000000000.001.001.data
(PID.TID 0000.0001)  MDS_READ_FIELD: opening file: xx_aqh.0000000000.001.001.data
(PID.TID 0000.0001)  MDS_READ_FIELD: opening file: xx_uwind.0000000000.001.001.data
(PID.TID 0000.0001)  MDS_READ_FIELD: opening file: xx_uwind.0000000000.001.001.data
(PID.TID 0000.0001)  MDS_READ_FIELD: opening file: xx_uwind.0000000000.001.001.data
(PID.TID 0000.0001)  MDS_READ_FIELD: opening file: xx_uwind.0000000000.001.001.data
(PID.TID 0000.0001)  MDS_READ_FIELD: opening file: xx_vwind.0000000000.001.001.data
(PID.TID 0000.0001)  MDS_READ_FIELD: opening file: xx_vwind.0000000000.001.001.data
(PID.TID 0000.0001)  MDS_READ_FIELD: opening file: xx_vwind.0000000000.001.001.data
(PID.TID 0000.0001)  MDS_READ_FIELD: opening file: xx_vwind.0000000000.001.001.data
(PID.TID 0000.0001)  MDS_READ_FIELD: opening file: xx_precip.0000000000.001.001.data
(PID.TID 0000.0001)  MDS_READ_FIELD: opening file: xx_precip.0000000000.001.001.data
(PID.TID 0000.0001)  MDS_READ_FIELD: opening file: xx_precip.0000000000.001.001.data
(PID.TID 0000.0001)  MDS_READ_FIELD: opening file: xx_precip.0000000000.001.001.data
(PID.TID 0000.0001)  MDS_READ_FIELD: opening file: xx_swdown.0000000000.001.001.data
(PID.TID 0000.0001)  MDS_READ_FIELD: opening file: xx_swdown.0000000000.001.001.data
(PID.TID 0000.0001)  MDS_READ_FIELD: opening file: xx_swdown.0000000000.001.001.data
(PID.TID 0000.0001)  MDS_READ_FIELD: opening file: xx_swdown.0000000000.001.001.data
(PID.TID 0000.0001)  MDS_READ_FIELD: opening file: xx_lwdown.0000000000.001.001.data
(PID.TID 0000.0001)  MDS_READ_FIELD: opening file: xx_lwdown.0000000000.001.001.data
(PID.TID 0000.0001)  MDS_READ_FIELD: opening file: xx_lwdown.0000000000.001.001.data
(PID.TID 0000.0001)  MDS_READ_FIELD: opening file: xx_lwdown.0000000000.001.001.data
(PID.TID 0000.0001)  MDS_READ_FIELD: opening file: xx_snowprecip.0000000000.001.001.data
(PID.TID 0000.0001)  MDS_READ_FIELD: opening file: xx_snowprecip.0000000000.001.001.data
(PID.TID 0000.0001)  MDS_READ_FIELD: opening file: xx_snowprecip.0000000000.001.001.data
(PID.TID 0000.0001)  MDS_READ_FIELD: opening file: xx_snowprecip.0000000000.001.001.data
(PID.TID 0000.0001)  MDS_READ_FIELD: opening file: xx_apressure.0000000000.001.001.data
(PID.TID 0000.0001)  MDS_READ_FIELD: opening file: xx_apressure.0000000000.001.001.data
(PID.TID 0000.0001)  MDS_READ_FIELD: opening file: xx_apressure.0000000000.001.001.data
(PID.TID 0000.0001)  MDS_READ_FIELD: opening file: xx_apressure.0000000000.001.001.data
(PID.TID 0000.0001)  MDS_READ_FIELD: opening file: psbar.0000000000.001.001.data
(PID.TID 0000.0001)  cost_ssh: offset_sum =  0.710000000000000E+02
(PID.TID 0000.0001)  MDS_READ_FIELD: opening file: psbar.0000000000.001.001.data
(PID.TID 0000.0001) ph-cost call cost_sst
(PID.TID 0000.0001)  MDS_READ_FIELD: opening file: tbar.0000000000.001.001.data
(PID.TID 0000.0001) ph-cost call cost_theta
(PID.TID 0000.0001)  MDS_READ_FIELD: opening file: tbar.0000000000.001.001.data
(PID.TID 0000.0001) ph-cost call cost_salt
(PID.TID 0000.0001)  MDS_READ_FIELD: opening file: sbar.0000000000.001.001.data
(PID.TID 0000.0001) ph-cost call cost_smrarea
(PID.TID 0000.0001) ph-cost smrarea   0.0000000000E+00  0.0000000000E+00
 --> f_ice     = 0.508667759037676E+12
 --> f_smrarea = 0.000000000000000E+00
 --> f_temp    = 0.000000000000000E+00
 --> f_salt    = 0.000000000000000E+00
 --> f_temp0   = 0.000000000000000E+00
 --> f_salt0   = 0.000000000000000E+00
 --> f_temp0smoo = 0.000000000000000E+00
 --> f_salt0smoo = 0.000000000000000E+00
 --> f_sst     = 0.423905552331670E+04
 --> f_tmi     = 0.000000000000000E+00
 --> f_sss     = 0.000000000000000E+00
 --> f_ssh       = 0.000000000000000E+00
 --> f_tp        = 0.000000000000000E+00
 --> f_ers       = 0.000000000000000E+00
 --> f_gfo       = 0.000000000000000E+00
 --> f_tauu    = 0.000000000000000E+00
 --> f_tauum   = 0.000000000000000E+00
 --> f_tauusmoo = 0.000000000000000E+00
 --> f_tauv    = 0.000000000000000E+00
 --> f_tauvm   = 0.000000000000000E+00
 --> f_tauvsmoo = 0.000000000000000E+00
 --> f_hflux   = 0.000000000000000E+00
 --> f_hfluxm  = 0.000000000000000E+00
 --> f_hfluxmm = 0.000000000000000E+00
 --> f_hfluxsmoo = 0.000000000000000E+00
 --> f_sflux   = 0.000000000000000E+00
 --> f_sfluxm  = 0.000000000000000E+00
 --> f_sfluxmm = 0.000000000000000E+00
 --> f_sfluxsmoo = 0.000000000000000E+00
 --> f_uwind     = 0.000000000000000E+00
 --> f_vwind     = 0.000000000000000E+00
 --> f_atemp     = 0.200000000000000E-07
 --> f_aqh     = 0.000000000000000E+00
 --> f_precip  = 0.000000000000000E+00
 --> f_swflux  = 0.000000000000000E+00
 --> f_swdown  = 0.000000000000000E+00
 --> f_uwindm     = 0.000000000000000E+00
 --> f_vwindm     = 0.000000000000000E+00
 --> f_atempm     = 0.250000000000000E-08
 --> f_aqhm     = 0.000000000000000E+00
 --> f_precipm  = 0.000000000000000E+00
 --> f_swfluxm  = 0.000000000000000E+00
 --> f_swdownm  = 0.000000000000000E+00
 --> f_uwindsmoo     = 0.000000000000000E+00
 --> f_vwindsmoo     = 0.000000000000000E+00
 --> f_atempsmoo     = 0.000000000000000E+00
 --> f_aqhsmoo     = 0.000000000000000E+00
 --> f_precipsmoo  = 0.000000000000000E+00
 --> f_swfluxsmoo  = 0.000000000000000E+00
 --> f_swdownsmoo  = 0.000000000000000E+00
 --> f_atl     = 0.000000000000000E+00
 --> f_ctdt    = 0.000000000000000E+00
 --> f_ctds    = 0.000000000000000E+00
 --> f_ctdtclim= 0.000000000000000E+00
 --> f_ctdsclim= 0.000000000000000E+00
 --> f_xbt     = 0.000000000000000E+00
 --> f_argot   = 0.000000000000000E+00
 --> f_argos   = 0.000000000000000E+00
 --> f_drifter   = 0.000000000000000E+00
 --> f_tdrift  = 0.000000000000000E+00
 --> f_sdrift  = 0.000000000000000E+00
 --> f_wdrift  = 0.000000000000000E+00
 --> f_scatx   = 0.000000000000000E+00
 --> f_scaty   = 0.000000000000000E+00
 --> f_scatxm  = 0.000000000000000E+00
 --> f_scatym  = 0.000000000000000E+00
 --> f_obcsn   = 0.000000000000000E+00
 --> f_obcss   = 0.000000000000000E+00
 --> f_obcsw   = 0.000000000000000E+00
 --> f_obcse   = 0.000000000000000E+00
 --> f_ageos   = 0.000000000000000E+00
 --> f_curmtr  = 0.000000000000000E+00
 --> f_kapgm   = 0.000000000000000E+00
 --> f_diffkr  = 0.000000000000000E+00
 --> f_eddytau = 0.000000000000000E+00
 --> f_hfluxmm2           = 0.000000000000000E+00
 --> f_sfluxmm2           = 0.000000000000000E+00
 --> objf_hmean           = 0.920256450866711E-02
 --> fc               = 0.508667763276732E+12
(PID.TID 0000.0001)  MDS_READ_FIELD: opening file: xx_atemp.0000000000.001.001.data
 grad-res -------------------------------
 grad-res     0    5   16    1    1    1    1    1   0.508667309413E+12 0.508667859969E+12 0.508667763277E+12
 grad-res     0    5    5    8  150    1    1    1   0.317295402311E+06 0.483463435669E+09 -.152270135889E+04
(PID.TID 0000.0001)       precision_grdchk_result ADM     5.08667309412764E+11     3.17295402310548E+05
 ph-grd  ierr ---------------------------
 ph-grd  ierr =  0, icomp =  8, ichknum =  5
(PID.TID 0000.0001) 
(PID.TID 0000.0001) // =======================================================
(PID.TID 0000.0001) // Gradient check results  >>> START <<<
(PID.TID 0000.0001) // =======================================================
(PID.TID 0000.0001) 
(PID.TID 0000.0001) 
(PID.TID 0000.0001)  EPS =  0.100E-03
(PID.TID 0000.0001) grdchk output:            procId               I        ITILEPOS        JTILEPOS           LAYER            X(I)      X(I)+/-EPS
(PID.TID 0000.0001) grdchk output:                                FC             FC1             FC2 FC1-FC2/(2*EPS)    ADJ GRAD(FC)   1-FDGRD/ADGRD
(PID.TID 0000.0001) grdchk output:                 0               1              12               1               1 0.000000000E+00 -.100000000E-03
(PID.TID 0000.0001) grdchk output:                   0.508667309E+12 0.508667840E+12 0.508667254E+12 0.293016081E+10 -.689896280E+06 0.424824832E+04
(PID.TID 0000.0001) 
(PID.TID 0000.0001) grdchk output:                 0               2              13               1               1 0.000000000E+00 -.100000000E-03
(PID.TID 0000.0001) grdchk output:                   0.508667309E+12 0.508667593E+12 0.508667938E+12 -.172437352E+10 0.987888238E+05 0.174561478E+05
(PID.TID 0000.0001) 
(PID.TID 0000.0001) grdchk output:                 0               3              14               1               1 0.000000000E+00 -.100000000E-03
(PID.TID 0000.0001) grdchk output:                   0.508667309E+12 0.508667451E+12 0.508667809E+12 -.178587272E+10 0.107647437E+07 0.166000163E+04
(PID.TID 0000.0001) 
(PID.TID 0000.0001) grdchk output:                 0               4              15               1               1 0.000000000E+00 -.100000000E-03
(PID.TID 0000.0001) grdchk output:                   0.508667309E+12 0.508667610E+12 0.508667921E+12 -.155559916E+10 0.746626554E+06 0.208450366E+04
(PID.TID 0000.0001) 
(PID.TID 0000.0001) grdchk output:                 0               5              16               1               1 0.000000000E+00 -.100000000E-03
(PID.TID 0000.0001) grdchk output:                   0.508667309E+12 0.508667860E+12 0.508667763E+12 0.483463436E+09 0.317295402E+06 -.152270136E+04
(PID.TID 0000.0001) 
(PID.TID 0000.0001) 
(PID.TID 0000.0001) // =======================================================
(PID.TID 0000.0001) // Gradient check results  >>> END <<<
(PID.TID 0000.0001) // =======================================================
(PID.TID 0000.0001) 
(PID.TID 0000.0001) %CHECKPOINT         0 ckptA
(PID.TID 0000.0001)   Seconds in section "ALL                    [THE_MODEL_MAIN]":
(PID.TID 0000.0001)           User time:  66.968818
(PID.TID 0000.0001)         System time:  1.31579995
(PID.TID 0000.0001)     Wall clock time:  68.5105522
(PID.TID 0000.0001)          No. starts: 1
(PID.TID 0000.0001)           No. stops: 1
(PID.TID 0000.0001)   Seconds in section "INITIALISE_FIXED       [THE_MODEL_MAIN]":
(PID.TID 0000.0001)           User time:  1.93170602
(PID.TID 0000.0001)         System time:  0.119981999
(PID.TID 0000.0001)     Wall clock time:  2.15938616
(PID.TID 0000.0001)          No. starts: 1
(PID.TID 0000.0001)           No. stops: 1
(PID.TID 0000.0001)   Seconds in section "ADTHE_MAIN_LOOP          [ADJOINT RUN]":
(PID.TID 0000.0001)           User time:  26.1820209
(PID.TID 0000.0001)         System time:  0.771881998
(PID.TID 0000.0001)     Wall clock time:  27.0166109
(PID.TID 0000.0001)          No. starts: 1
(PID.TID 0000.0001)           No. stops: 1
(PID.TID 0000.0001)   Seconds in section "EXF_GETFORCING     [LOAD_FLDS_DRIVER]":
(PID.TID 0000.0001)           User time:  1.09184241
(PID.TID 0000.0001)         System time:  0.0459950119
(PID.TID 0000.0001)     Wall clock time:  1.14359045
(PID.TID 0000.0001)          No. starts: 140
(PID.TID 0000.0001)           No. stops: 140
(PID.TID 0000.0001)   Seconds in section "I/O (WRITE)        [ADJOINT LOOP]":
(PID.TID 0000.0001)           User time:  0.666896343
(PID.TID 0000.0001)         System time:  0.271959871
(PID.TID 0000.0001)     Wall clock time:  0.9441607
(PID.TID 0000.0001)          No. starts: 510
(PID.TID 0000.0001)           No. stops: 510
(PID.TID 0000.0001)   Seconds in section "SEAICE_MODEL    [DO_OCEANIC_PHYS]":
(PID.TID 0000.0001)           User time:  6.78895664
(PID.TID 0000.0001)         System time:  0.00699901581
(PID.TID 0000.0001)     Wall clock time:  6.79913545
(PID.TID 0000.0001)          No. starts: 130
(PID.TID 0000.0001)           No. stops: 130
(PID.TID 0000.0001)   Seconds in section "SEAICE_DYNSOLVER   [SEAICE_MODEL]":
(PID.TID 0000.0001)           User time:  6.82695436
(PID.TID 0000.0001)         System time:  0.00999802351
(PID.TID 0000.0001)     Wall clock time:  6.84219623
(PID.TID 0000.0001)          No. starts: 140
(PID.TID 0000.0001)           No. stops: 140
(PID.TID 0000.0001)   Seconds in section "STATEKPP      [KPP_CALC]":
(PID.TID 0000.0001)           User time:  5.41619849
(PID.TID 0000.0001)         System time:  0.00700001419
(PID.TID 0000.0001)     Wall clock time:  5.42418313
(PID.TID 0000.0001)          No. starts: 130
(PID.TID 0000.0001)           No. stops: 130
(PID.TID 0000.0001)   Seconds in section "KPPMIX [KPP_CALC]":
(PID.TID 0000.0001)           User time:  2.35764217
(PID.TID 0000.0001)         System time:  0.00500017405
(PID.TID 0000.0001)     Wall clock time:  2.358845
(PID.TID 0000.0001)          No. starts: 130
(PID.TID 0000.0001)           No. stops: 130
(PID.TID 0000.0001)   Seconds in section "CTRL_PACK           [THE_MODEL_MAIN]":
(PID.TID 0000.0001)           User time:  0.048992157
(PID.TID 0000.0001)         System time:  0.0109990239
(PID.TID 0000.0001)     Wall clock time:  0.0834941864
(PID.TID 0000.0001)          No. starts: 1
(PID.TID 0000.0001)           No. stops: 1
(PID.TID 0000.0001)   Seconds in section "CTRL_PACK     [THE_MODEL_MAIN]":
(PID.TID 0000.0001)           User time:  0.0429935455
(PID.TID 0000.0001)         System time:  0.0119979978
(PID.TID 0000.0001)     Wall clock time:  0.0548951626
(PID.TID 0000.0001)          No. starts: 1
(PID.TID 0000.0001)           No. stops: 1
(PID.TID 0000.0001)   Seconds in section "GRDCHK_MAIN         [THE_MODEL_MAIN]":
(PID.TID 0000.0001)           User time:  38.7281094
(PID.TID 0000.0001)         System time:  0.345946968
(PID.TID 0000.0001)     Wall clock time:  39.1067271
(PID.TID 0000.0001)          No. starts: 1
(PID.TID 0000.0001)           No. stops: 1
(PID.TID 0000.0001)   Seconds in section "ECCO SPIN-UP":
(PID.TID 0000.0001)           User time:  5.7061367
(PID.TID 0000.0001)         System time:  0.0459929109
(PID.TID 0000.0001)     Wall clock time:  5.76056957
(PID.TID 0000.0001)          No. starts: 10
(PID.TID 0000.0001)           No. stops: 10
(PID.TID 0000.0001)   Seconds in section "INITIALISE_VARIA    [THE_MAIN_LOOP]":
(PID.TID 0000.0001)           User time:  5.70313835
(PID.TID 0000.0001)         System time:  0.0449929833
(PID.TID 0000.0001)     Wall clock time:  5.75857377
(PID.TID 0000.0001)          No. starts: 10
(PID.TID 0000.0001)           No. stops: 10
(PID.TID 0000.0001)   Seconds in section "ECCO MAIN LOOP":
(PID.TID 0000.0001)           User time:  32.6330395
(PID.TID 0000.0001)         System time:  0.0809860229
(PID.TID 0000.0001)     Wall clock time:  32.737098
(PID.TID 0000.0001)          No. starts: 10
(PID.TID 0000.0001)           No. stops: 10
(PID.TID 0000.0001)   Seconds in section "COST_AVERAGESFIELDS   [ECCO MAIN]":
(PID.TID 0000.0001)           User time:  0.0829906464
(PID.TID 0000.0001)         System time:  0.
(PID.TID 0000.0001)     Wall clock time:  0.0830073357
(PID.TID 0000.0001)          No. starts: 100
(PID.TID 0000.0001)           No. stops: 100
(PID.TID 0000.0001)   Seconds in section "LOAD_FIELDS_DRIVER  [FORWARD_STEP]":
(PID.TID 0000.0001)           User time:  0.786888123
(PID.TID 0000.0001)         System time:  0.0339960456
(PID.TID 0000.0001)     Wall clock time:  0.82118988
(PID.TID 0000.0001)          No. starts: 100
(PID.TID 0000.0001)           No. stops: 100
(PID.TID 0000.0001)   Seconds in section "DO_ATMOSPHERIC_PHYS [FORWARD_STEP]":
(PID.TID 0000.0001)           User time:  0.00300216675
(PID.TID 0000.0001)         System time:  0.000999927521
(PID.TID 0000.0001)     Wall clock time:  0.00454521179
(PID.TID 0000.0001)          No. starts: 100
(PID.TID 0000.0001)           No. stops: 100
(PID.TID 0000.0001)   Seconds in section "DO_OCEANIC_PHYS     [FORWARD_STEP]":
(PID.TID 0000.0001)           User time:  16.7094555
(PID.TID 0000.0001)         System time:  0.0169991851
(PID.TID 0000.0001)     Wall clock time:  16.7310536
(PID.TID 0000.0001)          No. starts: 100
(PID.TID 0000.0001)           No. stops: 100
(PID.TID 0000.0001)   Seconds in section "THERMODYNAMICS      [FORWARD_STEP]":
(PID.TID 0000.0001)           User time:  4.66030121
(PID.TID 0000.0001)         System time:  0.00100004673
(PID.TID 0000.0001)     Wall clock time:  4.6674664
(PID.TID 0000.0001)          No. starts: 100
(PID.TID 0000.0001)           No. stops: 100
(PID.TID 0000.0001)   Seconds in section "DYNAMICS            [FORWARD_STEP]":
(PID.TID 0000.0001)           User time:  8.12375259
(PID.TID 0000.0001)         System time:  0.00199997425
(PID.TID 0000.0001)     Wall clock time:  8.13352489
(PID.TID 0000.0001)          No. starts: 100
(PID.TID 0000.0001)           No. stops: 100
(PID.TID 0000.0001)   Seconds in section "SOLVE_FOR_PRESSURE  [FORWARD_STEP]":
(PID.TID 0000.0001)           User time:  0.636903763
(PID.TID 0000.0001)         System time:  0.
(PID.TID 0000.0001)     Wall clock time:  0.637982368
(PID.TID 0000.0001)          No. starts: 100
(PID.TID 0000.0001)           No. stops: 100
(PID.TID 0000.0001)   Seconds in section "UV_CORRECTION_STEP  [FORWARD_STEP]":
(PID.TID 0000.0001)           User time:  0.27196312
(PID.TID 0000.0001)         System time:  0.
(PID.TID 0000.0001)     Wall clock time:  0.274655104
(PID.TID 0000.0001)          No. starts: 100
(PID.TID 0000.0001)           No. stops: 100
(PID.TID 0000.0001)   Seconds in section "TS_CORRECTION_STEP  [FORWARD_STEP]":
(PID.TID 0000.0001)           User time:  0.114969254
(PID.TID 0000.0001)         System time:  0.
(PID.TID 0000.0001)     Wall clock time:  0.108252048
(PID.TID 0000.0001)          No. starts: 100
(PID.TID 0000.0001)           No. stops: 100
(PID.TID 0000.0001)   Seconds in section "BLOCKING_EXCHANGES  [FORWARD_STEP]":
(PID.TID 0000.0001)           User time:  0.318956375
(PID.TID 0000.0001)         System time:  0.0029989481
(PID.TID 0000.0001)     Wall clock time:  0.318751812
(PID.TID 0000.0001)          No. starts: 100
(PID.TID 0000.0001)           No. stops: 100
(PID.TID 0000.0001)   Seconds in section "DO_STATEVARS_TAVE   [FORWARD_STEP]":
(PID.TID 0000.0001)           User time:  0.00300216675
(PID.TID 0000.0001)         System time:  0.
(PID.TID 0000.0001)     Wall clock time:  0.00456547737
(PID.TID 0000.0001)          No. starts: 100
(PID.TID 0000.0001)           No. stops: 100
(PID.TID 0000.0001)   Seconds in section "MONITOR             [FORWARD_STEP]":
(PID.TID 0000.0001)           User time:  0.00399780273
(PID.TID 0000.0001)         System time:  0.
(PID.TID 0000.0001)     Wall clock time:  0.00457048416
(PID.TID 0000.0001)          No. starts: 100
(PID.TID 0000.0001)           No. stops: 100
(PID.TID 0000.0001)   Seconds in section "DO_THE_MODEL_IO     [FORWARD_STEP]":
(PID.TID 0000.0001)           User time:  0.531925201
(PID.TID 0000.0001)         System time:  0.0179938674
(PID.TID 0000.0001)     Wall clock time:  0.555301905
(PID.TID 0000.0001)          No. starts: 100
(PID.TID 0000.0001)           No. stops: 100
(PID.TID 0000.0001)   Seconds in section "DO_WRITE_PICKUP     [FORWARD_STEP]":
(PID.TID 0000.0001)           User time:  0.00299835205
(PID.TID 0000.0001)         System time:  0.
(PID.TID 0000.0001)     Wall clock time:  0.00466656685
(PID.TID 0000.0001)          No. starts: 100
(PID.TID 0000.0001)           No. stops: 100
(PID.TID 0000.0001)   Seconds in section "ECCO SPIN-DOWN":
(PID.TID 0000.0001)           User time:  0.362937927
(PID.TID 0000.0001)         System time:  0.208971083
(PID.TID 0000.0001)     Wall clock time:  0.571475983
(PID.TID 0000.0001)          No. starts: 10
(PID.TID 0000.0001)           No. stops: 10
(PID.TID 0000.0001)   Seconds in section "COST_AVERAGESFIELDS [ECCO SPIN-DOWN]":
(PID.TID 0000.0001)           User time:  0.0759811401
(PID.TID 0000.0001)         System time:  0.076990068
(PID.TID 0000.0001)     Wall clock time:  0.152801275
(PID.TID 0000.0001)          No. starts: 10
(PID.TID 0000.0001)           No. stops: 10
(PID.TID 0000.0001)   Seconds in section "COST_FORCING       [ECCO SPIN-DOWN]":
(PID.TID 0000.0001)           User time:  0.0689888
(PID.TID 0000.0001)         System time:  0.0309959054
(PID.TID 0000.0001)     Wall clock time:  0.0994958878
(PID.TID 0000.0001)          No. starts: 10
(PID.TID 0000.0001)           No. stops: 10
(PID.TID 0000.0001)   Seconds in section "COST_SSH           [ECCO SPIN-DOWN]":
(PID.TID 0000.0001)           User time:  0.0160064697
(PID.TID 0000.0001)         System time:  0.00500005484
(PID.TID 0000.0001)     Wall clock time:  0.0216121674
(PID.TID 0000.0001)          No. starts: 10
(PID.TID 0000.0001)           No. stops: 10
(PID.TID 0000.0001)   Seconds in section "COST_HYD           [ECCO SPIN-DOWN]":
(PID.TID 0000.0001)           User time:  0.18396759
(PID.TID 0000.0001)         System time:  0.0949850082
(PID.TID 0000.0001)     Wall clock time:  0.280500412
(PID.TID 0000.0001)          No. starts: 10
(PID.TID 0000.0001)           No. stops: 10
(PID.TID 0000.0001)   Seconds in section "SEAICE_COST_DRIVER [ECCO SPIN-DOWN]":
(PID.TID 0000.0001)           User time:  0.00299835205
(PID.TID 0000.0001)         System time:  0.
(PID.TID 0000.0001)     Wall clock time:  0.00134158134
(PID.TID 0000.0001)          No. starts: 10
(PID.TID 0000.0001)           No. stops: 10
(PID.TID 0000.0001)   Seconds in section "COST_FINAL         [ECCO SPIN-DOWN]":
(PID.TID 0000.0001)           User time:  0.00999450684
(PID.TID 0000.0001)         System time:  0.00100004673
(PID.TID 0000.0001)     Wall clock time:  0.0125586987
(PID.TID 0000.0001)          No. starts: 10
(PID.TID 0000.0001)           No. stops: 10
(PID.TID 0000.0001)   Seconds in section "DO_WRITE_PICKUP        [THE_MODEL_MAIN]":
(PID.TID 0000.0001)           User time:  0.033996582
(PID.TID 0000.0001)         System time:  0.0549919605
(PID.TID 0000.0001)     Wall clock time:  0.0891039371
(PID.TID 0000.0001)          No. starts: 1
(PID.TID 0000.0001)           No. stops: 1
(PID.TID 0000.0001) // ======================================================
(PID.TID 0000.0001) // Tile <-> Tile communication statistics
(PID.TID 0000.0001) // ======================================================
(PID.TID 0000.0001) // o Tile number: 000001
(PID.TID 0000.0001) //         No. X exchanges =              0
(PID.TID 0000.0001) //            Max. X spins =              0
(PID.TID 0000.0001) //            Min. X spins =     1000000000
(PID.TID 0000.0001) //          Total. X spins =              0
(PID.TID 0000.0001) //            Avg. X spins =       0.00E+00
(PID.TID 0000.0001) //         No. Y exchanges =              0
(PID.TID 0000.0001) //            Max. Y spins =              0
(PID.TID 0000.0001) //            Min. Y spins =     1000000000
(PID.TID 0000.0001) //          Total. Y spins =              0
(PID.TID 0000.0001) //            Avg. Y spins =       0.00E+00
(PID.TID 0000.0001) // o Thread number: 000001
(PID.TID 0000.0001) //            No. barriers =         186294
(PID.TID 0000.0001) //      Max. barrier spins =              1
(PID.TID 0000.0001) //      Min. barrier spins =              1
(PID.TID 0000.0001) //     Total barrier spins =         186294
(PID.TID 0000.0001) //      Avg. barrier spins =       1.00E+00
