(PID.TID 0000.0001) 
(PID.TID 0000.0001) // ======================================================
(PID.TID 0000.0001) //                      MITgcm UV
(PID.TID 0000.0001) //                      =========
(PID.TID 0000.0001) // ======================================================
(PID.TID 0000.0001) // execution environment starting up...
(PID.TID 0000.0001) // Run starting Wed Apr  1 14:19:48 1998
(PID.TID 0000.0001) // on melville.lcs.mit.edu
(PID.TID 0000.0001) // account cnh
(PID.TID 0000.0001) // MITgcm UV Release: $Name:  $
(PID.TID 0000.0001) 
(PID.TID 0000.0001) // =======================================================
(PID.TID 0000.0001) // Execution Environment parameter file "eedata"
(PID.TID 0000.0001) // =======================================================
(PID.TID 0000.0001) ># Example "eedata" file
(PID.TID 0000.0001) ># Lines beginning "#" are comments
(PID.TID 0000.0001) ># nTx - No. threads per process in X
(PID.TID 0000.0001) ># nTy - No. threads per process in Y
(PID.TID 0000.0001) > &EEPARMS
(PID.TID 0000.0001) > &
(PID.TID 0000.0001) ># Note: Some systems use & as the
(PID.TID 0000.0001) ># namelist terminator. Other systems
(PID.TID 0000.0001) ># use a / character (as shown here).
(PID.TID 0000.0001) 
(PID.TID 0000.0001) // =======================================================
(PID.TID 0000.0001) // Computational Grid Specification ( see files "SIZE.h" )
(PID.TID 0000.0001) //                                  ( and "eedata"       )
(PID.TID 0000.0001) // =======================================================
(PID.TID 0000.0001)      nPx =    1 ; /* No. processes in X */
(PID.TID 0000.0001)      nPy =    1 ; /* No. processes in Y */
(PID.TID 0000.0001)      nSx =    1 ; /* No. tiles in X per process */
(PID.TID 0000.0001)      nSy =    1 ; /* No. tiles in Y per process */
(PID.TID 0000.0001)      sNx =  320 ; /* Tile size in X */
(PID.TID 0000.0001)      sNy =    1 ; /* Tile size in Y */
(PID.TID 0000.0001)      OLx =    3 ; /* Tile overlap distance in X */
(PID.TID 0000.0001)      OLy =    3 ; /* Tile overlap distance in Y */
(PID.TID 0000.0001)      nTx =    1 ; /* No. threads in X per process */
(PID.TID 0000.0001)      nTy =    1 ; /* No. threads in Y per process */
(PID.TID 0000.0001)       Nr =   60 ; /* No. levels in the vertical   */
(PID.TID 0000.0001)       nX =  320 ; /* Total domain size in X ( = nPx*nSx*sNx ) */
(PID.TID 0000.0001)       nY =    1 ; /* Total domain size in Y ( = nPy*nSy*sNy ) */
(PID.TID 0000.0001)   nTiles =    1 ; /* Total no. tiles per process ( = nSx*nSy ) */
(PID.TID 0000.0001)   nProcs =    1 ; /* Total no. processes ( = nPx*nPy ) */
(PID.TID 0000.0001) nThreads =    1 ; /* Total no. threads per process ( = nTx*nTy ) */
(PID.TID 0000.0001) usingMPI =    F ; /* Flag used to control whether MPI is in use */
(PID.TID 0000.0001)                   /*  note: To execute a program with MPI calls */
(PID.TID 0000.0001)                   /*  it must be launched appropriately e.g     */
(PID.TID 0000.0001)                   /*  "mpirun -np 64 ......"                    */
(PID.TID 0000.0001) 
(PID.TID 0000.0001) // ======================================================
(PID.TID 0000.0001) // Mapping of tiles to threads
(PID.TID 0000.0001) // ======================================================
(PID.TID 0000.0001) // -o- Thread   1, tiles (   1:   1,   1:   1)
(PID.TID 0000.0001) 
(PID.TID 0000.0001) // ======================================================
(PID.TID 0000.0001) // Tile <-> Tile connectvity table
(PID.TID 0000.0001) // ======================================================
(PID.TID 0000.0001) // Tile number: 000001 (process no. = 000001)
(PID.TID 0000.0001) //        WEST: Tile = 000001, Process = 000001, Comm = put
(PID.TID 0000.0001) //                bi = 000001, bj = 000001
(PID.TID 0000.0001) //        EAST: Tile = 000001, Process = 000001, Comm = put
(PID.TID 0000.0001) //                bi = 000001, bj = 000001
(PID.TID 0000.0001) //       SOUTH: Tile = 000001, Process = 000001, Comm = put
(PID.TID 0000.0001) //                bi = 000001, bj = 000001
(PID.TID 0000.0001) //       NORTH: Tile = 000001, Process = 000001, Comm = put
(PID.TID 0000.0001) //                bi = 000001, bj = 000001
(PID.TID 0000.0001) 
(PID.TID 0000.0001) // =======================================================
(PID.TID 0000.0001) // Model parameter file "data"
(PID.TID 0000.0001) // =======================================================
(PID.TID 0000.0001) ># ====================
(PID.TID 0000.0001) ># | Model parameters |
(PID.TID 0000.0001) ># ====================
(PID.TID 0000.0001) >#
(PID.TID 0000.0001) ># Continuous equation parameters
(PID.TID 0000.0001) > &PARM01
(PID.TID 0000.0001) > tRef=60*1.,
(PID.TID 0000.0001) > sRef=60*35.,
(PID.TID 0000.0001) > viscA4=0.0E4,
(PID.TID 0000.0001) > viscAh=1.E-2,
(PID.TID 0000.0001) > viscAz=1.E-3,
(PID.TID 0000.0001) > no_slip_sides=.TRUE.,
(PID.TID 0000.0001) > no_slip_bottom=.TRUE.,
(PID.TID 0000.0001) > diffK4T=0.E4,
(PID.TID 0000.0001) > diffKhT=0.E-2,
(PID.TID 0000.0001) > diffKzT=0.E-3,
(PID.TID 0000.0001) > diffK4S=0.E4,
(PID.TID 0000.0001) > diffKhS=1.E-2,
(PID.TID 0000.0001) > diffKzS=1.E-5,
(PID.TID 0000.0001) > f0=0.e-4,
(PID.TID 0000.0001) > beta=0.E-11,
(PID.TID 0000.0001) > tAlpha=2.E-4,
(PID.TID 0000.0001) > sBeta =0.E-4,
(PID.TID 0000.0001) > rigidLid=.FALSE.,
(PID.TID 0000.0001) > implicitFreeSurface=.TRUE.,
(PID.TID 0000.0001) > eosType='LINEAR',
(PID.TID 0000.0001) > hFacMin=0.05,
(PID.TID 0000.0001) > nonHydrostatic=.TRUE.,
(PID.TID 0000.0001) > readBinaryPrec=64,
(PID.TID 0000.0001) > globalFiles=.TRUE.,
(PID.TID 0000.0001) > bottomDragLinear=0.E-4,
(PID.TID 0000.0001) > tempAdvScheme=33,
(PID.TID 0000.0001) > &
(PID.TID 0000.0001) >
(PID.TID 0000.0001) ># Elliptic solver parameters
(PID.TID 0000.0001) > &PARM02
(PID.TID 0000.0001) > cg2dMaxIters=300,
(PID.TID 0000.0001) > cg2dTargetResidual=1.E-13,
(PID.TID 0000.0001) > cg3dMaxIters=20,
(PID.TID 0000.0001) > cg3dTargetResidual=1.E-8,
(PID.TID 0000.0001) > &
(PID.TID 0000.0001) >
(PID.TID 0000.0001) ># Time stepping parameters
(PID.TID 0000.0001) > &PARM03
(PID.TID 0000.0001) > niter0=0,
(PID.TID 0000.0001) > nTimeSteps=20,
(PID.TID 0000.0001) >#nTimeSteps=8640,
(PID.TID 0000.0001) > deltaT=20.0,
(PID.TID 0000.0001) > abEps=0.01,
(PID.TID 0000.0001) > pChkptFreq=0.0,
(PID.TID 0000.0001) > chkptFreq=0.0,
(PID.TID 0000.0001) > dumpFreq=6000.0,
(PID.TID 0000.0001) >#taveFreq=864000.0,
(PID.TID 0000.0001) > monitorFreq=1.,
(PID.TID 0000.0001) > &
(PID.TID 0000.0001) >
(PID.TID 0000.0001) ># Gridding parameters
(PID.TID 0000.0001) > &PARM04
(PID.TID 0000.0001) > usingCartesianGrid=.TRUE.,
(PID.TID 0000.0001) > usingSphericalPolarGrid=.FALSE.,
(PID.TID 0000.0001) > delXfile='dx.bin',
(PID.TID 0000.0001) > dYspacing=200.,
(PID.TID 0000.0001) > delZ=60*3.33333333333333333333333,
(PID.TID 0000.0001) > &
(PID.TID 0000.0001) >
(PID.TID 0000.0001) ># Input datasets
(PID.TID 0000.0001) > &PARM05
(PID.TID 0000.0001) > bathyFile='topog.slope',
(PID.TID 0000.0001) > hydrogThetaFile='T.init',
(PID.TID 0000.0001) > surfQfile='Qnet.forcing',
(PID.TID 0000.0001) >#hydrogThetaFile='T.pickup',
(PID.TID 0000.0001) >#uVelInitFile='U.pickup',
(PID.TID 0000.0001) >#pSurfInitFile='Eta.pickup',
(PID.TID 0000.0001) > &
(PID.TID 0000.0001) 
(PID.TID 0000.0001) S/R INI_PARMS ; read PARM01 : OK
(PID.TID 0000.0001) S/R INI_PARMS ; read PARM02 : OK
(PID.TID 0000.0001) S/R INI_PARMS ; read PARM03 : OK
(PID.TID 0000.0001) S/R INI_PARMS ; read PARM04 : OK
(PID.TID 0000.0001) S/R INI_PARMS ; read PARM05 : OK
(PID.TID 0000.0001) %MON XC_max                       =   6.4030118978311E+03
(PID.TID 0000.0001) %MON XC_min                       =   6.6667527892151E+00
(PID.TID 0000.0001) %MON XC_mean                      =   2.4575819181463E+03
(PID.TID 0000.0001) %MON XC_sd                        =   1.7058938715763E+03
(PID.TID 0000.0001) %MON XG_max                       =   6.3832517139640E+03
(PID.TID 0000.0001) %MON XG_min                       =   1.3333505578430E+01
(PID.TID 0000.0001) %MON XG_mean                      =   2.4552188958181E+03
(PID.TID 0000.0001) %MON XG_sd                        =   1.6985888696894E+03
(PID.TID 0000.0001) %MON DXC_max                      =   3.9508304374678E+01
(PID.TID 0000.0001) %MON DXC_min                      =   1.3333509993998E+01
(PID.TID 0000.0001) %MON DXC_mean                     =   2.0071162755307E+01
(PID.TID 0000.0001) %MON DXC_sd                       =   9.4906528979627E+00
(PID.TID 0000.0001) %MON DXF_max                      =   3.9520367734344E+01
(PID.TID 0000.0001) %MON DXF_min                      =   1.3333505578430E+01
(PID.TID 0000.0001) %MON DXF_mean                     =   2.0071162755307E+01
(PID.TID 0000.0001) %MON DXF_sd                       =   9.5190787885357E+00
(PID.TID 0000.0001) %MON DXG_max                      =   3.9520367734344E+01
(PID.TID 0000.0001) %MON DXG_min                      =   1.3333505578430E+01
(PID.TID 0000.0001) %MON DXG_mean                     =   2.0071162755307E+01
(PID.TID 0000.0001) %MON DXG_sd                       =   9.5190787885357E+00
(PID.TID 0000.0001) %MON DXV_max                      =   3.9508304374678E+01
(PID.TID 0000.0001) %MON DXV_min                      =   1.3333509993998E+01
(PID.TID 0000.0001) %MON DXV_mean                     =   2.0071162755307E+01
(PID.TID 0000.0001) %MON DXV_sd                       =   9.4906528979627E+00
(PID.TID 0000.0001) %MON YC_max                       =   1.0000000000000E+02
(PID.TID 0000.0001) %MON YC_min                       =   1.0000000000000E+02
(PID.TID 0000.0001) %MON YC_mean                      =   1.0000000000000E+02
(PID.TID 0000.0001) %MON YC_sd                        =   0.0000000000000E+00
(PID.TID 0000.0001) %MON YG_max                       =   0.0000000000000E+00
(PID.TID 0000.0001) %MON YG_min                       =   0.0000000000000E+00
(PID.TID 0000.0001) %MON YG_mean                      =   0.0000000000000E+00
(PID.TID 0000.0001) %MON YG_sd                        =   0.0000000000000E+00
(PID.TID 0000.0001) %MON DYC_max                      =   2.0000000000000E+02
(PID.TID 0000.0001) %MON DYC_min                      =   2.0000000000000E+02
(PID.TID 0000.0001) %MON DYC_mean                     =   2.0000000000000E+02
(PID.TID 0000.0001) %MON DYC_sd                       =   0.0000000000000E+00
(PID.TID 0000.0001) %MON DYF_max                      =   2.0000000000000E+02
(PID.TID 0000.0001) %MON DYF_min                      =   2.0000000000000E+02
(PID.TID 0000.0001) %MON DYF_mean                     =   2.0000000000000E+02
(PID.TID 0000.0001) %MON DYF_sd                       =   0.0000000000000E+00
(PID.TID 0000.0001) %MON DYG_max                      =   2.0000000000000E+02
(PID.TID 0000.0001) %MON DYG_min                      =   2.0000000000000E+02
(PID.TID 0000.0001) %MON DYG_mean                     =   2.0000000000000E+02
(PID.TID 0000.0001) %MON DYG_sd                       =   0.0000000000000E+00
(PID.TID 0000.0001) %MON DYU_max                      =   2.0000000000000E+02
(PID.TID 0000.0001) %MON DYU_min                      =   2.0000000000000E+02
(PID.TID 0000.0001) %MON DYU_mean                     =   2.0000000000000E+02
(PID.TID 0000.0001) %MON DYU_sd                       =   0.0000000000000E+00
(PID.TID 0000.0001) %MON RA_max                       =   7.9040735468688E+03
(PID.TID 0000.0001) %MON RA_min                       =   2.6667011156861E+03
(PID.TID 0000.0001) %MON RA_mean                      =   4.0142325510614E+03
(PID.TID 0000.0001) %MON RA_sd                        =   1.9038157577071E+03
(PID.TID 0000.0001) %MON RAW_max                      =   7.9016608749357E+03
(PID.TID 0000.0001) %MON RAW_min                      =   2.6667019987996E+03
(PID.TID 0000.0001) %MON RAW_mean                     =   4.0142325510614E+03
(PID.TID 0000.0001) %MON RAW_sd                       =   1.8981305795925E+03
(PID.TID 0000.0001) %MON RAS_max                      =   7.9040735468688E+03
(PID.TID 0000.0001) %MON RAS_min                      =   2.6667011156861E+03
(PID.TID 0000.0001) %MON RAS_mean                     =   4.0142325510614E+03
(PID.TID 0000.0001) %MON RAS_sd                       =   1.9038157577071E+03
(PID.TID 0000.0001) %MON RAZ_max                      =   7.9016608749357E+03
(PID.TID 0000.0001) %MON RAZ_min                      =   2.6667019987996E+03
(PID.TID 0000.0001) %MON RAZ_mean                     =   4.0142325510614E+03
(PID.TID 0000.0001) %MON RAZ_sd                       =   1.8981305795925E+03
(PID.TID 0000.0001)  MDSREADFIELD: opening global file: topog.slope
(PID.TID 0000.0001) // =======================================================
(PID.TID 0000.0001) // Field Model R_low (ini_masks_etc) at iteration          1
(PID.TID 0000.0001) // CMIN =         -1.999999967446850E+02
(PID.TID 0000.0001) // CMAX =         -4.030068084778270E+01
(PID.TID 0000.0001) // CINT =          5.914789477663049E+00
(PID.TID 0000.0001) // SYMBOLS (CMIN->CMAX): -abcdefghijklmnopqrstuvwxyz+
(PID.TID 0000.0001) //                  0.0: .
(PID.TID 0000.0001) // RANGE I (Lo:Hi:Step):(  -2: 323:   1)
(PID.TID 0000.0001) // RANGE J (Lo:Hi:Step):(   4:  -2:  -1)
(PID.TID 0000.0001) // RANGE K (Lo:Hi:Step):(   1:   1:   1)
(PID.TID 0000.0001) // =======================================================
(PID.TID 0000.0001) K =   1
(PID.TID 0000.0001) //                I=7       I=17      I=27      I=37      I=47      I=57      I=67      I=77      I=87      I=97      I=107     I=117     I=127     I=137     I=147     I=157     I=167     I=177     I=187     I=197     I=207     I=217     I=227     I=237     I=247     I=257     I=267     I=277     I=287     I=297     I=307     I=317
(PID.TID 0000.0001) // |--J--|**0123456|890123456|890123456|890123456|890123456|890123456|890123456|890123456|890123456|890123456|890123456|890123456|890123456|890123456|890123456|890123456|890123456|890123456|890123456|890123456|890123456|890123456|890123456|890123456|890123456|890123456|890123456|890123456|890123456|890123456|890123456|890123456|890123
(PID.TID 0000.0001) //      4 ---.+++++++++++++++++++++++++++++++++++++++++++++++++zzzzzzzzzzzzzzzzzzzzzyyyyyyyyyyyxxxxxxxwwwwwwvvvvvuuuuttttsssrrrrqqqpppooonnnmmmlllkkkjjjiiihhhhggggffffeeeeedddddcccccccbbbbbbbbbbbaaaaaaaaaaaaaaaaaaa-----------------------------------------------------------------------------------------------------------------------.++
(PID.TID 0000.0001) //      3 ---.+++++++++++++++++++++++++++++++++++++++++++++++++zzzzzzzzzzzzzzzzzzzzzyyyyyyyyyyyxxxxxxxwwwwwwvvvvvuuuuttttsssrrrrqqqpppooonnnmmmlllkkkjjjiiihhhhggggffffeeeeedddddcccccccbbbbbbbbbbbaaaaaaaaaaaaaaaaaaa-----------------------------------------------------------------------------------------------------------------------.++
(PID.TID 0000.0001) //      2 ---.+++++++++++++++++++++++++++++++++++++++++++++++++zzzzzzzzzzzzzzzzzzzzzyyyyyyyyyyyxxxxxxxwwwwwwvvvvvuuuuttttsssrrrrqqqpppooonnnmmmlllkkkjjjiiihhhhggggffffeeeeedddddcccccccbbbbbbbbbbbaaaaaaaaaaaaaaaaaaa-----------------------------------------------------------------------------------------------------------------------.++
(PID.TID 0000.0001) //      1 ---.+++++++++++++++++++++++++++++++++++++++++++++++++zzzzzzzzzzzzzzzzzzzzzyyyyyyyyyyyxxxxxxxwwwwwwvvvvvuuuuttttsssrrrrqqqpppooonnnmmmlllkkkjjjiiihhhhggggffffeeeeedddddcccccccbbbbbbbbbbbaaaaaaaaaaaaaaaaaaa-----------------------------------------------------------------------------------------------------------------------.++
(PID.TID 0000.0001) //      0 ---.+++++++++++++++++++++++++++++++++++++++++++++++++zzzzzzzzzzzzzzzzzzzzzyyyyyyyyyyyxxxxxxxwwwwwwvvvvvuuuuttttsssrrrrqqqpppooonnnmmmlllkkkjjjiiihhhhggggffffeeeeedddddcccccccbbbbbbbbbbbaaaaaaaaaaaaaaaaaaa-----------------------------------------------------------------------------------------------------------------------.++
(PID.TID 0000.0001) //     -1 ---.+++++++++++++++++++++++++++++++++++++++++++++++++zzzzzzzzzzzzzzzzzzzzzyyyyyyyyyyyxxxxxxxwwwwwwvvvvvuuuuttttsssrrrrqqqpppooonnnmmmlllkkkjjjiiihhhhggggffffeeeeedddddcccccccbbbbbbbbbbbaaaaaaaaaaaaaaaaaaa-----------------------------------------------------------------------------------------------------------------------.++
(PID.TID 0000.0001) //     -2 ---.+++++++++++++++++++++++++++++++++++++++++++++++++zzzzzzzzzzzzzzzzzzzzzyyyyyyyyyyyxxxxxxxwwwwwwvvvvvuuuuttttsssrrrrqqqpppooonnnmmmlllkkkjjjiiihhhhggggffffeeeeedddddcccccccbbbbbbbbbbbaaaaaaaaaaaaaaaaaaa-----------------------------------------------------------------------------------------------------------------------.++
(PID.TID 0000.0001) // =======================================================
(PID.TID 0000.0001) // END OF FIELD                                          =
(PID.TID 0000.0001) // =======================================================
(PID.TID 0000.0001) 
(PID.TID 0000.0001) // =======================================================
(PID.TID 0000.0001) // Field Model Ro_surf (ini_masks_etc) at iteration          1
(PID.TID 0000.0001) // CMIN =         -1.332267629550188E-14
(PID.TID 0000.0001) // CMAX =          1.509903313490213E-14
(PID.TID 0000.0001) // CINT =          1.052655904829778E-15
(PID.TID 0000.0001) // SYMBOLS (CMIN->CMAX): -abcdefghijklmnopqrstuvwxyz+
(PID.TID 0000.0001) //                  0.0: .
(PID.TID 0000.0001) // RANGE I (Lo:Hi:Step):(  -2: 323:   1)
(PID.TID 0000.0001) // RANGE J (Lo:Hi:Step):(   4:  -2:  -1)
(PID.TID 0000.0001) // RANGE K (Lo:Hi:Step):(   1:   1:   1)
(PID.TID 0000.0001) // =======================================================
(PID.TID 0000.0001) K =   1
(PID.TID 0000.0001) //                I=7       I=17      I=27      I=37      I=47      I=57      I=67      I=77      I=87      I=97      I=107     I=117     I=127     I=137     I=147     I=157     I=167     I=177     I=187     I=197     I=207     I=217     I=227     I=237     I=247     I=257     I=267     I=277     I=287     I=297     I=307     I=317
(PID.TID 0000.0001) // |--J--|**0123456|890123456|890123456|890123456|890123456|890123456|890123456|890123456|890123456|890123456|890123456|890123456|890123456|890123456|890123456|890123456|890123456|890123456|890123456|890123456|890123456|890123456|890123456|890123456|890123456|890123456|890123456|890123456|890123456|890123456|890123456|890123456|890123
(PID.TID 0000.0001) //      4 ---.nnnnnnnnnnnnnnnnnnnnnnnnnnnnnnnnnnnnnnngggggggggggnnnnnnnnnggggnnnnnngggnnnnggnnnggnnggnnggnnn++n+nn+n+n+nnnnnnn+n+n+nnnn+n+nn+n+nn+----+-------------+----+--+--+-------+----+-----+-------++------------++++-----------------------------------------------------------------------------------------------------------------.nn
(PID.TID 0000.0001) //      3 ---.nnnnnnnnnnnnnnnnnnnnnnnnnnnnnnnnnnnnnnngggggggggggnnnnnnnnnggggnnnnnngggnnnnggnnnggnnggnnggnnn++n+nn+n+n+nnnnnnn+n+n+nnnn+n+nn+n+nn+----+-------------+----+--+--+-------+----+-----+-------++------------++++-----------------------------------------------------------------------------------------------------------------.nn
(PID.TID 0000.0001) //      2 ---.nnnnnnnnnnnnnnnnnnnnnnnnnnnnnnnnnnnnnnngggggggggggnnnnnnnnnggggnnnnnngggnnnnggnnnggnnggnnggnnn++n+nn+n+n+nnnnnnn+n+n+nnnn+n+nn+n+nn+----+-------------+----+--+--+-------+----+-----+-------++------------++++-----------------------------------------------------------------------------------------------------------------.nn
(PID.TID 0000.0001) //      1 ---.nnnnnnnnnnnnnnnnnnnnnnnnnnnnnnnnnnnnnnngggggggggggnnnnnnnnnggggnnnnnngggnnnnggnnnggnnggnnggnnn++n+nn+n+n+nnnnnnn+n+n+nnnn+n+nn+n+nn+----+-------------+----+--+--+-------+----+-----+-------++------------++++-----------------------------------------------------------------------------------------------------------------.nn
(PID.TID 0000.0001) //      0 ---.nnnnnnnnnnnnnnnnnnnnnnnnnnnnnnnnnnnnnnngggggggggggnnnnnnnnnggggnnnnnngggnnnnggnnnggnnggnnggnnn++n+nn+n+n+nnnnnnn+n+n+nnnn+n+nn+n+nn+----+-------------+----+--+--+-------+----+-----+-------++------------++++-----------------------------------------------------------------------------------------------------------------.nn
(PID.TID 0000.0001) //     -1 ---.nnnnnnnnnnnnnnnnnnnnnnnnnnnnnnnnnnnnnnngggggggggggnnnnnnnnnggggnnnnnngggnnnnggnnnggnnggnnggnnn++n+nn+n+n+nnnnnnn+n+n+nnnn+n+nn+n+nn+----+-------------+----+--+--+-------+----+-----+-------++------------++++-----------------------------------------------------------------------------------------------------------------.nn
(PID.TID 0000.0001) //     -2 ---.nnnnnnnnnnnnnnnnnnnnnnnnnnnnnnnnnnnnnnngggggggggggnnnnnnnnnggggnnnnnngggnnnnggnnnggnnggnnggnnn++n+nn+n+n+nnnnnnn+n+n+nnnn+n+nn+n+nn+----+-------------+----+--+--+-------+----+-----+-------++------------++++-----------------------------------------------------------------------------------------------------------------.nn
(PID.TID 0000.0001) // =======================================================
(PID.TID 0000.0001) // END OF FIELD                                          =
(PID.TID 0000.0001) // =======================================================
(PID.TID 0000.0001) 
(PID.TID 0000.0001) // =======================================================
(PID.TID 0000.0001) // Field hFacC at iteration          1
(PID.TID 0000.0001) // CMIN =          1.000000000000000E+00
(PID.TID 0000.0001) // CMAX =          1.000000000000000E+00
(PID.TID 0000.0001) // CINT =          0.000000000000000E+00
(PID.TID 0000.0001) // SYMBOLS (CMIN->CMAX): -abcdefghijklmnopqrstuvwxyz+
(PID.TID 0000.0001) //                  0.0: .
(PID.TID 0000.0001) // RANGE I (Lo:Hi:Step):(  -2: 323:   1)
(PID.TID 0000.0001) // RANGE J (Lo:Hi:Step):(   4:  -2:  -1)
(PID.TID 0000.0001) // RANGE K (Lo:Hi:Step):(   1:   1:   1)
(PID.TID 0000.0001) // =======================================================
(PID.TID 0000.0001) K =   1
(PID.TID 0000.0001) //                I=7       I=17      I=27      I=37      I=47      I=57      I=67      I=77      I=87      I=97      I=107     I=117     I=127     I=137     I=147     I=157     I=167     I=177     I=187     I=197     I=207     I=217     I=227     I=237     I=247     I=257     I=267     I=277     I=287     I=297     I=307     I=317
(PID.TID 0000.0001) // |--J--|**0123456|890123456|890123456|890123456|890123456|890123456|890123456|890123456|890123456|890123456|890123456|890123456|890123456|890123456|890123456|890123456|890123456|890123456|890123456|890123456|890123456|890123456|890123456|890123456|890123456|890123456|890123456|890123456|890123456|890123456|890123456|890123456|890123
(PID.TID 0000.0001) //      4 ---.-------------------------------------------------------------------------------------------------------------------------------------------------------------------------------------------------------------------------------------------------------------------------------------------------------------------------------.--
(PID.TID 0000.0001) //      3 ---.-------------------------------------------------------------------------------------------------------------------------------------------------------------------------------------------------------------------------------------------------------------------------------------------------------------------------------.--
(PID.TID 0000.0001) //      2 ---.-------------------------------------------------------------------------------------------------------------------------------------------------------------------------------------------------------------------------------------------------------------------------------------------------------------------------------.--
(PID.TID 0000.0001) //      1 ---.-------------------------------------------------------------------------------------------------------------------------------------------------------------------------------------------------------------------------------------------------------------------------------------------------------------------------------.--
(PID.TID 0000.0001) //      0 ---.-------------------------------------------------------------------------------------------------------------------------------------------------------------------------------------------------------------------------------------------------------------------------------------------------------------------------------.--
(PID.TID 0000.0001) //     -1 ---.-------------------------------------------------------------------------------------------------------------------------------------------------------------------------------------------------------------------------------------------------------------------------------------------------------------------------------.--
(PID.TID 0000.0001) //     -2 ---.-------------------------------------------------------------------------------------------------------------------------------------------------------------------------------------------------------------------------------------------------------------------------------------------------------------------------------.--
(PID.TID 0000.0001) // =======================================================
(PID.TID 0000.0001) // END OF FIELD                                          =
(PID.TID 0000.0001) // =======================================================
(PID.TID 0000.0001) 
(PID.TID 0000.0001) // =======================================================
(PID.TID 0000.0001) // Field hFacW at iteration          1
(PID.TID 0000.0001) // CMIN =          1.000000000000000E+00
(PID.TID 0000.0001) // CMAX =          1.000000000000000E+00
(PID.TID 0000.0001) // CINT =          0.000000000000000E+00
(PID.TID 0000.0001) // SYMBOLS (CMIN->CMAX): -abcdefghijklmnopqrstuvwxyz+
(PID.TID 0000.0001) //                  0.0: .
(PID.TID 0000.0001) // RANGE I (Lo:Hi:Step):(  -2: 323:   1)
(PID.TID 0000.0001) // RANGE J (Lo:Hi:Step):(   4:  -2:  -1)
(PID.TID 0000.0001) // RANGE K (Lo:Hi:Step):(   1:   1:   1)
(PID.TID 0000.0001) // =======================================================
(PID.TID 0000.0001) K =   1
(PID.TID 0000.0001) //                I=7       I=17      I=27      I=37      I=47      I=57      I=67      I=77      I=87      I=97      I=107     I=117     I=127     I=137     I=147     I=157     I=167     I=177     I=187     I=197     I=207     I=217     I=227     I=237     I=247     I=257     I=267     I=277     I=287     I=297     I=307     I=317
(PID.TID 0000.0001) // |--J--|**0123456|890123456|890123456|890123456|890123456|890123456|890123456|890123456|890123456|890123456|890123456|890123456|890123456|890123456|890123456|890123456|890123456|890123456|890123456|890123456|890123456|890123456|890123456|890123456|890123456|890123456|890123456|890123456|890123456|890123456|890123456|890123456|890123
(PID.TID 0000.0001) //      4 ---..------------------------------------------------------------------------------------------------------------------------------------------------------------------------------------------------------------------------------------------------------------------------------------------------------------------------------..-
(PID.TID 0000.0001) //      3 ---..------------------------------------------------------------------------------------------------------------------------------------------------------------------------------------------------------------------------------------------------------------------------------------------------------------------------------..-
(PID.TID 0000.0001) //      2 ---..------------------------------------------------------------------------------------------------------------------------------------------------------------------------------------------------------------------------------------------------------------------------------------------------------------------------------..-
(PID.TID 0000.0001) //      1 ---..------------------------------------------------------------------------------------------------------------------------------------------------------------------------------------------------------------------------------------------------------------------------------------------------------------------------------..-
(PID.TID 0000.0001) //      0 ---..------------------------------------------------------------------------------------------------------------------------------------------------------------------------------------------------------------------------------------------------------------------------------------------------------------------------------..-
(PID.TID 0000.0001) //     -1 ---..------------------------------------------------------------------------------------------------------------------------------------------------------------------------------------------------------------------------------------------------------------------------------------------------------------------------------..-
(PID.TID 0000.0001) //     -2 ---..------------------------------------------------------------------------------------------------------------------------------------------------------------------------------------------------------------------------------------------------------------------------------------------------------------------------------..-
(PID.TID 0000.0001) // =======================================================
(PID.TID 0000.0001) // END OF FIELD                                          =
(PID.TID 0000.0001) // =======================================================
(PID.TID 0000.0001) 
(PID.TID 0000.0001) // =======================================================
(PID.TID 0000.0001) // Field hFacS at iteration          1
(PID.TID 0000.0001) // CMIN =          1.000000000000000E+00
(PID.TID 0000.0001) // CMAX =          1.000000000000000E+00
(PID.TID 0000.0001) // CINT =          0.000000000000000E+00
(PID.TID 0000.0001) // SYMBOLS (CMIN->CMAX): -abcdefghijklmnopqrstuvwxyz+
(PID.TID 0000.0001) //                  0.0: .
(PID.TID 0000.0001) // RANGE I (Lo:Hi:Step):(  -2: 323:   1)
(PID.TID 0000.0001) // RANGE J (Lo:Hi:Step):(   4:  -2:  -1)
(PID.TID 0000.0001) // RANGE K (Lo:Hi:Step):(   1:   1:   1)
(PID.TID 0000.0001) // =======================================================
(PID.TID 0000.0001) K =   1
(PID.TID 0000.0001) //                I=7       I=17      I=27      I=37      I=47      I=57      I=67      I=77      I=87      I=97      I=107     I=117     I=127     I=137     I=147     I=157     I=167     I=177     I=187     I=197     I=207     I=217     I=227     I=237     I=247     I=257     I=267     I=277     I=287     I=297     I=307     I=317
(PID.TID 0000.0001) // |--J--|**0123456|890123456|890123456|890123456|890123456|890123456|890123456|890123456|890123456|890123456|890123456|890123456|890123456|890123456|890123456|890123456|890123456|890123456|890123456|890123456|890123456|890123456|890123456|890123456|890123456|890123456|890123456|890123456|890123456|890123456|890123456|890123456|890123
(PID.TID 0000.0001) //      4 ---.-------------------------------------------------------------------------------------------------------------------------------------------------------------------------------------------------------------------------------------------------------------------------------------------------------------------------------.--
(PID.TID 0000.0001) //      3 ---.-------------------------------------------------------------------------------------------------------------------------------------------------------------------------------------------------------------------------------------------------------------------------------------------------------------------------------.--
(PID.TID 0000.0001) //      2 ---.-------------------------------------------------------------------------------------------------------------------------------------------------------------------------------------------------------------------------------------------------------------------------------------------------------------------------------.--
(PID.TID 0000.0001) //      1 ---.-------------------------------------------------------------------------------------------------------------------------------------------------------------------------------------------------------------------------------------------------------------------------------------------------------------------------------.--
(PID.TID 0000.0001) //      0 ---.-------------------------------------------------------------------------------------------------------------------------------------------------------------------------------------------------------------------------------------------------------------------------------------------------------------------------------.--
(PID.TID 0000.0001) //     -1 ---.-------------------------------------------------------------------------------------------------------------------------------------------------------------------------------------------------------------------------------------------------------------------------------------------------------------------------------.--
(PID.TID 0000.0001) //     -2 ---.-------------------------------------------------------------------------------------------------------------------------------------------------------------------------------------------------------------------------------------------------------------------------------------------------------------------------------.--
(PID.TID 0000.0001) // =======================================================
(PID.TID 0000.0001) // END OF FIELD                                          =
(PID.TID 0000.0001) // =======================================================
(PID.TID 0000.0001) 
(PID.TID 0000.0001) %MON fCori_max                    =   0.0000000000000E+00
(PID.TID 0000.0001) %MON fCori_min                    =   0.0000000000000E+00
(PID.TID 0000.0001) %MON fCori_mean                   =   0.0000000000000E+00
(PID.TID 0000.0001) %MON fCori_sd                     =   0.0000000000000E+00
(PID.TID 0000.0001) %MON fCoriG_max                   =   0.0000000000000E+00
(PID.TID 0000.0001) %MON fCoriG_min                   =   0.0000000000000E+00
(PID.TID 0000.0001) %MON fCoriG_mean                  =   0.0000000000000E+00
(PID.TID 0000.0001) %MON fCoriG_sd                    =   0.0000000000000E+00
(PID.TID 0000.0001)  PACKAGES_BOOT: opening data.pkg
(PID.TID 0000.0001)  OPEN_COPY_DATA_FILE: opening file data.pkg
(PID.TID 0000.0001) // =======================================================
(PID.TID 0000.0001) // Parameter file "data.pkg"
(PID.TID 0000.0001) // =======================================================
(PID.TID 0000.0001) ># Packages
(PID.TID 0000.0001) > &PACKAGES
(PID.TID 0000.0001) > useOBCS=.TRUE.,
(PID.TID 0000.0001) > &
(PID.TID 0000.0001) 
(PID.TID 0000.0001)  PACKAGES_BOOT: finished reading data.pkg
(PID.TID 0000.0001)  OBCS_READPARMS: opening data.obcs
(PID.TID 0000.0001)  OPEN_COPY_DATA_FILE: opening file data.obcs
(PID.TID 0000.0001) // =======================================================
(PID.TID 0000.0001) // Parameter file "data.obcs"
(PID.TID 0000.0001) // =======================================================
(PID.TID 0000.0001) ># Open-boundaries
(PID.TID 0000.0001) > &OBCS_PARM01
(PID.TID 0000.0001) > OB_Ieast=1*-1,
(PID.TID 0000.0001) > useOrlanskiEast=.TRUE.,
(PID.TID 0000.0001) > &
(PID.TID 0000.0001) >
(PID.TID 0000.0001) ># Orlanski parameters
(PID.TID 0000.0001) > &OBCS_PARM02
(PID.TID 0000.0001) > Cmax=0.45,
(PID.TID 0000.0001) > cVelTimeScale=1000.,
(PID.TID 0000.0001) > &
(PID.TID 0000.0001) 
 OB Jn = 0 0 0 0 0 0 0 0 0 0 0 0 0 0 0 0 0 0 0 0 0 0 0 0 0 0 0 0 0 0 0 0 0 0 0 0
 0 0 0 0 0 0 0 0 0 0 0 0 0 0 0 0 0 0 0 0 0 0 0 0 0 0 0 0 0 0 0 0 0 0 0 0 0 0 0 0
 0 0 0 0 0 0 0 0 0 0 0 0 0 0 0 0 0 0 0 0 0 0 0 0 0 0 0 0 0 0 0 0 0 0 0 0 0 0 0 0
 0 0 0 0 0 0 0 0 0 0 0 0 0 0 0 0 0 0 0 0 0 0 0 0 0 0 0 0 0 0 0 0 0 0 0 0 0 0 0 0
 0 0 0 0 0 0 0 0 0 0 0 0 0 0 0 0 0 0 0 0 0 0 0 0 0 0 0 0 0 0 0 0 0 0 0 0 0 0 0 0
 0 0 0 0 0 0 0 0 0 0 0 0 0 0 0 0 0 0 0 0 0 0 0 0 0 0 0 0 0 0 0 0 0 0 0 0 0 0 0 0
 0 0 0 0 0 0 0 0 0 0 0 0 0 0 0 0 0 0 0 0 0 0 0 0 0 0 0 0 0 0 0 0 0 0 0 0 0 0 0 0
 0 0 0 0 0 0 0 0 0 0 0 0 0 0 0 0 0 0 0 0 0 0 0 0 0 0 0 0 0 0 0 0 0 0 0 0 0 0 0 0
 0 0 0 0
 OB Js = 0 0 0 0 0 0 0 0 0 0 0 0 0 0 0 0 0 0 0 0 0 0 0 0 0 0 0 0 0 0 0 0 0 0 0 0
 0 0 0 0 0 0 0 0 0 0 0 0 0 0 0 0 0 0 0 0 0 0 0 0 0 0 0 0 0 0 0 0 0 0 0 0 0 0 0 0
 0 0 0 0 0 0 0 0 0 0 0 0 0 0 0 0 0 0 0 0 0 0 0 0 0 0 0 0 0 0 0 0 0 0 0 0 0 0 0 0
 0 0 0 0 0 0 0 0 0 0 0 0 0 0 0 0 0 0 0 0 0 0 0 0 0 0 0 0 0 0 0 0 0 0 0 0 0 0 0 0
 0 0 0 0 0 0 0 0 0 0 0 0 0 0 0 0 0 0 0 0 0 0 0 0 0 0 0 0 0 0 0 0 0 0 0 0 0 0 0 0
 0 0 0 0 0 0 0 0 0 0 0 0 0 0 0 0 0 0 0 0 0 0 0 0 0 0 0 0 0 0 0 0 0 0 0 0 0 0 0 0
 0 0 0 0 0 0 0 0 0 0 0 0 0 0 0 0 0 0 0 0 0 0 0 0 0 0 0 0 0 0 0 0 0 0 0 0 0 0 0 0
 0 0 0 0 0 0 0 0 0 0 0 0 0 0 0 0 0 0 0 0 0 0 0 0 0 0 0 0 0 0 0 0 0 0 0 0 0 0 0 0
 0 0 0 0
 OB Ie = 320
 OB Iw = 0
(PID.TID 0000.0001)  OBCS_READPARMS: finished reading data.obcs
(PID.TID 0000.0001) OBCS_CHECK: #define ALLOW_OBCS
(PID.TID 0000.0001) OBCS_CHECK: #define ALLOW_ORLANSKI
(PID.TID 0000.0001) OBCS_CHECK: OK
(PID.TID 0000.0001) 
(PID.TID 0000.0001) // ===================================
(PID.TID 0000.0001) // GAD parameters :
(PID.TID 0000.0001) // ===================================
(PID.TID 0000.0001) tempAdvScheme =   /* Temp. advection scheme selector */
(PID.TID 0000.0001)                      33
(PID.TID 0000.0001)     ;
(PID.TID 0000.0001) tempMultiDimAdvec =   /* use Muti-Dim Advec method for Temp */
(PID.TID 0000.0001)                   T
(PID.TID 0000.0001)     ;
(PID.TID 0000.0001) tempAdamsBashforth =   /* use Adams-Bashforth time-stepping for Temp */
(PID.TID 0000.0001)                   F
(PID.TID 0000.0001)     ;
(PID.TID 0000.0001) saltAdvScheme =   /* Salt. advection scheme selector */
(PID.TID 0000.0001)                       2
(PID.TID 0000.0001)     ;
(PID.TID 0000.0001) saltMultiDimAdvec =   /* use Muti-Dim Advec method for Salt */
(PID.TID 0000.0001)                   F
(PID.TID 0000.0001)     ;
(PID.TID 0000.0001) saltAdamsBashforth =   /* use Adams-Bashforth time-stepping for Salt */
(PID.TID 0000.0001)                   T
(PID.TID 0000.0001)     ;
(PID.TID 0000.0001) // ===================================
(PID.TID 0000.0001) // CG2D normalisation factor =          0.3831118827572606798902155E-03
(PID.TID 0000.0001) 
(PID.TID 0000.0001) // CG3D normalisation factor =          0.4217234712667640981510753E-03
(PID.TID 0000.0001) 
(PID.TID 0000.0001) CONFIG_CHECK: OK
(PID.TID 0000.0001) // =======================================================
(PID.TID 0000.0001) // Model configuration
(PID.TID 0000.0001) // =======================================================
(PID.TID 0000.0001) //
(PID.TID 0000.0001) // "Physical" paramters ( PARM01 in namelist )
(PID.TID 0000.0001) //
(PID.TID 0000.0001) tRef =   /* Reference temperature profile ( oC or oK ) */
(PID.TID 0000.0001)    60 @  1.000000000000000E+00              /* K =  1: 60 */
(PID.TID 0000.0001)     ;
(PID.TID 0000.0001) sRef =   /* Reference salinity profile ( ppt ) */
(PID.TID 0000.0001)    60 @  3.500000000000000E+01              /* K =  1: 60 */
(PID.TID 0000.0001)     ;
(PID.TID 0000.0001) viscAh =   /* Lateral eddy viscosity ( m^2/s ) */
(PID.TID 0000.0001)                 1.000000000000000E-02
(PID.TID 0000.0001)     ;
(PID.TID 0000.0001) viscAh =   /* Lateral biharmonic viscosity ( m^4/s ) */
(PID.TID 0000.0001)                 0.000000000000000E+00
(PID.TID 0000.0001)     ;
(PID.TID 0000.0001) no_slip_sides =  /* Viscous BCs: No-slip sides */
(PID.TID 0000.0001)                   T
(PID.TID 0000.0001)     ;
(PID.TID 0000.0001) viscAz =   /* Vertical eddy viscosity ( m^2/s ) */
(PID.TID 0000.0001)                 1.000000000000000E-03
(PID.TID 0000.0001)     ;
(PID.TID 0000.0001) viscAr =   /* Vertical eddy viscosity ( units of r^2/s ) */
(PID.TID 0000.0001)                 1.000000000000000E-03
(PID.TID 0000.0001)     ;
(PID.TID 0000.0001) diffKhT =   /* Laplacian diffusion of heat laterally ( m^2/s ) */
(PID.TID 0000.0001)                 0.000000000000000E+00
(PID.TID 0000.0001)     ;
(PID.TID 0000.0001) diffK4T =   /* Bihaarmonic diffusion of heat laterally ( m^4/s ) */
(PID.TID 0000.0001)                 0.000000000000000E+00
(PID.TID 0000.0001)     ;
(PID.TID 0000.0001) diffKzT =   /* Laplacian diffusion of heat vertically ( m^2/s ) */
(PID.TID 0000.0001)                 0.000000000000000E+00
(PID.TID 0000.0001)     ;
(PID.TID 0000.0001) diffKrT =   /* Laplacian diffusion of heat vertically ( m^2/s ) */
(PID.TID 0000.0001)                 0.000000000000000E+00
(PID.TID 0000.0001)     ;
(PID.TID 0000.0001) diffKhS =   /* Laplacian diffusion of salt laterally ( m^2/s ) */
(PID.TID 0000.0001)                 1.000000000000000E-02
(PID.TID 0000.0001)     ;
(PID.TID 0000.0001) diffK4S =   /* Bihaarmonic diffusion of salt laterally ( m^4/s ) */
(PID.TID 0000.0001)                 0.000000000000000E+00
(PID.TID 0000.0001)     ;
(PID.TID 0000.0001) diffKzS =   /* Laplacian diffusion of salt vertically ( m^2/s ) */
(PID.TID 0000.0001)                 1.000000000000000E-05
(PID.TID 0000.0001)     ;
(PID.TID 0000.0001) diffKrS =   /* Laplacian diffusion of salt vertically ( m^2/s ) */
(PID.TID 0000.0001)                 1.000000000000000E-05
(PID.TID 0000.0001)     ;
(PID.TID 0000.0001) tAlpha =   /* Linear EOS thermal expansion coefficient ( 1/degree ) */
(PID.TID 0000.0001)                 2.000000000000000E-04
(PID.TID 0000.0001)     ;
(PID.TID 0000.0001) sBeta =   /* Linear EOS haline contraction coefficient ( 1/ppt ) */
(PID.TID 0000.0001)                 0.000000000000000E+00
(PID.TID 0000.0001)     ;
(PID.TID 0000.0001) rhonil =   /* Reference density ( kg/m^3 ) */
(PID.TID 0000.0001)                 9.998000000000000E+02
(PID.TID 0000.0001)     ;
(PID.TID 0000.0001) rhoConst =   /* Reference density ( kg/m^3 ) */
(PID.TID 0000.0001)                 9.998000000000000E+02
(PID.TID 0000.0001)     ;
(PID.TID 0000.0001) gravity =   /* Gravitational acceleration ( m/s^2 ) */
(PID.TID 0000.0001)                 9.810000000000000E+00
(PID.TID 0000.0001)     ;
(PID.TID 0000.0001) gBaro =   /* Barotropic gravity ( m/s^2 ) */
(PID.TID 0000.0001)                 9.810000000000000E+00
(PID.TID 0000.0001)     ;
(PID.TID 0000.0001) f0 =   /* Reference coriolis parameter ( 1/s ) */
(PID.TID 0000.0001)                 0.000000000000000E+00
(PID.TID 0000.0001)     ;
(PID.TID 0000.0001) beta =   /* Beta ( 1/(m.s) ) */
(PID.TID 0000.0001)                 0.000000000000000E+00
(PID.TID 0000.0001)     ;
(PID.TID 0000.0001) freeSurfFac =   /* Implicit free surface factor */
(PID.TID 0000.0001)                 1.000000000000000E+00
(PID.TID 0000.0001)     ;
(PID.TID 0000.0001) implicitFreeSurface =   /* Implicit free surface on/off flag */
(PID.TID 0000.0001)                   T
(PID.TID 0000.0001)     ;
(PID.TID 0000.0001) rigidLid =   /* Rigid lid on/off flag */
(PID.TID 0000.0001)                   F
(PID.TID 0000.0001)     ;
(PID.TID 0000.0001) implicSurfPress =   /* Surface Pressure implicit factor (0-1)*/
(PID.TID 0000.0001)                 1.000000000000000E+00
(PID.TID 0000.0001)     ;
(PID.TID 0000.0001) implicDiv2Dflow =   /* Barot. Flow Div. implicit factor (0-1)*/
(PID.TID 0000.0001)                 1.000000000000000E+00
(PID.TID 0000.0001)     ;
(PID.TID 0000.0001) exactConserv =   /* Exact Volume Conservation on/off flag*/
(PID.TID 0000.0001)                   F
(PID.TID 0000.0001)     ;
(PID.TID 0000.0001) uniformLin_PhiSurf =   /* use uniform Bo_surf on/off flag*/
(PID.TID 0000.0001)                   T
(PID.TID 0000.0001)     ;
(PID.TID 0000.0001) nonlinFreeSurf =   /* Non-linear Free Surf. options (-1,0,1,2,3)*/
(PID.TID 0000.0001)                       0
(PID.TID 0000.0001)     ;
(PID.TID 0000.0001)      -1,0= Off ; 1,2,3= On, 2=+rescale gU,gV, 3=+update cg2d solv.
(PID.TID 0000.0001) hFacInf =   /* lower threshold for hFac (nonlinFreeSurf only)*/
(PID.TID 0000.0001)                 1.000000000000000E+00
(PID.TID 0000.0001)     ;
(PID.TID 0000.0001) hFacSup =   /* upper threshold for hFac (nonlinFreeSurf only)*/
(PID.TID 0000.0001)                 1.000000000000000E+00
(PID.TID 0000.0001)     ;
(PID.TID 0000.0001) useRealFreshWaterFlux =   /* Real Fresh Water Flux on/off flag*/
(PID.TID 0000.0001)                   F
(PID.TID 0000.0001)     ;
(PID.TID 0000.0001) convertFW2Salt = /* convert F.W. Flux to Salt Flux (-1=use local S)(ppt)*/
(PID.TID 0000.0001)                 3.500000000000000E+01
(PID.TID 0000.0001)     ;
(PID.TID 0000.0001) multiDimAdvection =   /* enable/disable Multi-Dim Advection */
(PID.TID 0000.0001)                   T
(PID.TID 0000.0001)     ;
(PID.TID 0000.0001) staggerTimeStep =   /* Stagger time stepping on/off flag */
(PID.TID 0000.0001)                   F
(PID.TID 0000.0001)     ;
(PID.TID 0000.0001) momStepping =  /* Momentum equation on/off flag */
(PID.TID 0000.0001)                   T
(PID.TID 0000.0001)     ;
(PID.TID 0000.0001) momAdvection =  /* Momentum advection on/off flag */
(PID.TID 0000.0001)                   T
(PID.TID 0000.0001)     ;
(PID.TID 0000.0001) momViscosity =  /* Momentum viscosity on/off flag */
(PID.TID 0000.0001)                   T
(PID.TID 0000.0001)     ;
(PID.TID 0000.0001) useCoriolis =  /* Coriolis on/off flag */
(PID.TID 0000.0001)                   T
(PID.TID 0000.0001)     ;
(PID.TID 0000.0001) momForcing =  /* Momentum forcing on/off flag */
(PID.TID 0000.0001)                   T
(PID.TID 0000.0001)     ;
(PID.TID 0000.0001) momPressureForcing =  /* Momentum pressure term on/off flag */
(PID.TID 0000.0001)                   T
(PID.TID 0000.0001)     ;
(PID.TID 0000.0001) tempStepping =  /* Temperature equation on/off flag */
(PID.TID 0000.0001)                   T
(PID.TID 0000.0001)     ;
(PID.TID 0000.0001) tempAdvection=  /* Temperature advection on/off flag */
(PID.TID 0000.0001)                   T
(PID.TID 0000.0001)     ;
(PID.TID 0000.0001) tempForcing  =  /* Temperature forcing on/off flag */
(PID.TID 0000.0001)                   T
(PID.TID 0000.0001)     ;
(PID.TID 0000.0001) saltStepping =  /* Salinity equation on/off flag */
(PID.TID 0000.0001)                   T
(PID.TID 0000.0001)     ;
(PID.TID 0000.0001) saltAdvection=  /* Salinity advection on/off flag */
(PID.TID 0000.0001)                   T
(PID.TID 0000.0001)     ;
(PID.TID 0000.0001) saltForcing  =  /* Salinity forcing on/off flag */
(PID.TID 0000.0001)                   T
(PID.TID 0000.0001)     ;
(PID.TID 0000.0001) nonHydrostatic =  /* Non-Hydrostatic on/off flag */
(PID.TID 0000.0001)                   T
(PID.TID 0000.0001)     ;
(PID.TID 0000.0001) //
(PID.TID 0000.0001) // Elliptic solver(s) paramters ( PARM02 in namelist )
(PID.TID 0000.0001) //
(PID.TID 0000.0001) cg2dMaxIters =   /* Upper limit on 2d con. grad iterations  */
(PID.TID 0000.0001)                     300
(PID.TID 0000.0001)     ;
(PID.TID 0000.0001) cg2dChkResFreq =   /* 2d con. grad convergence test frequency */
(PID.TID 0000.0001)                       1
(PID.TID 0000.0001)     ;
(PID.TID 0000.0001) cg2dTargetResidual =   /* 2d con. grad target residual  */
(PID.TID 0000.0001)                 1.000000000000000E-13
(PID.TID 0000.0001)     ;
(PID.TID 0000.0001) //
(PID.TID 0000.0001) // Time stepping paramters ( PARM03 in namelist )
(PID.TID 0000.0001) //
(PID.TID 0000.0001) nIter0 =   /* Base timestep number  */
(PID.TID 0000.0001)                       0
(PID.TID 0000.0001)     ;
(PID.TID 0000.0001) nTimeSteps =   /* Number of timesteps */
(PID.TID 0000.0001)                      20
(PID.TID 0000.0001)     ;
(PID.TID 0000.0001) deltatTmom =   /* Momentum equation timestep ( s ) */
(PID.TID 0000.0001)                 2.000000000000000E+01
(PID.TID 0000.0001)     ;
(PID.TID 0000.0001) deltatTtracer =   /* Tracer equation timestep ( s ) */
(PID.TID 0000.0001)                 2.000000000000000E+01
(PID.TID 0000.0001)     ;
(PID.TID 0000.0001) deltatTClock  =   /* Model clock timestep ( s ) */
(PID.TID 0000.0001)                 2.000000000000000E+01
(PID.TID 0000.0001)     ;
(PID.TID 0000.0001) cAdjFreq =   /* Convective adjustment interval ( s ) */
(PID.TID 0000.0001)                 0.000000000000000E+00
(PID.TID 0000.0001)     ;
(PID.TID 0000.0001) forcing_In_AB =   /* put T,S Forcing in Adams-Bash. stepping */
(PID.TID 0000.0001)                   T
(PID.TID 0000.0001)     ;
(PID.TID 0000.0001) abeps =   /* Adams-Bashforth stabilizing weight */
(PID.TID 0000.0001)                 1.000000000000000E-02
(PID.TID 0000.0001)     ;
(PID.TID 0000.0001) tauCD =   /* CD coupling time-scale ( s ) */
(PID.TID 0000.0001)                 2.000000000000000E+01
(PID.TID 0000.0001)     ;
(PID.TID 0000.0001) rCD =   /* Normalised CD coupling parameter */
(PID.TID 0000.0001)                 0.000000000000000E+00
(PID.TID 0000.0001)     ;
(PID.TID 0000.0001) startTime =   /* Run start time ( s ). */
(PID.TID 0000.0001)                 0.000000000000000E+00
(PID.TID 0000.0001)     ;
(PID.TID 0000.0001) endTime =   /* Integration ending time ( s ). */
(PID.TID 0000.0001)                 4.000000000000000E+02
(PID.TID 0000.0001)     ;
(PID.TID 0000.0001) pChkPtFreq =   /* Permanent restart/checkpoint file interval ( s ). */
(PID.TID 0000.0001)                 0.000000000000000E+00
(PID.TID 0000.0001)     ;
(PID.TID 0000.0001) chkPtFreq =   /* Rolling restart/checkpoint file interval ( s ). */
(PID.TID 0000.0001)                 0.000000000000000E+00
(PID.TID 0000.0001)     ;
(PID.TID 0000.0001) dumpFreq =   /* Model state write out interval ( s ). */
(PID.TID 0000.0001)                 6.000000000000000E+03
(PID.TID 0000.0001)     ;
(PID.TID 0000.0001) //
(PID.TID 0000.0001) // Gridding paramters ( PARM04 in namelist )
(PID.TID 0000.0001) //
(PID.TID 0000.0001) usingCartesianGrid =   /* Cartesian coordinates flag ( True / False ) */
(PID.TID 0000.0001)                   T
(PID.TID 0000.0001)     ;
(PID.TID 0000.0001) usingSphericalPolarGrid =   /* Spherical coordinates flag ( True / False ) */
(PID.TID 0000.0001)                   F
(PID.TID 0000.0001)     ;
(PID.TID 0000.0001) groundAtK1 =   /* Lower Boundary (ground) at the surface(k=1) ( T / F ) */
(PID.TID 0000.0001)                   F
(PID.TID 0000.0001)     ;
(PID.TID 0000.0001) Ro_SeaLevel =   /* r(1) ( units of r ) */
(PID.TID 0000.0001)                 0.000000000000000E+00
(PID.TID 0000.0001)     ;
(PID.TID 0000.0001) rkFac =   /* minus Vertical index orientation  */
(PID.TID 0000.0001)                 1.000000000000000E+00
(PID.TID 0000.0001)     ;
(PID.TID 0000.0001) horiVertRatio =   /* Ratio on units : Horiz - Vertical */
(PID.TID 0000.0001)                 1.000000000000000E+00
(PID.TID 0000.0001)     ;
(PID.TID 0000.0001) drC =   /* C spacing ( units of r ) */
(PID.TID 0000.0001)                 1.666666666666667E+00,      /* K =  1 */
(PID.TID 0000.0001)    59 @  3.333333333333333E+00              /* K =  2: 60 */
(PID.TID 0000.0001)     ;
(PID.TID 0000.0001) drF =   /* W spacing ( units of r ) */
(PID.TID 0000.0001)    60 @  3.333333333333333E+00              /* K =  1: 60 */
(PID.TID 0000.0001)     ;
(PID.TID 0000.0001) delX =   /* U spacing ( m - cartesian, degrees - spherical ) */
(PID.TID 0000.0001)                 1.333350557843028E+01,      /* I =  1 */
(PID.TID 0000.0001)                 1.333351440956528E+01,      /* I =  2 */
(PID.TID 0000.0001)                 1.333352369347595E+01,      /* I =  3 */
(PID.TID 0000.0001)                 1.333353345337592E+01,      /* I =  4 */
(PID.TID 0000.0001)                 1.333354371366897E+01,      /* I =  5 */
(PID.TID 0000.0001)                 1.333355450000997E+01,      /* I =  6 */
(PID.TID 0000.0001)                 1.333356583936910E+01,      /* I =  7 */
(PID.TID 0000.0001)                 1.333357776009920E+01,      /* I =  8 */
(PID.TID 0000.0001)                 1.333359029200671E+01,      /* I =  9 */
(PID.TID 0000.0001)                 1.333360346642616E+01,      /* I = 10 */
(PID.TID 0000.0001)                 1.333361731629850E+01,      /* I = 11 */
(PID.TID 0000.0001)                 1.333363187625347E+01,      /* I = 12 */
(PID.TID 0000.0001)                 1.333364718269615E+01,      /* I = 13 */
(PID.TID 0000.0001)                 1.333366327389799E+01,      /* I = 14 */
(PID.TID 0000.0001)                 1.333368019009244E+01,      /* I = 15 */
(PID.TID 0000.0001)                 1.333369797357559E+01,      /* I = 16 */
(PID.TID 0000.0001)                 1.333371666881184E+01,      /* I = 17 */
(PID.TID 0000.0001)                 1.333373632254509E+01,      /* I = 18 */
(PID.TID 0000.0001)                 1.333375698391556E+01,      /* I = 19 */
(PID.TID 0000.0001)                 1.333377870458262E+01,      /* I = 20 */
(PID.TID 0000.0001)                 1.333380153885394E+01,      /* I = 21 */
(PID.TID 0000.0001)                 1.333382554382122E+01,      /* I = 22 */
(PID.TID 0000.0001)                 1.333385077950289E+01,      /* I = 23 */
(PID.TID 0000.0001)                 1.333387730899413E+01,      /* I = 24 */
(PID.TID 0000.0001)                 1.333390519862456E+01,      /* I = 25 */
(PID.TID 0000.0001)                 1.333393451812401E+01,      /* I = 26 */
(PID.TID 0000.0001)                 1.333396534079683E+01,      /* I = 27 */
(PID.TID 0000.0001)                 1.333399774370505E+01,      /* I = 28 */
(PID.TID 0000.0001)                 1.333403180786100E+01,      /* I = 29 */
(PID.TID 0000.0001)                 1.333406761842972E+01,      /* I = 30 */
(PID.TID 0000.0001)                 1.333410526494186E+01,      /* I = 31 */
(PID.TID 0000.0001)                 1.333414484151735E+01,      /* I = 32 */
(PID.TID 0000.0001)                 1.333418644710058E+01,      /* I = 33 */
(PID.TID 0000.0001)                 1.333423018570770E+01,      /* I = 34 */
(PID.TID 0000.0001)                 1.333427616668645E+01,      /* I = 35 */
(PID.TID 0000.0001)                 1.333432450498941E+01,      /* I = 36 */
(PID.TID 0000.0001)                 1.333437532146121E+01,      /* I = 37 */
(PID.TID 0000.0001)                 1.333442874314039E+01,      /* I = 38 */
(PID.TID 0000.0001)                 1.333448490357685E+01,      /* I = 39 */
(PID.TID 0000.0001)                 1.333454394316540E+01,      /* I = 40 */
(PID.TID 0000.0001)                 1.333460600949649E+01,      /* I = 41 */
(PID.TID 0000.0001)                 1.333467125772490E+01,      /* I = 42 */
(PID.TID 0000.0001)                 1.333473985095722E+01,      /* I = 43 */
(PID.TID 0000.0001)                 1.333481196065927E+01,      /* I = 44 */
(PID.TID 0000.0001)                 1.333488776708430E+01,      /* I = 45 */
(PID.TID 0000.0001)                 1.333496745972311E+01,      /* I = 46 */
(PID.TID 0000.0001)                 1.333505123777728E+01,      /* I = 47 */
(PID.TID 0000.0001)                 1.333513931065653E+01,      /* I = 48 */
(PID.TID 0000.0001)                 1.333523189850155E+01,      /* I = 49 */
(PID.TID 0000.0001)                 1.333532923273362E+01,      /* I = 50 */
(PID.TID 0000.0001)                 1.333543155663230E+01,      /* I = 51 */
(PID.TID 0000.0001)                 1.333553912594271E+01,      /* I = 52 */
(PID.TID 0000.0001)                 1.333565220951381E+01,      /* I = 53 */
(PID.TID 0000.0001)                 1.333577108996939E+01,      /* I = 54 */
(PID.TID 0000.0001)                 1.333589606441332E+01,      /* I = 55 */
(PID.TID 0000.0001)                 1.333602744517087E+01,      /* I = 56 */
(PID.TID 0000.0001)                 1.333616556056795E+01,      /* I = 57 */
(PID.TID 0000.0001)                 1.333631075575012E+01,      /* I = 58 */
(PID.TID 0000.0001)                 1.333646339354350E+01,      /* I = 59 */
(PID.TID 0000.0001)                 1.333662385535963E+01,      /* I = 60 */
(PID.TID 0000.0001)                 1.333679254214663E+01,      /* I = 61 */
(PID.TID 0000.0001)                 1.333696987538879E+01,      /* I = 62 */
(PID.TID 0000.0001)                 1.333715629815737E+01,      /* I = 63 */
(PID.TID 0000.0001)                 1.333735227621493E+01,      /* I = 64 */
(PID.TID 0000.0001)                 1.333755829917607E+01,      /* I = 65 */
(PID.TID 0000.0001)                 1.333777488172740E+01,      /* I = 66 */
(PID.TID 0000.0001)                 1.333800256490973E+01,      /* I = 67 */
(PID.TID 0000.0001)                 1.333824191746569E+01,      /* I = 68 */
(PID.TID 0000.0001)                 1.333849353725603E+01,      /* I = 69 */
(PID.TID 0000.0001)                 1.333875805274814E+01,      /* I = 70 */
(PID.TID 0000.0001)                 1.333903612458039E+01,      /* I = 71 */
(PID.TID 0000.0001)                 1.333932844720622E+01,      /* I = 72 */
(PID.TID 0000.0001)                 1.333963575062193E+01,      /* I = 73 */
(PID.TID 0000.0001)                 1.333995880218238E+01,      /* I = 74 */
(PID.TID 0000.0001)                 1.334029840850922E+01,      /* I = 75 */
(PID.TID 0000.0001)                 1.334065541749604E+01,      /* I = 76 */
(PID.TID 0000.0001)                 1.334103072041559E+01,      /* I = 77 */
(PID.TID 0000.0001)                 1.334142525413410E+01,      /* I = 78 */
(PID.TID 0000.0001)                 1.334184000343805E+01,      /* I = 79 */
(PID.TID 0000.0001)                 1.334227600347911E+01,      /* I = 80 */
(PID.TID 0000.0001)                 1.334273434234323E+01,      /* I = 81 */
(PID.TID 0000.0001)                 1.334321616375004E+01,      /* I = 82 */
(PID.TID 0000.0001)                 1.334372266988904E+01,      /* I = 83 */
(PID.TID 0000.0001)                 1.334425512439963E+01,      /* I = 84 */
(PID.TID 0000.0001)                 1.334481485550199E+01,      /* I = 85 */
(PID.TID 0000.0001)                 1.334540325928642E+01,      /* I = 86 */
(PID.TID 0000.0001)                 1.334602180316902E+01,      /* I = 87 */
(PID.TID 0000.0001)                 1.334667202952212E+01,      /* I = 88 */
(PID.TID 0000.0001)                 1.334735555948791E+01,      /* I = 89 */
(PID.TID 0000.0001)                 1.334807409698463E+01,      /* I = 90 */
(PID.TID 0000.0001)                 1.334882943291471E+01,      /* I = 91 */
(PID.TID 0000.0001)                 1.334962344958492E+01,      /* I = 92 */
(PID.TID 0000.0001)                 1.335045812534896E+01,      /* I = 93 */
(PID.TID 0000.0001)                 1.335133553948354E+01,      /* I = 94 */
(PID.TID 0000.0001)                 1.335225787730935E+01,      /* I = 95 */
(PID.TID 0000.0001)                 1.335322743556898E+01,      /* I = 96 */
(PID.TID 0000.0001)                 1.335424662807443E+01,      /* I = 97 */
(PID.TID 0000.0001)                 1.335531799163729E+01,      /* I = 98 */
(PID.TID 0000.0001)                 1.335644419229545E+01,      /* I = 99 */
(PID.TID 0000.0001)                 1.335762803185068E+01,      /* I =100 */
(PID.TID 0000.0001)                 1.335887245473227E+01,      /* I =101 */
(PID.TID 0000.0001)                 1.336018055520228E+01,      /* I =102 */
(PID.TID 0000.0001)                 1.336155558491909E+01,      /* I =103 */
(PID.TID 0000.0001)                 1.336300096087628E+01,      /* I =104 */
(PID.TID 0000.0001)                 1.336452027373481E+01,      /* I =105 */
(PID.TID 0000.0001)                 1.336611729656740E+01,      /* I =106 */
(PID.TID 0000.0001)                 1.336779599403433E+01,      /* I =107 */
(PID.TID 0000.0001)                 1.336956053201144E+01,      /* I =108 */
(PID.TID 0000.0001)                 1.337141528769127E+01,      /* I =109 */
(PID.TID 0000.0001)                 1.337336486017965E+01,      /* I =110 */
(PID.TID 0000.0001)                 1.337541408161077E+01,      /* I =111 */
(PID.TID 0000.0001)                 1.337756802880465E+01,      /* I =112 */
(PID.TID 0000.0001)                 1.337983203549213E+01,      /* I =113 */
(PID.TID 0000.0001)                 1.338221170513314E+01,      /* I =114 */
(PID.TID 0000.0001)                 1.338471292435540E+01,      /* I =115 */
(PID.TID 0000.0001)                 1.338734187704133E+01,      /* I =116 */
(PID.TID 0000.0001)                 1.339010505909238E+01,      /* I =117 */
(PID.TID 0000.0001)                 1.339300929390070E+01,      /* I =118 */
(PID.TID 0000.0001)                 1.339606174855942E+01,      /* I =119 */
(PID.TID 0000.0001)                 1.339926995084359E+01,      /* I =120 */
(PID.TID 0000.0001)                 1.340264180699529E+01,      /* I =121 */
(PID.TID 0000.0001)                 1.340618562034696E+01,      /* I =122 */
(PID.TID 0000.0001)                 1.340991011081868E+01,      /* I =123 */
(PID.TID 0000.0001)                 1.341382443532556E+01,      /* I =124 */
(PID.TID 0000.0001)                 1.341793820913294E+01,      /* I =125 */
(PID.TID 0000.0001)                 1.342226152819769E+01,      /* I =126 */
(PID.TID 0000.0001)                 1.342680499253510E+01,      /* I =127 */
(PID.TID 0000.0001)                 1.343157973065163E+01,      /* I =128 */
(PID.TID 0000.0001)                 1.343659742508456E+01,      /* I =129 */
(PID.TID 0000.0001)                 1.344187033909057E+01,      /* I =130 */
(PID.TID 0000.0001)                 1.344741134452547E+01,      /* I =131 */
(PID.TID 0000.0001)                 1.345323395095843E+01,      /* I =132 */
(PID.TID 0000.0001)                 1.345935233606388E+01,      /* I =133 */
(PID.TID 0000.0001)                 1.346578137733485E+01,      /* I =134 */
(PID.TID 0000.0001)                 1.347253668516156E+01,      /* I =135 */
(PID.TID 0000.0001)                 1.347963463731868E+01,      /* I =136 */
(PID.TID 0000.0001)                 1.348709241490466E+01,      /* I =137 */
(PID.TID 0000.0001)                 1.349492803977558E+01,      /* I =138 */
(PID.TID 0000.0001)                 1.350316041351508E+01,      /* I =139 */
(PID.TID 0000.0001)                 1.351180935798093E+01,      /* I =140 */
(PID.TID 0000.0001)                 1.352089565746654E+01,      /* I =141 */
(PID.TID 0000.0001)                 1.353044110251419E+01,      /* I =142 */
(PID.TID 0000.0001)                 1.354046853541373E+01,      /* I =143 */
(PID.TID 0000.0001)                 1.355100189741760E+01,      /* I =144 */
(PID.TID 0000.0001)                 1.356206627769899E+01,      /* I =145 */
(PID.TID 0000.0001)                 1.357368796407594E+01,      /* I =146 */
(PID.TID 0000.0001)                 1.358589449551856E+01,      /* I =147 */
(PID.TID 0000.0001)                 1.359871471645078E+01,      /* I =148 */
(PID.TID 0000.0001)                 1.361217883285115E+01,      /* I =149 */
(PID.TID 0000.0001)                 1.362631847014915E+01,      /* I =150 */
(PID.TID 0000.0001)                 1.364116673290460E+01,      /* I =151 */
(PID.TID 0000.0001)                 1.365675826624731E+01,      /* I =152 */
(PID.TID 0000.0001)                 1.367312931904298E+01,      /* I =153 */
(PID.TID 0000.0001)                 1.369031780873773E+01,      /* I =154 */
(PID.TID 0000.0001)                 1.370836338781988E+01,      /* I =155 */
(PID.TID 0000.0001)                 1.372730751182062E+01,      /* I =156 */
(PID.TID 0000.0001)                 1.374719350875757E+01,      /* I =157 */
(PID.TID 0000.0001)                 1.376806664990509E+01,      /* I =158 */
(PID.TID 0000.0001)                 1.378997422175274E+01,      /* I =159 */
(PID.TID 0000.0001)                 1.381296559898911E+01,      /* I =160 */
(PID.TID 0000.0001)                 1.383709231832104E+01,      /* I =161 */
(PID.TID 0000.0001)                 1.386240815290873E+01,      /* I =162 */
(PID.TID 0000.0001)                 1.388896918716481E+01,      /* I =163 */
(PID.TID 0000.0001)                 1.391683389163015E+01,      /* I =164 */
(PID.TID 0000.0001)                 1.394606319760068E+01,      /* I =165 */
(PID.TID 0000.0001)                 1.397672057113785E+01,      /* I =166 */
(PID.TID 0000.0001)                 1.400887208604991E+01,      /* I =167 */
(PID.TID 0000.0001)                 1.404258649538309E+01,      /* I =168 */
(PID.TID 0000.0001)                 1.407793530090862E+01,      /* I =169 */
(PID.TID 0000.0001)                 1.411499282003617E+01,      /* I =170 */
(PID.TID 0000.0001)                 1.415383624952395E+01,      /* I =171 */
(PID.TID 0000.0001)                 1.419454572529201E+01,      /* I =172 */
(PID.TID 0000.0001)                 1.423720437757808E+01,      /* I =173 */
(PID.TID 0000.0001)                 1.428189838060363E+01,      /* I =174 */
(PID.TID 0000.0001)                 1.432871699584345E+01,      /* I =175 */
(PID.TID 0000.0001)                 1.437775260791372E+01,      /* I =176 */
(PID.TID 0000.0001)                 1.442910075201240E+01,      /* I =177 */
(PID.TID 0000.0001)                 1.448286013176230E+01,      /* I =178 */
(PID.TID 0000.0001)                 1.453913262622100E+01,      /* I =179 */
(PID.TID 0000.0001)                 1.459802328473512E+01,      /* I =180 */
(PID.TID 0000.0001)                 1.465964030822818E+01,      /* I =181 */
(PID.TID 0000.0001)                 1.472409501542447E+01,      /* I =182 */
(PID.TID 0000.0001)                 1.479150179242509E+01,      /* I =183 */
(PID.TID 0000.0001)                 1.486197802396983E+01,      /* I =184 */
(PID.TID 0000.0001)                 1.493564400464020E+01,      /* I =185 */
(PID.TID 0000.0001)                 1.501262282818657E+01,      /* I =186 */
(PID.TID 0000.0001)                 1.509304025309917E+01,      /* I =187 */
(PID.TID 0000.0001)                 1.517702454248925E+01,      /* I =188 */
(PID.TID 0000.0001)                 1.526470627630714E+01,      /* I =189 */
(PID.TID 0000.0001)                 1.535621813389983E+01,      /* I =190 */
(PID.TID 0000.0001)                 1.545169464490609E+01,      /* I =191 */
(PID.TID 0000.0001)                 1.555127190650460E+01,      /* I =192 */
(PID.TID 0000.0001)                 1.565508726507390E+01,      /* I =193 */
(PID.TID 0000.0001)                 1.576327896039616E+01,      /* I =194 */
(PID.TID 0000.0001)                 1.587598573064292E+01,      /* I =195 */
(PID.TID 0000.0001)                 1.599334637652494E+01,      /* I =196 */
(PID.TID 0000.0001)                 1.611549928317337E+01,      /* I =197 */
(PID.TID 0000.0001)                 1.624258189854968E+01,      /* I =198 */
(PID.TID 0000.0001)                 1.637473016746109E+01,      /* I =199 */
(PID.TID 0000.0001)                 1.651207792058980E+01,      /* I =200 */
(PID.TID 0000.0001)                 1.665475621833111E+01,      /* I =201 */
(PID.TID 0000.0001)                 1.680289264967994E+01,      /* I =202 */
(PID.TID 0000.0001)                 1.695661058690918E+01,      /* I =203 */
(PID.TID 0000.0001)                 1.711602839734634E+01,      /* I =204 */
(PID.TID 0000.0001)                 1.728125861417839E+01,      /* I =205 */
(PID.TID 0000.0001)                 1.745240706889426E+01,      /* I =206 */
(PID.TID 0000.0001)                 1.762957198870894E+01,      /* I =207 */
(PID.TID 0000.0001)                 1.781284306309535E+01,      /* I =208 */
(PID.TID 0000.0001)                 1.800230048437439E+01,      /* I =209 */
(PID.TID 0000.0001)                 1.819801396816951E+01,      /* I =210 */
(PID.TID 0000.0001)                 1.840004176040835E+01,      /* I =211 */
(PID.TID 0000.0001)                 1.860842963843782E+01,      /* I =212 */
(PID.TID 0000.0001)                 1.882320991469193E+01,      /* I =213 */
(PID.TID 0000.0001)                 1.904440045219844E+01,      /* I =214 */
(PID.TID 0000.0001)                 1.927200370200823E+01,      /* I =215 */
(PID.TID 0000.0001)                 1.950600577335953E+01,      /* I =216 */
(PID.TID 0000.0001)                 1.974637554802371E+01,      /* I =217 */
(PID.TID 0000.0001)                 1.999306385079687E+01,      /* I =218 */
(PID.TID 0000.0001)                 2.024600268847589E+01,      /* I =219 */
(PID.TID 0000.0001)                 2.050510456986654E+01,      /* I =220 */
(PID.TID 0000.0001)                 2.077026191939032E+01,      /* I =221 */
(PID.TID 0000.0001)                 2.104134659666656E+01,      /* I =222 */
(PID.TID 0000.0001)                 2.131820953402739E+01,      /* I =223 */
(PID.TID 0000.0001)                 2.160068050326367E+01,      /* I =224 */
(PID.TID 0000.0001)                 2.188856802198952E+01,      /* I =225 */
(PID.TID 0000.0001)                 2.218165940884890E+01,      /* I =226 */
(PID.TID 0000.0001)                 2.247972099537336E+01,      /* I =227 */
(PID.TID 0000.0001)                 2.278249850064545E+01,      /* I =228 */
(PID.TID 0000.0001)                 2.308971757304531E+01,      /* I =229 */
(PID.TID 0000.0001)                 2.340108450128388E+01,      /* I =230 */
(PID.TID 0000.0001)                 2.371628709468741E+01,      /* I =231 */
(PID.TID 0000.0001)                 2.403499573033461E+01,      /* I =232 */
(PID.TID 0000.0001)                 2.435686456220453E+01,      /* I =233 */
(PID.TID 0000.0001)                 2.468153288502243E+01,      /* I =234 */
(PID.TID 0000.0001)                 2.500862664304538E+01,      /* I =235 */
(PID.TID 0000.0001)                 2.533776007166725E+01,      /* I =236 */
(PID.TID 0000.0001)                 2.566853745750001E+01,      /* I =237 */
(PID.TID 0000.0001)                 2.600055500056160E+01,      /* I =238 */
(PID.TID 0000.0001)                 2.633340276042106E+01,      /* I =239 */
(PID.TID 0000.0001)                 2.666666666666666E+01,      /* I =240 */
(PID.TID 0000.0001)                 2.699993057291228E+01,      /* I =241 */
(PID.TID 0000.0001)                 2.733277833277173E+01,      /* I =242 */
(PID.TID 0000.0001)                 2.766479587583332E+01,      /* I =243 */
(PID.TID 0000.0001)                 2.799557326166608E+01,      /* I =244 */
(PID.TID 0000.0001)                 2.832470669028795E+01,      /* I =245 */
(PID.TID 0000.0001)                 2.865180044831091E+01,      /* I =246 */
(PID.TID 0000.0001)                 2.897646877112880E+01,      /* I =247 */
(PID.TID 0000.0001)                 2.929833760299872E+01,      /* I =248 */
(PID.TID 0000.0001)                 2.961704623864592E+01,      /* I =249 */
(PID.TID 0000.0001)                 2.993224883204945E+01,      /* I =250 */
(PID.TID 0000.0001)                 3.024361576028802E+01,      /* I =251 */
(PID.TID 0000.0001)                 3.055083483268788E+01,      /* I =252 */
(PID.TID 0000.0001)                 3.085361233795997E+01,      /* I =253 */
(PID.TID 0000.0001)                 3.115167392448443E+01,      /* I =254 */
(PID.TID 0000.0001)                 3.144476531134382E+01,      /* I =255 */
(PID.TID 0000.0001)                 3.173265283006967E+01,      /* I =256 */
(PID.TID 0000.0001)                 3.201512379930595E+01,      /* I =257 */
(PID.TID 0000.0001)                 3.229198673666677E+01,      /* I =258 */
(PID.TID 0000.0001)                 3.256307141394301E+01,      /* I =259 */
(PID.TID 0000.0001)                 3.282822876346680E+01,      /* I =260 */
(PID.TID 0000.0001)                 3.308733064485744E+01,      /* I =261 */
(PID.TID 0000.0001)                 3.334026948253647E+01,      /* I =262 */
(PID.TID 0000.0001)                 3.358695778530962E+01,      /* I =263 */
(PID.TID 0000.0001)                 3.382732755997380E+01,      /* I =264 */
(PID.TID 0000.0001)                 3.406132963132509E+01,      /* I =265 */
(PID.TID 0000.0001)                 3.428893288113490E+01,      /* I =266 */
(PID.TID 0000.0001)                 3.451012341864140E+01,      /* I =267 */
(PID.TID 0000.0001)                 3.472490369489551E+01,      /* I =268 */
(PID.TID 0000.0001)                 3.493329157292499E+01,      /* I =269 */
(PID.TID 0000.0001)                 3.513531936516383E+01,      /* I =270 */
(PID.TID 0000.0001)                 3.533103284895893E+01,      /* I =271 */
(PID.TID 0000.0001)                 3.552049027023799E+01,      /* I =272 */
(PID.TID 0000.0001)                 3.570376134462440E+01,      /* I =273 */
(PID.TID 0000.0001)                 3.588092626443907E+01,      /* I =274 */
(PID.TID 0000.0001)                 3.605207471915494E+01,      /* I =275 */
(PID.TID 0000.0001)                 3.621730493598699E+01,      /* I =276 */
(PID.TID 0000.0001)                 3.637672274642415E+01,      /* I =277 */
(PID.TID 0000.0001)                 3.653044068365339E+01,      /* I =278 */
(PID.TID 0000.0001)                 3.667857711500223E+01,      /* I =279 */
(PID.TID 0000.0001)                 3.682125541274353E+01,      /* I =280 */
(PID.TID 0000.0001)                 3.695860316587224E+01,      /* I =281 */
(PID.TID 0000.0001)                 3.709075143478366E+01,      /* I =282 */
(PID.TID 0000.0001)                 3.721783405015996E+01,      /* I =283 */
(PID.TID 0000.0001)                 3.733998695680840E+01,      /* I =284 */
(PID.TID 0000.0001)                 3.745734760269041E+01,      /* I =285 */
(PID.TID 0000.0001)                 3.757005437293716E+01,      /* I =286 */
(PID.TID 0000.0001)                 3.767824606825943E+01,      /* I =287 */
(PID.TID 0000.0001)                 3.778206142682873E+01,      /* I =288 */
(PID.TID 0000.0001)                 3.788163868842724E+01,      /* I =289 */
(PID.TID 0000.0001)                 3.797711519943351E+01,      /* I =290 */
(PID.TID 0000.0001)                 3.806862705702619E+01,      /* I =291 */
(PID.TID 0000.0001)                 3.815630879084409E+01,      /* I =292 */
(PID.TID 0000.0001)                 3.824029308023417E+01,      /* I =293 */
(PID.TID 0000.0001)                 3.832071050514676E+01,      /* I =294 */
(PID.TID 0000.0001)                 3.839768932869313E+01,      /* I =295 */
(PID.TID 0000.0001)                 3.847135530936350E+01,      /* I =296 */
(PID.TID 0000.0001)                 3.854183154090824E+01,      /* I =297 */
(PID.TID 0000.0001)                 3.860923831790885E+01,      /* I =298 */
(PID.TID 0000.0001)                 3.867369302510515E+01,      /* I =299 */
(PID.TID 0000.0001)                 3.873531004859822E+01,      /* I =300 */
(PID.TID 0000.0001)                 3.879420070711233E+01,      /* I =301 */
(PID.TID 0000.0001)                 3.885047320157103E+01,      /* I =302 */
(PID.TID 0000.0001)                 3.890423258132093E+01,      /* I =303 */
(PID.TID 0000.0001)                 3.895558072541962E+01,      /* I =304 */
(PID.TID 0000.0001)                 3.900461633748988E+01,      /* I =305 */
(PID.TID 0000.0001)                 3.905143495272970E+01,      /* I =306 */
(PID.TID 0000.0001)                 3.909612895575525E+01,      /* I =307 */
(PID.TID 0000.0001)                 3.913878760804132E+01,      /* I =308 */
(PID.TID 0000.0001)                 3.917949708380939E+01,      /* I =309 */
(PID.TID 0000.0001)                 3.921834051329716E+01,      /* I =310 */
(PID.TID 0000.0001)                 3.925539803242471E+01,      /* I =311 */
(PID.TID 0000.0001)                 3.929074683795024E+01,      /* I =312 */
(PID.TID 0000.0001)                 3.932446124728342E+01,      /* I =313 */
(PID.TID 0000.0001)                 3.935661276219549E+01,      /* I =314 */
(PID.TID 0000.0001)                 3.938727013573265E+01,      /* I =315 */
(PID.TID 0000.0001)                 3.941649944170319E+01,      /* I =316 */
(PID.TID 0000.0001)                 3.944436414616852E+01,      /* I =317 */
(PID.TID 0000.0001)                 3.947092518042460E+01,      /* I =318 */
(PID.TID 0000.0001)                 3.949624101501229E+01,      /* I =319 */
(PID.TID 0000.0001)                 3.952036773434423E+01       /* I =320 */
(PID.TID 0000.0001)     ;
(PID.TID 0000.0001) delY =   /* V spacing ( m - cartesian, degrees - spherical ) */
(PID.TID 0000.0001)                 2.000000000000000E+02       /* J =  1 */
(PID.TID 0000.0001)     ;
(PID.TID 0000.0001) phiMin =    /* South edge (ignored - cartesian, degrees - spherical ) */
(PID.TID 0000.0001)                 0.000000000000000E+00
(PID.TID 0000.0001)     ;
(PID.TID 0000.0001) thetaMin =    /* West edge ( ignored - cartesian, degrees - spherical ) */
(PID.TID 0000.0001)                 0.000000000000000E+00
(PID.TID 0000.0001)     ;
(PID.TID 0000.0001) rSphere =    /* Radius ( ignored - cartesian, m - spherical ) */
(PID.TID 0000.0001)                 6.370000000000000E+06
(PID.TID 0000.0001)     ;
(PID.TID 0000.0001) xcoord =   /* P-point X coord ( m - cartesian, degrees - spherical ) */
(PID.TID 0000.0001)                 6.666752789215142E+00,      /* I =  1 */
(PID.TID 0000.0001)                 2.000026278321292E+01,      /* I =  2 */
(PID.TID 0000.0001)                 3.333378183473354E+01,      /* I =  3 */
(PID.TID 0000.0001)                 4.666731040815947E+01,      /* I =  4 */
(PID.TID 0000.0001)                 6.000084899168192E+01,      /* I =  5 */
(PID.TID 0000.0001)                 7.333439809852139E+01,      /* I =  6 */
(PID.TID 0000.0001)                 8.666795826821092E+01,      /* I =  7 */
(PID.TID 0000.0001)                 1.000015300679451E+02,      /* I =  8 */
(PID.TID 0000.0001)                 1.133351140939980E+02,      /* I =  9 */
(PID.TID 0000.0001)                 1.266687109732144E+02,      /* I = 10 */
(PID.TID 0000.0001)                 1.400023213645768E+02,      /* I = 11 */
(PID.TID 0000.0001)                 1.533359459608528E+02,      /* I = 12 */
(PID.TID 0000.0001)                 1.666695854903276E+02,      /* I = 13 */
(PID.TID 0000.0001)                 1.800032407186246E+02,      /* I = 14 */
(PID.TID 0000.0001)                 1.933369124506199E+02,      /* I = 15 */
(PID.TID 0000.0001)                 2.066706015324539E+02,      /* I = 16 */
(PID.TID 0000.0001)                 2.200043088536476E+02,      /* I = 17 */
(PID.TID 0000.0001)                 2.333380353493260E+02,      /* I = 18 */
(PID.TID 0000.0001)                 2.466717820025564E+02,      /* I = 19 */
(PID.TID 0000.0001)                 2.600055498468055E+02,      /* I = 20 */
(PID.TID 0000.0001)                 2.733393399685237E+02,      /* I = 21 */
(PID.TID 0000.0001)                 2.866731535098613E+02,      /* I = 22 */
(PID.TID 0000.0001)                 3.000069916715234E+02,      /* I = 23 */
(PID.TID 0000.0001)                 3.133408557157719E+02,      /* I = 24 */
(PID.TID 0000.0001)                 3.266747469695813E+02,      /* I = 25 */
(PID.TID 0000.0001)                 3.400086668279556E+02,      /* I = 26 */
(PID.TID 0000.0001)                 3.533426167574160E+02,      /* I = 27 */
(PID.TID 0000.0001)                 3.666765982996669E+02,      /* I = 28 */
(PID.TID 0000.0001)                 3.800106130754499E+02,      /* I = 29 */
(PID.TID 0000.0001)                 3.933446627885953E+02,      /* I = 30 */
(PID.TID 0000.0001)                 4.066787492302811E+02,      /* I = 31 */
(PID.TID 0000.0001)                 4.200128742835107E+02,      /* I = 32 */
(PID.TID 0000.0001)                 4.333470399278197E+02,      /* I = 33 */
(PID.TID 0000.0001)                 4.466812482442238E+02,      /* I = 34 */
(PID.TID 0000.0001)                 4.600155014204209E+02,      /* I = 35 */
(PID.TID 0000.0001)                 4.733498017562588E+02,      /* I = 36 */
(PID.TID 0000.0001)                 4.866841516694841E+02,      /* I = 37 */
(PID.TID 0000.0001)                 5.000185537017849E+02,      /* I = 38 */
(PID.TID 0000.0001)                 5.133530105251435E+02,      /* I = 39 */
(PID.TID 0000.0001)                 5.266875249485147E+02,      /* I = 40 */
(PID.TID 0000.0001)                 5.400220999248456E+02,      /* I = 41 */
(PID.TID 0000.0001)                 5.533567385584563E+02,      /* I = 42 */
(PID.TID 0000.0001)                 5.666914441127974E+02,      /* I = 43 */
(PID.TID 0000.0001)                 5.800262200186057E+02,      /* I = 44 */
(PID.TID 0000.0001)                 5.933610698824775E+02,      /* I = 45 */
(PID.TID 0000.0001)                 6.066959974958811E+02,      /* I = 46 */
(PID.TID 0000.0001)                 6.200310068446313E+02,      /* I = 47 */
(PID.TID 0000.0001)                 6.333661021188482E+02,      /* I = 48 */
(PID.TID 0000.0001)                 6.467012877234272E+02,      /* I = 49 */
(PID.TID 0000.0001)                 6.600365682890449E+02,      /* I = 50 */
(PID.TID 0000.0001)                 6.733719486837279E+02,      /* I = 51 */
(PID.TID 0000.0001)                 6.867074340250153E+02,      /* I = 52 */
(PID.TID 0000.0001)                 7.000430296927436E+02,      /* I = 53 */
(PID.TID 0000.0001)                 7.133787413424852E+02,      /* I = 54 */
(PID.TID 0000.0001)                 7.267145749196766E+02,      /* I = 55 */
(PID.TID 0000.0001)                 7.400505366744686E+02,      /* I = 56 */
(PID.TID 0000.0001)                 7.533866331773380E+02,      /* I = 57 */
(PID.TID 0000.0001)                 7.667228713354971E+02,      /* I = 58 */
(PID.TID 0000.0001)                 7.800592584101438E+02,      /* I = 59 */
(PID.TID 0000.0001)                 7.933958020345954E+02,      /* I = 60 */
(PID.TID 0000.0001)                 8.067325102333485E+02,      /* I = 61 */
(PID.TID 0000.0001)                 8.200693914421163E+02,      /* I = 62 */
(PID.TID 0000.0001)                 8.334064545288893E+02,      /* I = 63 */
(PID.TID 0000.0001)                 8.467437088160755E+02,      /* I = 64 */
(PID.TID 0000.0001)                 8.600811641037710E+02,      /* I = 65 */
(PID.TID 0000.0001)                 8.734188306942226E+02,      /* I = 66 */
(PID.TID 0000.0001)                 8.867567194175413E+02,      /* I = 67 */
(PID.TID 0000.0001)                 9.000948416587289E+02,      /* I = 68 */
(PID.TID 0000.0001)                 9.134332093860897E+02,      /* I = 69 */
(PID.TID 0000.0001)                 9.267718351810918E+02,      /* I = 70 */
(PID.TID 0000.0001)                 9.401107322697561E+02,      /* I = 71 */
(PID.TID 0000.0001)                 9.534499145556495E+02,      /* I = 72 */
(PID.TID 0000.0001)                 9.667893966545635E+02,      /* I = 73 */
(PID.TID 0000.0001)                 9.801291939309656E+02,      /* I = 74 */
(PID.TID 0000.0001)                 9.934693225363114E+02,      /* I = 75 */
(PID.TID 0000.0001)                 1.006809799449314E+03,      /* I = 76 */
(PID.TID 0000.0001)                 1.020150642518270E+03,      /* I = 77 */
(PID.TID 0000.0001)                 1.033491870505545E+03,      /* I = 78 */
(PID.TID 0000.0001)                 1.046833503134331E+03,      /* I = 79 */
(PID.TID 0000.0001)                 1.060175561137789E+03,      /* I = 80 */
(PID.TID 0000.0001)                 1.073518066310700E+03,      /* I = 81 */
(PID.TID 0000.0001)                 1.086861041563747E+03,      /* I = 82 */
(PID.TID 0000.0001)                 1.100204510980566E+03,      /* I = 83 */
(PID.TID 0000.0001)                 1.113548499877711E+03,      /* I = 84 */
(PID.TID 0000.0001)                 1.126893034867661E+03,      /* I = 85 */
(PID.TID 0000.0001)                 1.140238143925056E+03,      /* I = 86 */
(PID.TID 0000.0001)                 1.153583856456283E+03,      /* I = 87 */
(PID.TID 0000.0001)                 1.166930203372629E+03,      /* I = 88 */
(PID.TID 0000.0001)                 1.180277217167134E+03,      /* I = 89 */
(PID.TID 0000.0001)                 1.193624931995370E+03,      /* I = 90 */
(PID.TID 0000.0001)                 1.206973383760320E+03,      /* I = 91 */
(PID.TID 0000.0001)                 1.220322610201570E+03,      /* I = 92 */
(PID.TID 0000.0001)                 1.233672650989036E+03,      /* I = 93 */
(PID.TID 0000.0001)                 1.247023547821453E+03,      /* I = 94 */
(PID.TID 0000.0001)                 1.260375344529849E+03,      /* I = 95 */
(PID.TID 0000.0001)                 1.273728087186288E+03,      /* I = 96 */
(PID.TID 0000.0001)                 1.287081824218110E+03,      /* I = 97 */
(PID.TID 0000.0001)                 1.300436606527966E+03,      /* I = 98 */
(PID.TID 0000.0001)                 1.313792487619932E+03,      /* I = 99 */
(PID.TID 0000.0001)                 1.327149523732005E+03,      /* I =100 */
(PID.TID 0000.0001)                 1.340507773975296E+03,      /* I =101 */
(PID.TID 0000.0001)                 1.353867300480264E+03,      /* I =102 */
(PID.TID 0000.0001)                 1.367228168550325E+03,      /* I =103 */
(PID.TID 0000.0001)                 1.380590446823222E+03,      /* I =104 */
(PID.TID 0000.0001)                 1.393954207440528E+03,      /* I =105 */
(PID.TID 0000.0001)                 1.407319526225679E+03,      /* I =106 */
(PID.TID 0000.0001)                 1.420686482870980E+03,      /* I =107 */
(PID.TID 0000.0001)                 1.434055161134003E+03,      /* I =108 */
(PID.TID 0000.0001)                 1.447425649043854E+03,      /* I =109 */
(PID.TID 0000.0001)                 1.460798039117790E+03,      /* I =110 */
(PID.TID 0000.0001)                 1.474172428588685E+03,      /* I =111 */
(PID.TID 0000.0001)                 1.487548919643893E+03,      /* I =112 */
(PID.TID 0000.0001)                 1.500927619676041E+03,      /* I =113 */
(PID.TID 0000.0001)                 1.514308641546354E+03,      /* I =114 */
(PID.TID 0000.0001)                 1.527692103861098E+03,      /* I =115 */
(PID.TID 0000.0001)                 1.541078131261796E+03,      /* I =116 */
(PID.TID 0000.0001)                 1.554466854729863E+03,      /* I =117 */
(PID.TID 0000.0001)                 1.567858411906360E+03,      /* I =118 */
(PID.TID 0000.0001)                 1.581252947427590E+03,      /* I =119 */
(PID.TID 0000.0001)                 1.594650613277291E+03,      /* I =120 */
(PID.TID 0000.0001)                 1.608051569156210E+03,      /* I =121 */
(PID.TID 0000.0001)                 1.621455982869882E+03,      /* I =122 */
(PID.TID 0000.0001)                 1.634864030735464E+03,      /* I =123 */
(PID.TID 0000.0001)                 1.648275898008536E+03,      /* I =124 */
(PID.TID 0000.0001)                 1.661691779330766E+03,      /* I =125 */
(PID.TID 0000.0001)                 1.675111879199431E+03,      /* I =126 */
(PID.TID 0000.0001)                 1.688536412459797E+03,      /* I =127 */
(PID.TID 0000.0001)                 1.701965604821391E+03,      /* I =128 */
(PID.TID 0000.0001)                 1.715399693399259E+03,      /* I =129 */
(PID.TID 0000.0001)                 1.728838927281347E+03,      /* I =130 */
(PID.TID 0000.0001)                 1.742283568123155E+03,      /* I =131 */
(PID.TID 0000.0001)                 1.755733890770897E+03,      /* I =132 */
(PID.TID 0000.0001)                 1.769190183914408E+03,      /* I =133 */
(PID.TID 0000.0001)                 1.782652750771107E+03,      /* I =134 */
(PID.TID 0000.0001)                 1.796121909802355E+03,      /* I =135 */
(PID.TID 0000.0001)                 1.809597995463595E+03,      /* I =136 */
(PID.TID 0000.0001)                 1.823081358989707E+03,      /* I =137 */
(PID.TID 0000.0001)                 1.836572369217047E+03,      /* I =138 */
(PID.TID 0000.0001)                 1.850071413443693E+03,      /* I =139 */
(PID.TID 0000.0001)                 1.863578898329441E+03,      /* I =140 */
(PID.TID 0000.0001)                 1.877095250837164E+03,      /* I =141 */
(PID.TID 0000.0001)                 1.890620919217155E+03,      /* I =142 */
(PID.TID 0000.0001)                 1.904156374036119E+03,      /* I =143 */
(PID.TID 0000.0001)                 1.917702109252535E+03,      /* I =144 */
(PID.TID 0000.0001)                 1.931258643340093E+03,      /* I =145 */
(PID.TID 0000.0001)                 1.944826520460980E+03,      /* I =146 */
(PID.TID 0000.0001)                 1.958406311690778E+03,      /* I =147 */
(PID.TID 0000.0001)                 1.971998616296762E+03,      /* I =148 */
(PID.TID 0000.0001)                 1.985604063071413E+03,      /* I =149 */
(PID.TID 0000.0001)                 1.999223311722913E+03,      /* I =150 */
(PID.TID 0000.0001)                 2.012857054324440E+03,      /* I =151 */
(PID.TID 0000.0001)                 2.026506016824016E+03,      /* I =152 */
(PID.TID 0000.0001)                 2.040170960616661E+03,      /* I =153 */
(PID.TID 0000.0001)                 2.053852684180551E+03,      /* I =154 */
(PID.TID 0000.0001)                 2.067552024778830E+03,      /* I =155 */
(PID.TID 0000.0001)                 2.081269860228651E+03,      /* I =156 */
(PID.TID 0000.0001)                 2.095007110738939E+03,      /* I =157 */
(PID.TID 0000.0001)                 2.108764740818271E+03,      /* I =158 */
(PID.TID 0000.0001)                 2.122543761254100E+03,      /* I =159 */
(PID.TID 0000.0001)                 2.136345231164471E+03,      /* I =160 */
(PID.TID 0000.0001)                 2.150170260123126E+03,      /* I =161 */
(PID.TID 0000.0001)                 2.164020010358741E+03,      /* I =162 */
(PID.TID 0000.0001)                 2.177895699028778E+03,      /* I =163 */
(PID.TID 0000.0001)                 2.191798600568175E+03,      /* I =164 */
(PID.TID 0000.0001)                 2.205730049112791E+03,      /* I =165 */
(PID.TID 0000.0001)                 2.219691440997160E+03,      /* I =166 */
(PID.TID 0000.0001)                 2.233684237325754E+03,      /* I =167 */
(PID.TID 0000.0001)                 2.247709966616470E+03,      /* I =168 */
(PID.TID 0000.0001)                 2.261770227514616E+03,      /* I =169 */
(PID.TID 0000.0001)                 2.275866691575088E+03,      /* I =170 */
(PID.TID 0000.0001)                 2.290001106109868E+03,      /* I =171 */
(PID.TID 0000.0001)                 2.304175297097277E+03,      /* I =172 */
(PID.TID 0000.0001)                 2.318391172148711E+03,      /* I =173 */
(PID.TID 0000.0001)                 2.332650723527802E+03,      /* I =174 */
(PID.TID 0000.0001)                 2.346956031216026E+03,      /* I =175 */
(PID.TID 0000.0001)                 2.361309266017905E+03,      /* I =176 */
(PID.TID 0000.0001)                 2.375712692697868E+03,      /* I =177 */
(PID.TID 0000.0001)                 2.390168673139755E+03,      /* I =178 */
(PID.TID 0000.0001)                 2.404679669518747E+03,      /* I =179 */
(PID.TID 0000.0001)                 2.419248247474225E+03,      /* I =180 */
(PID.TID 0000.0001)                 2.433877079270706E+03,      /* I =181 */
(PID.TID 0000.0001)                 2.448568946932533E+03,      /* I =182 */
(PID.TID 0000.0001)                 2.463326745336457E+03,      /* I =183 */
(PID.TID 0000.0001)                 2.478153485244655E+03,      /* I =184 */
(PID.TID 0000.0001)                 2.493052296258960E+03,      /* I =185 */
(PID.TID 0000.0001)                 2.508026429675373E+03,      /* I =186 */
(PID.TID 0000.0001)                 2.523079261216016E+03,      /* I =187 */
(PID.TID 0000.0001)                 2.538214293613811E+03,      /* I =188 */
(PID.TID 0000.0001)                 2.553435159023209E+03,      /* I =189 */
(PID.TID 0000.0001)                 2.568745621228312E+03,      /* I =190 */
(PID.TID 0000.0001)                 2.584149577617715E+03,      /* I =191 */
(PID.TID 0000.0001)                 2.599651060893420E+03,      /* I =192 */
(PID.TID 0000.0001)                 2.615254240479209E+03,      /* I =193 */
(PID.TID 0000.0001)                 2.630963423591945E+03,      /* I =194 */
(PID.TID 0000.0001)                 2.646783055937464E+03,      /* I =195 */
(PID.TID 0000.0001)                 2.662717721991048E+03,      /* I =196 */
(PID.TID 0000.0001)                 2.678772144820897E+03,      /* I =197 */
(PID.TID 0000.0001)                 2.694951185411759E+03,      /* I =198 */
(PID.TID 0000.0001)                 2.711259841444764E+03,      /* I =199 */
(PID.TID 0000.0001)                 2.727703245488790E+03,      /* I =200 */
(PID.TID 0000.0001)                 2.744286662558250E+03,      /* I =201 */
(PID.TID 0000.0001)                 2.761015486992256E+03,      /* I =202 */
(PID.TID 0000.0001)                 2.777895238610550E+03,      /* I =203 */
(PID.TID 0000.0001)                 2.794931558102679E+03,      /* I =204 */
(PID.TID 0000.0001)                 2.812130201608441E+03,      /* I =205 */
(PID.TID 0000.0001)                 2.829497034449977E+03,      /* I =206 */
(PID.TID 0000.0001)                 2.847038023978779E+03,      /* I =207 */
(PID.TID 0000.0001)                 2.864759231504681E+03,      /* I =208 */
(PID.TID 0000.0001)                 2.882666803278416E+03,      /* I =209 */
(PID.TID 0000.0001)                 2.900766960504688E+03,      /* I =210 */
(PID.TID 0000.0001)                 2.919065988368977E+03,      /* I =211 */
(PID.TID 0000.0001)                 2.937570224068400E+03,      /* I =212 */
(PID.TID 0000.0001)                 2.956286043844965E+03,      /* I =213 */
(PID.TID 0000.0001)                 2.975219849028410E+03,      /* I =214 */
(PID.TID 0000.0001)                 2.994378051105513E+03,      /* I =215 */
(PID.TID 0000.0001)                 3.013767055843197E+03,      /* I =216 */
(PID.TID 0000.0001)                 3.033393246503889E+03,      /* I =217 */
(PID.TID 0000.0001)                 3.053262966203299E+03,      /* I =218 */
(PID.TID 0000.0001)                 3.073382499472936E+03,      /* I =219 */
(PID.TID 0000.0001)                 3.093758053102107E+03,      /* I =220 */
(PID.TID 0000.0001)                 3.114395736346735E+03,      /* I =221 */
(PID.TID 0000.0001)                 3.135301540604763E+03,      /* I =222 */
(PID.TID 0000.0001)                 3.156481318670110E+03,      /* I =223 */
(PID.TID 0000.0001)                 3.177940763688756E+03,      /* I =224 */
(PID.TID 0000.0001)                 3.199685387951383E+03,      /* I =225 */
(PID.TID 0000.0001)                 3.221720501666802E+03,      /* I =226 */
(PID.TID 0000.0001)                 3.244051191868914E+03,      /* I =227 */
(PID.TID 0000.0001)                 3.266682301616923E+03,      /* I =228 */
(PID.TID 0000.0001)                 3.289618409653768E+03,      /* I =229 */
(PID.TID 0000.0001)                 3.312863810690933E+03,      /* I =230 */
(PID.TID 0000.0001)                 3.336422496488918E+03,      /* I =231 */
(PID.TID 0000.0001)                 3.360298137901429E+03,      /* I =232 */
(PID.TID 0000.0001)                 3.384494068047699E+03,      /* I =233 */
(PID.TID 0000.0001)                 3.409013266771312E+03,      /* I =234 */
(PID.TID 0000.0001)                 3.433858346535346E+03,      /* I =235 */
(PID.TID 0000.0001)                 3.459031539892702E+03,      /* I =236 */
(PID.TID 0000.0001)                 3.484534688657286E+03,      /* I =237 */
(PID.TID 0000.0001)                 3.510369234886317E+03,      /* I =238 */
(PID.TID 0000.0001)                 3.536536213766808E+03,      /* I =239 */
(PID.TID 0000.0001)                 3.563036248480352E+03,      /* I =240 */
(PID.TID 0000.0001)                 3.589869547100142E+03,      /* I =241 */
(PID.TID 0000.0001)                 3.617035901552984E+03,      /* I =242 */
(PID.TID 0000.0001)                 3.644534688657286E+03,      /* I =243 */
(PID.TID 0000.0001)                 3.672364873226036E+03,      /* I =244 */
(PID.TID 0000.0001)                 3.700525013202013E+03,      /* I =245 */
(PID.TID 0000.0001)                 3.729013266771312E+03,      /* I =246 */
(PID.TID 0000.0001)                 3.757827401381032E+03,      /* I =247 */
(PID.TID 0000.0001)                 3.786964804568096E+03,      /* I =248 */
(PID.TID 0000.0001)                 3.816422496488919E+03,      /* I =249 */
(PID.TID 0000.0001)                 3.846197144024266E+03,      /* I =250 */
(PID.TID 0000.0001)                 3.876285076320435E+03,      /* I =251 */
(PID.TID 0000.0001)                 3.906682301616923E+03,      /* I =252 */
(PID.TID 0000.0001)                 3.937384525202247E+03,      /* I =253 */
(PID.TID 0000.0001)                 3.968387168333469E+03,      /* I =254 */
(PID.TID 0000.0001)                 3.999685387951383E+03,      /* I =255 */
(PID.TID 0000.0001)                 4.031274097022090E+03,      /* I =256 */
(PID.TID 0000.0001)                 4.063147985336778E+03,      /* I =257 */
(PID.TID 0000.0001)                 4.095301540604764E+03,      /* I =258 */
(PID.TID 0000.0001)                 4.127729069680068E+03,      /* I =259 */
(PID.TID 0000.0001)                 4.160424719768774E+03,      /* I =260 */
(PID.TID 0000.0001)                 4.193382499472936E+03,      /* I =261 */
(PID.TID 0000.0001)                 4.226596299536633E+03,      /* I =262 */
(PID.TID 0000.0001)                 4.260059913170556E+03,      /* I =263 */
(PID.TID 0000.0001)                 4.293767055843198E+03,      /* I =264 */
(PID.TID 0000.0001)                 4.327711384438848E+03,      /* I =265 */
(PID.TID 0000.0001)                 4.361886515695078E+03,      /* I =266 */
(PID.TID 0000.0001)                 4.396286043844966E+03,      /* I =267 */
(PID.TID 0000.0001)                 4.430903557401734E+03,      /* I =268 */
(PID.TID 0000.0001)                 4.465732655035644E+03,      /* I =269 */
(PID.TID 0000.0001)                 4.500766960504689E+03,      /* I =270 */
(PID.TID 0000.0001)                 4.536000136611749E+03,      /* I =271 */
(PID.TID 0000.0001)                 4.571425898171348E+03,      /* I =272 */
(PID.TID 0000.0001)                 4.607038023978779E+03,      /* I =273 */
(PID.TID 0000.0001)                 4.642830367783311E+03,      /* I =274 */
(PID.TID 0000.0001)                 4.678796868275108E+03,      /* I =275 */
(PID.TID 0000.0001)                 4.714931558102679E+03,      /* I =276 */
(PID.TID 0000.0001)                 4.751228571943884E+03,      /* I =277 */
(PID.TID 0000.0001)                 4.787682153658923E+03,      /* I =278 */
(PID.TID 0000.0001)                 4.824286662558251E+03,      /* I =279 */
(PID.TID 0000.0001)                 4.861036578822124E+03,      /* I =280 */
(PID.TID 0000.0001)                 4.897926508111432E+03,      /* I =281 */
(PID.TID 0000.0001)                 4.934951185411759E+03,      /* I =282 */
(PID.TID 0000.0001)                 4.972105478154231E+03,      /* I =283 */
(PID.TID 0000.0001)                 5.009384388657714E+03,      /* I =284 */
(PID.TID 0000.0001)                 5.046783055937464E+03,      /* I =285 */
(PID.TID 0000.0001)                 5.084296756925278E+03,      /* I =286 */
(PID.TID 0000.0001)                 5.121920907145877E+03,      /* I =287 */
(PID.TID 0000.0001)                 5.159651060893420E+03,      /* I =288 */
(PID.TID 0000.0001)                 5.197482910951048E+03,      /* I =289 */
(PID.TID 0000.0001)                 5.235412287894979E+03,      /* I =290 */
(PID.TID 0000.0001)                 5.273435159023209E+03,      /* I =291 */
(PID.TID 0000.0001)                 5.311547626947144E+03,      /* I =292 */
(PID.TID 0000.0001)                 5.349745927882684E+03,      /* I =293 */
(PID.TID 0000.0001)                 5.388026429675374E+03,      /* I =294 */
(PID.TID 0000.0001)                 5.426385629592294E+03,      /* I =295 */
(PID.TID 0000.0001)                 5.464820151911323E+03,      /* I =296 */
(PID.TID 0000.0001)                 5.503326745336459E+03,      /* I =297 */
(PID.TID 0000.0001)                 5.541902280265867E+03,      /* I =298 */
(PID.TID 0000.0001)                 5.580543745937373E+03,      /* I =299 */
(PID.TID 0000.0001)                 5.619248247474226E+03,      /* I =300 */
(PID.TID 0000.0001)                 5.658013002852081E+03,      /* I =301 */
(PID.TID 0000.0001)                 5.696835339806423E+03,      /* I =302 */
(PID.TID 0000.0001)                 5.735712692697868E+03,      /* I =303 */
(PID.TID 0000.0001)                 5.774642599351238E+03,      /* I =304 */
(PID.TID 0000.0001)                 5.813622697882693E+03,      /* I =305 */
(PID.TID 0000.0001)                 5.852650723527802E+03,      /* I =306 */
(PID.TID 0000.0001)                 5.891724505482045E+03,      /* I =307 */
(PID.TID 0000.0001)                 5.930841963763944E+03,      /* I =308 */
(PID.TID 0000.0001)                 5.970001106109868E+03,      /* I =309 */
(PID.TID 0000.0001)                 6.009200024908421E+03,      /* I =310 */
(PID.TID 0000.0001)                 6.048436894181283E+03,      /* I =311 */
(PID.TID 0000.0001)                 6.087709966616470E+03,      /* I =312 */
(PID.TID 0000.0001)                 6.127017570659087E+03,      /* I =313 */
(PID.TID 0000.0001)                 6.166358107663826E+03,      /* I =314 */
(PID.TID 0000.0001)                 6.205730049112790E+03,      /* I =315 */
(PID.TID 0000.0001)                 6.245131933901508E+03,      /* I =316 */
(PID.TID 0000.0001)                 6.284562365695443E+03,      /* I =317 */
(PID.TID 0000.0001)                 6.324020010358739E+03,      /* I =318 */
(PID.TID 0000.0001)                 6.363503593456458E+03,      /* I =319 */
(PID.TID 0000.0001)                 6.403011897831137E+03       /* I =320 */
(PID.TID 0000.0001)     ;
(PID.TID 0000.0001) ycoord =   /* P-point Y coord ( m - cartesian, degrees - spherical ) */
(PID.TID 0000.0001)                 1.000000000000000E+02       /* J =  1 */
(PID.TID 0000.0001)     ;
(PID.TID 0000.0001) rcoord =   /* P-point R coordinate (  units of r ) */
(PID.TID 0000.0001)                -1.666666666666667E+00,      /* K =  1 */
(PID.TID 0000.0001)                -5.000000000000000E+00,      /* K =  2 */
(PID.TID 0000.0001)                -8.333333333333334E+00,      /* K =  3 */
(PID.TID 0000.0001)                -1.166666666666667E+01,      /* K =  4 */
(PID.TID 0000.0001)                -1.500000000000000E+01,      /* K =  5 */
(PID.TID 0000.0001)                -1.833333333333334E+01,      /* K =  6 */
(PID.TID 0000.0001)                -2.166666666666667E+01,      /* K =  7 */
(PID.TID 0000.0001)                -2.500000000000000E+01,      /* K =  8 */
(PID.TID 0000.0001)                -2.833333333333333E+01,      /* K =  9 */
(PID.TID 0000.0001)                -3.166666666666666E+01,      /* K = 10 */
(PID.TID 0000.0001)                -3.500000000000000E+01,      /* K = 11 */
(PID.TID 0000.0001)                -3.833333333333334E+01,      /* K = 12 */
(PID.TID 0000.0001)                -4.166666666666667E+01,      /* K = 13 */
(PID.TID 0000.0001)                -4.500000000000001E+01,      /* K = 14 */
(PID.TID 0000.0001)                -4.833333333333334E+01,      /* K = 15 */
(PID.TID 0000.0001)                -5.166666666666668E+01,      /* K = 16 */
(PID.TID 0000.0001)                -5.500000000000001E+01,      /* K = 17 */
(PID.TID 0000.0001)                -5.833333333333335E+01,      /* K = 18 */
(PID.TID 0000.0001)                -6.166666666666669E+01,      /* K = 19 */
(PID.TID 0000.0001)                -6.500000000000001E+01,      /* K = 20 */
(PID.TID 0000.0001)                -6.833333333333334E+01,      /* K = 21 */
(PID.TID 0000.0001)                -7.166666666666667E+01,      /* K = 22 */
(PID.TID 0000.0001)                -7.500000000000000E+01,      /* K = 23 */
(PID.TID 0000.0001)                -7.833333333333333E+01,      /* K = 24 */
(PID.TID 0000.0001)                -8.166666666666666E+01,      /* K = 25 */
(PID.TID 0000.0001)                -8.499999999999999E+01,      /* K = 26 */
(PID.TID 0000.0001)                -8.833333333333331E+01,      /* K = 27 */
(PID.TID 0000.0001)                -9.166666666666664E+01,      /* K = 28 */
(PID.TID 0000.0001)                -9.499999999999997E+01,      /* K = 29 */
(PID.TID 0000.0001)                -9.833333333333330E+01,      /* K = 30 */
(PID.TID 0000.0001)                -1.016666666666666E+02,      /* K = 31 */
(PID.TID 0000.0001)                -1.050000000000000E+02,      /* K = 32 */
(PID.TID 0000.0001)                -1.083333333333333E+02,      /* K = 33 */
(PID.TID 0000.0001)                -1.116666666666666E+02,      /* K = 34 */
(PID.TID 0000.0001)                -1.149999999999999E+02,      /* K = 35 */
(PID.TID 0000.0001)                -1.183333333333333E+02,      /* K = 36 */
(PID.TID 0000.0001)                -1.216666666666666E+02,      /* K = 37 */
(PID.TID 0000.0001)                -1.249999999999999E+02,      /* K = 38 */
(PID.TID 0000.0001)                -1.283333333333333E+02,      /* K = 39 */
(PID.TID 0000.0001)                -1.316666666666666E+02,      /* K = 40 */
(PID.TID 0000.0001)                -1.349999999999999E+02,      /* K = 41 */
(PID.TID 0000.0001)                -1.383333333333333E+02,      /* K = 42 */
(PID.TID 0000.0001)                -1.416666666666666E+02,      /* K = 43 */
(PID.TID 0000.0001)                -1.450000000000000E+02,      /* K = 44 */
(PID.TID 0000.0001)                -1.483333333333333E+02,      /* K = 45 */
(PID.TID 0000.0001)                -1.516666666666667E+02,      /* K = 46 */
(PID.TID 0000.0001)                -1.550000000000000E+02,      /* K = 47 */
(PID.TID 0000.0001)                -1.583333333333333E+02,      /* K = 48 */
(PID.TID 0000.0001)                -1.616666666666667E+02,      /* K = 49 */
(PID.TID 0000.0001)                -1.650000000000000E+02,      /* K = 50 */
(PID.TID 0000.0001)                -1.683333333333334E+02,      /* K = 51 */
(PID.TID 0000.0001)                -1.716666666666667E+02,      /* K = 52 */
(PID.TID 0000.0001)                -1.750000000000001E+02,      /* K = 53 */
(PID.TID 0000.0001)                -1.783333333333334E+02,      /* K = 54 */
(PID.TID 0000.0001)                -1.816666666666667E+02,      /* K = 55 */
(PID.TID 0000.0001)                -1.850000000000001E+02,      /* K = 56 */
(PID.TID 0000.0001)                -1.883333333333334E+02,      /* K = 57 */
(PID.TID 0000.0001)                -1.916666666666668E+02,      /* K = 58 */
(PID.TID 0000.0001)                -1.950000000000001E+02,      /* K = 59 */
(PID.TID 0000.0001)                -1.983333333333335E+02       /* K = 60 */
(PID.TID 0000.0001)     ;
(PID.TID 0000.0001) rF =   /* W-Interf. R coordinate (  units of r ) */
(PID.TID 0000.0001)                 0.000000000000000E+00,      /* K =  1 */
(PID.TID 0000.0001)                -3.333333333333333E+00,      /* K =  2 */
(PID.TID 0000.0001)                -6.666666666666667E+00,      /* K =  3 */
(PID.TID 0000.0001)                -1.000000000000000E+01,      /* K =  4 */
(PID.TID 0000.0001)                -1.333333333333333E+01,      /* K =  5 */
(PID.TID 0000.0001)                -1.666666666666667E+01,      /* K =  6 */
(PID.TID 0000.0001)                -2.000000000000000E+01,      /* K =  7 */
(PID.TID 0000.0001)                -2.333333333333333E+01,      /* K =  8 */
(PID.TID 0000.0001)                -2.666666666666666E+01,      /* K =  9 */
(PID.TID 0000.0001)                -3.000000000000000E+01,      /* K = 10 */
(PID.TID 0000.0001)                -3.333333333333333E+01,      /* K = 11 */
(PID.TID 0000.0001)                -3.666666666666666E+01,      /* K = 12 */
(PID.TID 0000.0001)                -4.000000000000000E+01,      /* K = 13 */
(PID.TID 0000.0001)                -4.333333333333334E+01,      /* K = 14 */
(PID.TID 0000.0001)                -4.666666666666667E+01,      /* K = 15 */
(PID.TID 0000.0001)                -5.000000000000001E+01,      /* K = 16 */
(PID.TID 0000.0001)                -5.333333333333334E+01,      /* K = 17 */
(PID.TID 0000.0001)                -5.666666666666668E+01,      /* K = 18 */
(PID.TID 0000.0001)                -6.000000000000001E+01,      /* K = 19 */
(PID.TID 0000.0001)                -6.333333333333335E+01,      /* K = 20 */
(PID.TID 0000.0001)                -6.666666666666669E+01,      /* K = 21 */
(PID.TID 0000.0001)                -7.000000000000001E+01,      /* K = 22 */
(PID.TID 0000.0001)                -7.333333333333334E+01,      /* K = 23 */
(PID.TID 0000.0001)                -7.666666666666667E+01,      /* K = 24 */
(PID.TID 0000.0001)                -8.000000000000000E+01,      /* K = 25 */
(PID.TID 0000.0001)                -8.333333333333333E+01,      /* K = 26 */
(PID.TID 0000.0001)                -8.666666666666666E+01,      /* K = 27 */
(PID.TID 0000.0001)                -8.999999999999999E+01,      /* K = 28 */
(PID.TID 0000.0001)                -9.333333333333331E+01,      /* K = 29 */
(PID.TID 0000.0001)                -9.666666666666664E+01,      /* K = 30 */
(PID.TID 0000.0001)                -9.999999999999997E+01,      /* K = 31 */
(PID.TID 0000.0001)                -1.033333333333333E+02,      /* K = 32 */
(PID.TID 0000.0001)                -1.066666666666666E+02,      /* K = 33 */
(PID.TID 0000.0001)                -1.100000000000000E+02,      /* K = 34 */
(PID.TID 0000.0001)                -1.133333333333333E+02,      /* K = 35 */
(PID.TID 0000.0001)                -1.166666666666666E+02,      /* K = 36 */
(PID.TID 0000.0001)                -1.199999999999999E+02,      /* K = 37 */
(PID.TID 0000.0001)                -1.233333333333333E+02,      /* K = 38 */
(PID.TID 0000.0001)                -1.266666666666666E+02,      /* K = 39 */
(PID.TID 0000.0001)                -1.299999999999999E+02,      /* K = 40 */
(PID.TID 0000.0001)                -1.333333333333333E+02,      /* K = 41 */
(PID.TID 0000.0001)                -1.366666666666666E+02,      /* K = 42 */
(PID.TID 0000.0001)                -1.400000000000000E+02,      /* K = 43 */
(PID.TID 0000.0001)                -1.433333333333333E+02,      /* K = 44 */
(PID.TID 0000.0001)                -1.466666666666667E+02,      /* K = 45 */
(PID.TID 0000.0001)                -1.500000000000000E+02,      /* K = 46 */
(PID.TID 0000.0001)                -1.533333333333333E+02,      /* K = 47 */
(PID.TID 0000.0001)                -1.566666666666667E+02,      /* K = 48 */
(PID.TID 0000.0001)                -1.600000000000000E+02,      /* K = 49 */
(PID.TID 0000.0001)                -1.633333333333334E+02,      /* K = 50 */
(PID.TID 0000.0001)                -1.666666666666667E+02,      /* K = 51 */
(PID.TID 0000.0001)                -1.700000000000001E+02,      /* K = 52 */
(PID.TID 0000.0001)                -1.733333333333334E+02,      /* K = 53 */
(PID.TID 0000.0001)                -1.766666666666667E+02,      /* K = 54 */
(PID.TID 0000.0001)                -1.800000000000001E+02,      /* K = 55 */
(PID.TID 0000.0001)                -1.833333333333334E+02,      /* K = 56 */
(PID.TID 0000.0001)                -1.866666666666668E+02,      /* K = 57 */
(PID.TID 0000.0001)                -1.900000000000001E+02,      /* K = 58 */
(PID.TID 0000.0001)                -1.933333333333335E+02,      /* K = 59 */
(PID.TID 0000.0001)                -1.966666666666668E+02,      /* K = 60 */
(PID.TID 0000.0001)                -2.000000000000001E+02       /* K = 61 */
(PID.TID 0000.0001)     ;
(PID.TID 0000.0001) dxF =  /* dxF(:,1,:,1) ( m - cartesian, degrees - spherical ) */
(PID.TID 0000.0001)                 1.333350557843028E+01,      /* I =  1 */
(PID.TID 0000.0001)                 1.333351440956528E+01,      /* I =  2 */
(PID.TID 0000.0001)                 1.333352369347595E+01,      /* I =  3 */
(PID.TID 0000.0001)                 1.333353345337592E+01,      /* I =  4 */
(PID.TID 0000.0001)                 1.333354371366897E+01,      /* I =  5 */
(PID.TID 0000.0001)                 1.333355450000997E+01,      /* I =  6 */
(PID.TID 0000.0001)                 1.333356583936910E+01,      /* I =  7 */
(PID.TID 0000.0001)                 1.333357776009920E+01,      /* I =  8 */
(PID.TID 0000.0001)                 1.333359029200671E+01,      /* I =  9 */
(PID.TID 0000.0001)                 1.333360346642616E+01,      /* I = 10 */
(PID.TID 0000.0001)                 1.333361731629850E+01,      /* I = 11 */
(PID.TID 0000.0001)                 1.333363187625347E+01,      /* I = 12 */
(PID.TID 0000.0001)                 1.333364718269615E+01,      /* I = 13 */
(PID.TID 0000.0001)                 1.333366327389799E+01,      /* I = 14 */
(PID.TID 0000.0001)                 1.333368019009244E+01,      /* I = 15 */
(PID.TID 0000.0001)                 1.333369797357559E+01,      /* I = 16 */
(PID.TID 0000.0001)                 1.333371666881184E+01,      /* I = 17 */
(PID.TID 0000.0001)                 1.333373632254509E+01,      /* I = 18 */
(PID.TID 0000.0001)                 1.333375698391556E+01,      /* I = 19 */
(PID.TID 0000.0001)                 1.333377870458262E+01,      /* I = 20 */
(PID.TID 0000.0001)                 1.333380153885394E+01,      /* I = 21 */
(PID.TID 0000.0001)                 1.333382554382122E+01,      /* I = 22 */
(PID.TID 0000.0001)                 1.333385077950289E+01,      /* I = 23 */
(PID.TID 0000.0001)                 1.333387730899413E+01,      /* I = 24 */
(PID.TID 0000.0001)                 1.333390519862456E+01,      /* I = 25 */
(PID.TID 0000.0001)                 1.333393451812401E+01,      /* I = 26 */
(PID.TID 0000.0001)                 1.333396534079683E+01,      /* I = 27 */
(PID.TID 0000.0001)                 1.333399774370505E+01,      /* I = 28 */
(PID.TID 0000.0001)                 1.333403180786100E+01,      /* I = 29 */
(PID.TID 0000.0001)                 1.333406761842972E+01,      /* I = 30 */
(PID.TID 0000.0001)                 1.333410526494186E+01,      /* I = 31 */
(PID.TID 0000.0001)                 1.333414484151735E+01,      /* I = 32 */
(PID.TID 0000.0001)                 1.333418644710058E+01,      /* I = 33 */
(PID.TID 0000.0001)                 1.333423018570770E+01,      /* I = 34 */
(PID.TID 0000.0001)                 1.333427616668645E+01,      /* I = 35 */
(PID.TID 0000.0001)                 1.333432450498941E+01,      /* I = 36 */
(PID.TID 0000.0001)                 1.333437532146121E+01,      /* I = 37 */
(PID.TID 0000.0001)                 1.333442874314039E+01,      /* I = 38 */
(PID.TID 0000.0001)                 1.333448490357685E+01,      /* I = 39 */
(PID.TID 0000.0001)                 1.333454394316540E+01,      /* I = 40 */
(PID.TID 0000.0001)                 1.333460600949649E+01,      /* I = 41 */
(PID.TID 0000.0001)                 1.333467125772490E+01,      /* I = 42 */
(PID.TID 0000.0001)                 1.333473985095722E+01,      /* I = 43 */
(PID.TID 0000.0001)                 1.333481196065927E+01,      /* I = 44 */
(PID.TID 0000.0001)                 1.333488776708430E+01,      /* I = 45 */
(PID.TID 0000.0001)                 1.333496745972311E+01,      /* I = 46 */
(PID.TID 0000.0001)                 1.333505123777728E+01,      /* I = 47 */
(PID.TID 0000.0001)                 1.333513931065653E+01,      /* I = 48 */
(PID.TID 0000.0001)                 1.333523189850155E+01,      /* I = 49 */
(PID.TID 0000.0001)                 1.333532923273362E+01,      /* I = 50 */
(PID.TID 0000.0001)                 1.333543155663230E+01,      /* I = 51 */
(PID.TID 0000.0001)                 1.333553912594271E+01,      /* I = 52 */
(PID.TID 0000.0001)                 1.333565220951381E+01,      /* I = 53 */
(PID.TID 0000.0001)                 1.333577108996939E+01,      /* I = 54 */
(PID.TID 0000.0001)                 1.333589606441332E+01,      /* I = 55 */
(PID.TID 0000.0001)                 1.333602744517087E+01,      /* I = 56 */
(PID.TID 0000.0001)                 1.333616556056795E+01,      /* I = 57 */
(PID.TID 0000.0001)                 1.333631075575012E+01,      /* I = 58 */
(PID.TID 0000.0001)                 1.333646339354350E+01,      /* I = 59 */
(PID.TID 0000.0001)                 1.333662385535963E+01,      /* I = 60 */
(PID.TID 0000.0001)                 1.333679254214663E+01,      /* I = 61 */
(PID.TID 0000.0001)                 1.333696987538879E+01,      /* I = 62 */
(PID.TID 0000.0001)                 1.333715629815737E+01,      /* I = 63 */
(PID.TID 0000.0001)                 1.333735227621493E+01,      /* I = 64 */
(PID.TID 0000.0001)                 1.333755829917607E+01,      /* I = 65 */
(PID.TID 0000.0001)                 1.333777488172740E+01,      /* I = 66 */
(PID.TID 0000.0001)                 1.333800256490973E+01,      /* I = 67 */
(PID.TID 0000.0001)                 1.333824191746569E+01,      /* I = 68 */
(PID.TID 0000.0001)                 1.333849353725603E+01,      /* I = 69 */
(PID.TID 0000.0001)                 1.333875805274814E+01,      /* I = 70 */
(PID.TID 0000.0001)                 1.333903612458039E+01,      /* I = 71 */
(PID.TID 0000.0001)                 1.333932844720622E+01,      /* I = 72 */
(PID.TID 0000.0001)                 1.333963575062193E+01,      /* I = 73 */
(PID.TID 0000.0001)                 1.333995880218238E+01,      /* I = 74 */
(PID.TID 0000.0001)                 1.334029840850922E+01,      /* I = 75 */
(PID.TID 0000.0001)                 1.334065541749604E+01,      /* I = 76 */
(PID.TID 0000.0001)                 1.334103072041559E+01,      /* I = 77 */
(PID.TID 0000.0001)                 1.334142525413410E+01,      /* I = 78 */
(PID.TID 0000.0001)                 1.334184000343805E+01,      /* I = 79 */
(PID.TID 0000.0001)                 1.334227600347911E+01,      /* I = 80 */
(PID.TID 0000.0001)                 1.334273434234323E+01,      /* I = 81 */
(PID.TID 0000.0001)                 1.334321616375004E+01,      /* I = 82 */
(PID.TID 0000.0001)                 1.334372266988904E+01,      /* I = 83 */
(PID.TID 0000.0001)                 1.334425512439963E+01,      /* I = 84 */
(PID.TID 0000.0001)                 1.334481485550199E+01,      /* I = 85 */
(PID.TID 0000.0001)                 1.334540325928642E+01,      /* I = 86 */
(PID.TID 0000.0001)                 1.334602180316902E+01,      /* I = 87 */
(PID.TID 0000.0001)                 1.334667202952212E+01,      /* I = 88 */
(PID.TID 0000.0001)                 1.334735555948791E+01,      /* I = 89 */
(PID.TID 0000.0001)                 1.334807409698463E+01,      /* I = 90 */
(PID.TID 0000.0001)                 1.334882943291471E+01,      /* I = 91 */
(PID.TID 0000.0001)                 1.334962344958492E+01,      /* I = 92 */
(PID.TID 0000.0001)                 1.335045812534896E+01,      /* I = 93 */
(PID.TID 0000.0001)                 1.335133553948354E+01,      /* I = 94 */
(PID.TID 0000.0001)                 1.335225787730935E+01,      /* I = 95 */
(PID.TID 0000.0001)                 1.335322743556898E+01,      /* I = 96 */
(PID.TID 0000.0001)                 1.335424662807443E+01,      /* I = 97 */
(PID.TID 0000.0001)                 1.335531799163729E+01,      /* I = 98 */
(PID.TID 0000.0001)                 1.335644419229545E+01,      /* I = 99 */
(PID.TID 0000.0001)                 1.335762803185068E+01,      /* I =100 */
(PID.TID 0000.0001)                 1.335887245473227E+01,      /* I =101 */
(PID.TID 0000.0001)                 1.336018055520228E+01,      /* I =102 */
(PID.TID 0000.0001)                 1.336155558491909E+01,      /* I =103 */
(PID.TID 0000.0001)                 1.336300096087628E+01,      /* I =104 */
(PID.TID 0000.0001)                 1.336452027373481E+01,      /* I =105 */
(PID.TID 0000.0001)                 1.336611729656740E+01,      /* I =106 */
(PID.TID 0000.0001)                 1.336779599403433E+01,      /* I =107 */
(PID.TID 0000.0001)                 1.336956053201144E+01,      /* I =108 */
(PID.TID 0000.0001)                 1.337141528769127E+01,      /* I =109 */
(PID.TID 0000.0001)                 1.337336486017965E+01,      /* I =110 */
(PID.TID 0000.0001)                 1.337541408161077E+01,      /* I =111 */
(PID.TID 0000.0001)                 1.337756802880465E+01,      /* I =112 */
(PID.TID 0000.0001)                 1.337983203549213E+01,      /* I =113 */
(PID.TID 0000.0001)                 1.338221170513314E+01,      /* I =114 */
(PID.TID 0000.0001)                 1.338471292435540E+01,      /* I =115 */
(PID.TID 0000.0001)                 1.338734187704133E+01,      /* I =116 */
(PID.TID 0000.0001)                 1.339010505909238E+01,      /* I =117 */
(PID.TID 0000.0001)                 1.339300929390070E+01,      /* I =118 */
(PID.TID 0000.0001)                 1.339606174855942E+01,      /* I =119 */
(PID.TID 0000.0001)                 1.339926995084359E+01,      /* I =120 */
(PID.TID 0000.0001)                 1.340264180699529E+01,      /* I =121 */
(PID.TID 0000.0001)                 1.340618562034696E+01,      /* I =122 */
(PID.TID 0000.0001)                 1.340991011081868E+01,      /* I =123 */
(PID.TID 0000.0001)                 1.341382443532556E+01,      /* I =124 */
(PID.TID 0000.0001)                 1.341793820913294E+01,      /* I =125 */
(PID.TID 0000.0001)                 1.342226152819769E+01,      /* I =126 */
(PID.TID 0000.0001)                 1.342680499253510E+01,      /* I =127 */
(PID.TID 0000.0001)                 1.343157973065163E+01,      /* I =128 */
(PID.TID 0000.0001)                 1.343659742508456E+01,      /* I =129 */
(PID.TID 0000.0001)                 1.344187033909057E+01,      /* I =130 */
(PID.TID 0000.0001)                 1.344741134452547E+01,      /* I =131 */
(PID.TID 0000.0001)                 1.345323395095843E+01,      /* I =132 */
(PID.TID 0000.0001)                 1.345935233606388E+01,      /* I =133 */
(PID.TID 0000.0001)                 1.346578137733485E+01,      /* I =134 */
(PID.TID 0000.0001)                 1.347253668516156E+01,      /* I =135 */
(PID.TID 0000.0001)                 1.347963463731868E+01,      /* I =136 */
(PID.TID 0000.0001)                 1.348709241490466E+01,      /* I =137 */
(PID.TID 0000.0001)                 1.349492803977558E+01,      /* I =138 */
(PID.TID 0000.0001)                 1.350316041351508E+01,      /* I =139 */
(PID.TID 0000.0001)                 1.351180935798093E+01,      /* I =140 */
(PID.TID 0000.0001)                 1.352089565746654E+01,      /* I =141 */
(PID.TID 0000.0001)                 1.353044110251419E+01,      /* I =142 */
(PID.TID 0000.0001)                 1.354046853541373E+01,      /* I =143 */
(PID.TID 0000.0001)                 1.355100189741760E+01,      /* I =144 */
(PID.TID 0000.0001)                 1.356206627769899E+01,      /* I =145 */
(PID.TID 0000.0001)                 1.357368796407594E+01,      /* I =146 */
(PID.TID 0000.0001)                 1.358589449551856E+01,      /* I =147 */
(PID.TID 0000.0001)                 1.359871471645078E+01,      /* I =148 */
(PID.TID 0000.0001)                 1.361217883285115E+01,      /* I =149 */
(PID.TID 0000.0001)                 1.362631847014915E+01,      /* I =150 */
(PID.TID 0000.0001)                 1.364116673290460E+01,      /* I =151 */
(PID.TID 0000.0001)                 1.365675826624731E+01,      /* I =152 */
(PID.TID 0000.0001)                 1.367312931904298E+01,      /* I =153 */
(PID.TID 0000.0001)                 1.369031780873773E+01,      /* I =154 */
(PID.TID 0000.0001)                 1.370836338781988E+01,      /* I =155 */
(PID.TID 0000.0001)                 1.372730751182062E+01,      /* I =156 */
(PID.TID 0000.0001)                 1.374719350875757E+01,      /* I =157 */
(PID.TID 0000.0001)                 1.376806664990509E+01,      /* I =158 */
(PID.TID 0000.0001)                 1.378997422175274E+01,      /* I =159 */
(PID.TID 0000.0001)                 1.381296559898911E+01,      /* I =160 */
(PID.TID 0000.0001)                 1.383709231832104E+01,      /* I =161 */
(PID.TID 0000.0001)                 1.386240815290873E+01,      /* I =162 */
(PID.TID 0000.0001)                 1.388896918716481E+01,      /* I =163 */
(PID.TID 0000.0001)                 1.391683389163015E+01,      /* I =164 */
(PID.TID 0000.0001)                 1.394606319760068E+01,      /* I =165 */
(PID.TID 0000.0001)                 1.397672057113785E+01,      /* I =166 */
(PID.TID 0000.0001)                 1.400887208604991E+01,      /* I =167 */
(PID.TID 0000.0001)                 1.404258649538309E+01,      /* I =168 */
(PID.TID 0000.0001)                 1.407793530090862E+01,      /* I =169 */
(PID.TID 0000.0001)                 1.411499282003617E+01,      /* I =170 */
(PID.TID 0000.0001)                 1.415383624952395E+01,      /* I =171 */
(PID.TID 0000.0001)                 1.419454572529201E+01,      /* I =172 */
(PID.TID 0000.0001)                 1.423720437757808E+01,      /* I =173 */
(PID.TID 0000.0001)                 1.428189838060363E+01,      /* I =174 */
(PID.TID 0000.0001)                 1.432871699584345E+01,      /* I =175 */
(PID.TID 0000.0001)                 1.437775260791372E+01,      /* I =176 */
(PID.TID 0000.0001)                 1.442910075201240E+01,      /* I =177 */
(PID.TID 0000.0001)                 1.448286013176230E+01,      /* I =178 */
(PID.TID 0000.0001)                 1.453913262622100E+01,      /* I =179 */
(PID.TID 0000.0001)                 1.459802328473512E+01,      /* I =180 */
(PID.TID 0000.0001)                 1.465964030822818E+01,      /* I =181 */
(PID.TID 0000.0001)                 1.472409501542447E+01,      /* I =182 */
(PID.TID 0000.0001)                 1.479150179242509E+01,      /* I =183 */
(PID.TID 0000.0001)                 1.486197802396983E+01,      /* I =184 */
(PID.TID 0000.0001)                 1.493564400464020E+01,      /* I =185 */
(PID.TID 0000.0001)                 1.501262282818657E+01,      /* I =186 */
(PID.TID 0000.0001)                 1.509304025309917E+01,      /* I =187 */
(PID.TID 0000.0001)                 1.517702454248925E+01,      /* I =188 */
(PID.TID 0000.0001)                 1.526470627630714E+01,      /* I =189 */
(PID.TID 0000.0001)                 1.535621813389983E+01,      /* I =190 */
(PID.TID 0000.0001)                 1.545169464490609E+01,      /* I =191 */
(PID.TID 0000.0001)                 1.555127190650460E+01,      /* I =192 */
(PID.TID 0000.0001)                 1.565508726507390E+01,      /* I =193 */
(PID.TID 0000.0001)                 1.576327896039616E+01,      /* I =194 */
(PID.TID 0000.0001)                 1.587598573064292E+01,      /* I =195 */
(PID.TID 0000.0001)                 1.599334637652494E+01,      /* I =196 */
(PID.TID 0000.0001)                 1.611549928317337E+01,      /* I =197 */
(PID.TID 0000.0001)                 1.624258189854968E+01,      /* I =198 */
(PID.TID 0000.0001)                 1.637473016746109E+01,      /* I =199 */
(PID.TID 0000.0001)                 1.651207792058980E+01,      /* I =200 */
(PID.TID 0000.0001)                 1.665475621833111E+01,      /* I =201 */
(PID.TID 0000.0001)                 1.680289264967994E+01,      /* I =202 */
(PID.TID 0000.0001)                 1.695661058690918E+01,      /* I =203 */
(PID.TID 0000.0001)                 1.711602839734634E+01,      /* I =204 */
(PID.TID 0000.0001)                 1.728125861417839E+01,      /* I =205 */
(PID.TID 0000.0001)                 1.745240706889426E+01,      /* I =206 */
(PID.TID 0000.0001)                 1.762957198870894E+01,      /* I =207 */
(PID.TID 0000.0001)                 1.781284306309535E+01,      /* I =208 */
(PID.TID 0000.0001)                 1.800230048437439E+01,      /* I =209 */
(PID.TID 0000.0001)                 1.819801396816951E+01,      /* I =210 */
(PID.TID 0000.0001)                 1.840004176040835E+01,      /* I =211 */
(PID.TID 0000.0001)                 1.860842963843782E+01,      /* I =212 */
(PID.TID 0000.0001)                 1.882320991469193E+01,      /* I =213 */
(PID.TID 0000.0001)                 1.904440045219844E+01,      /* I =214 */
(PID.TID 0000.0001)                 1.927200370200823E+01,      /* I =215 */
(PID.TID 0000.0001)                 1.950600577335953E+01,      /* I =216 */
(PID.TID 0000.0001)                 1.974637554802371E+01,      /* I =217 */
(PID.TID 0000.0001)                 1.999306385079687E+01,      /* I =218 */
(PID.TID 0000.0001)                 2.024600268847589E+01,      /* I =219 */
(PID.TID 0000.0001)                 2.050510456986654E+01,      /* I =220 */
(PID.TID 0000.0001)                 2.077026191939032E+01,      /* I =221 */
(PID.TID 0000.0001)                 2.104134659666656E+01,      /* I =222 */
(PID.TID 0000.0001)                 2.131820953402739E+01,      /* I =223 */
(PID.TID 0000.0001)                 2.160068050326367E+01,      /* I =224 */
(PID.TID 0000.0001)                 2.188856802198952E+01,      /* I =225 */
(PID.TID 0000.0001)                 2.218165940884890E+01,      /* I =226 */
(PID.TID 0000.0001)                 2.247972099537336E+01,      /* I =227 */
(PID.TID 0000.0001)                 2.278249850064545E+01,      /* I =228 */
(PID.TID 0000.0001)                 2.308971757304531E+01,      /* I =229 */
(PID.TID 0000.0001)                 2.340108450128388E+01,      /* I =230 */
(PID.TID 0000.0001)                 2.371628709468741E+01,      /* I =231 */
(PID.TID 0000.0001)                 2.403499573033461E+01,      /* I =232 */
(PID.TID 0000.0001)                 2.435686456220453E+01,      /* I =233 */
(PID.TID 0000.0001)                 2.468153288502243E+01,      /* I =234 */
(PID.TID 0000.0001)                 2.500862664304538E+01,      /* I =235 */
(PID.TID 0000.0001)                 2.533776007166725E+01,      /* I =236 */
(PID.TID 0000.0001)                 2.566853745750001E+01,      /* I =237 */
(PID.TID 0000.0001)                 2.600055500056160E+01,      /* I =238 */
(PID.TID 0000.0001)                 2.633340276042106E+01,      /* I =239 */
(PID.TID 0000.0001)                 2.666666666666666E+01,      /* I =240 */
(PID.TID 0000.0001)                 2.699993057291228E+01,      /* I =241 */
(PID.TID 0000.0001)                 2.733277833277173E+01,      /* I =242 */
(PID.TID 0000.0001)                 2.766479587583332E+01,      /* I =243 */
(PID.TID 0000.0001)                 2.799557326166608E+01,      /* I =244 */
(PID.TID 0000.0001)                 2.832470669028795E+01,      /* I =245 */
(PID.TID 0000.0001)                 2.865180044831091E+01,      /* I =246 */
(PID.TID 0000.0001)                 2.897646877112880E+01,      /* I =247 */
(PID.TID 0000.0001)                 2.929833760299872E+01,      /* I =248 */
(PID.TID 0000.0001)                 2.961704623864592E+01,      /* I =249 */
(PID.TID 0000.0001)                 2.993224883204945E+01,      /* I =250 */
(PID.TID 0000.0001)                 3.024361576028802E+01,      /* I =251 */
(PID.TID 0000.0001)                 3.055083483268788E+01,      /* I =252 */
(PID.TID 0000.0001)                 3.085361233795997E+01,      /* I =253 */
(PID.TID 0000.0001)                 3.115167392448443E+01,      /* I =254 */
(PID.TID 0000.0001)                 3.144476531134382E+01,      /* I =255 */
(PID.TID 0000.0001)                 3.173265283006967E+01,      /* I =256 */
(PID.TID 0000.0001)                 3.201512379930595E+01,      /* I =257 */
(PID.TID 0000.0001)                 3.229198673666677E+01,      /* I =258 */
(PID.TID 0000.0001)                 3.256307141394301E+01,      /* I =259 */
(PID.TID 0000.0001)                 3.282822876346680E+01,      /* I =260 */
(PID.TID 0000.0001)                 3.308733064485744E+01,      /* I =261 */
(PID.TID 0000.0001)                 3.334026948253647E+01,      /* I =262 */
(PID.TID 0000.0001)                 3.358695778530962E+01,      /* I =263 */
(PID.TID 0000.0001)                 3.382732755997380E+01,      /* I =264 */
(PID.TID 0000.0001)                 3.406132963132509E+01,      /* I =265 */
(PID.TID 0000.0001)                 3.428893288113490E+01,      /* I =266 */
(PID.TID 0000.0001)                 3.451012341864140E+01,      /* I =267 */
(PID.TID 0000.0001)                 3.472490369489551E+01,      /* I =268 */
(PID.TID 0000.0001)                 3.493329157292499E+01,      /* I =269 */
(PID.TID 0000.0001)                 3.513531936516383E+01,      /* I =270 */
(PID.TID 0000.0001)                 3.533103284895893E+01,      /* I =271 */
(PID.TID 0000.0001)                 3.552049027023799E+01,      /* I =272 */
(PID.TID 0000.0001)                 3.570376134462440E+01,      /* I =273 */
(PID.TID 0000.0001)                 3.588092626443907E+01,      /* I =274 */
(PID.TID 0000.0001)                 3.605207471915494E+01,      /* I =275 */
(PID.TID 0000.0001)                 3.621730493598699E+01,      /* I =276 */
(PID.TID 0000.0001)                 3.637672274642415E+01,      /* I =277 */
(PID.TID 0000.0001)                 3.653044068365339E+01,      /* I =278 */
(PID.TID 0000.0001)                 3.667857711500223E+01,      /* I =279 */
(PID.TID 0000.0001)                 3.682125541274353E+01,      /* I =280 */
(PID.TID 0000.0001)                 3.695860316587224E+01,      /* I =281 */
(PID.TID 0000.0001)                 3.709075143478366E+01,      /* I =282 */
(PID.TID 0000.0001)                 3.721783405015996E+01,      /* I =283 */
(PID.TID 0000.0001)                 3.733998695680840E+01,      /* I =284 */
(PID.TID 0000.0001)                 3.745734760269041E+01,      /* I =285 */
(PID.TID 0000.0001)                 3.757005437293716E+01,      /* I =286 */
(PID.TID 0000.0001)                 3.767824606825943E+01,      /* I =287 */
(PID.TID 0000.0001)                 3.778206142682873E+01,      /* I =288 */
(PID.TID 0000.0001)                 3.788163868842724E+01,      /* I =289 */
(PID.TID 0000.0001)                 3.797711519943351E+01,      /* I =290 */
(PID.TID 0000.0001)                 3.806862705702619E+01,      /* I =291 */
(PID.TID 0000.0001)                 3.815630879084409E+01,      /* I =292 */
(PID.TID 0000.0001)                 3.824029308023417E+01,      /* I =293 */
(PID.TID 0000.0001)                 3.832071050514676E+01,      /* I =294 */
(PID.TID 0000.0001)                 3.839768932869313E+01,      /* I =295 */
(PID.TID 0000.0001)                 3.847135530936350E+01,      /* I =296 */
(PID.TID 0000.0001)                 3.854183154090824E+01,      /* I =297 */
(PID.TID 0000.0001)                 3.860923831790885E+01,      /* I =298 */
(PID.TID 0000.0001)                 3.867369302510515E+01,      /* I =299 */
(PID.TID 0000.0001)                 3.873531004859822E+01,      /* I =300 */
(PID.TID 0000.0001)                 3.879420070711233E+01,      /* I =301 */
(PID.TID 0000.0001)                 3.885047320157103E+01,      /* I =302 */
(PID.TID 0000.0001)                 3.890423258132093E+01,      /* I =303 */
(PID.TID 0000.0001)                 3.895558072541962E+01,      /* I =304 */
(PID.TID 0000.0001)                 3.900461633748988E+01,      /* I =305 */
(PID.TID 0000.0001)                 3.905143495272970E+01,      /* I =306 */
(PID.TID 0000.0001)                 3.909612895575525E+01,      /* I =307 */
(PID.TID 0000.0001)                 3.913878760804132E+01,      /* I =308 */
(PID.TID 0000.0001)                 3.917949708380939E+01,      /* I =309 */
(PID.TID 0000.0001)                 3.921834051329716E+01,      /* I =310 */
(PID.TID 0000.0001)                 3.925539803242471E+01,      /* I =311 */
(PID.TID 0000.0001)                 3.929074683795024E+01,      /* I =312 */
(PID.TID 0000.0001)                 3.932446124728342E+01,      /* I =313 */
(PID.TID 0000.0001)                 3.935661276219549E+01,      /* I =314 */
(PID.TID 0000.0001)                 3.938727013573265E+01,      /* I =315 */
(PID.TID 0000.0001)                 3.941649944170319E+01,      /* I =316 */
(PID.TID 0000.0001)                 3.944436414616852E+01,      /* I =317 */
(PID.TID 0000.0001)                 3.947092518042460E+01,      /* I =318 */
(PID.TID 0000.0001)                 3.949624101501229E+01,      /* I =319 */
(PID.TID 0000.0001)                 3.952036773434423E+01       /* I =320 */
(PID.TID 0000.0001)     ;
(PID.TID 0000.0001) dxF =  /* dxF(1,:,1,:) ( m - cartesian, degrees - spherical ) */
(PID.TID 0000.0001)                 1.333350557843028E+01       /* J =  1 */
(PID.TID 0000.0001)     ;
(PID.TID 0000.0001) dyF =  /* dyF(:,1,:,1) ( m - cartesian, degrees - spherical ) */
(PID.TID 0000.0001)   320 @  2.000000000000000E+02              /* I =  1:320 */
(PID.TID 0000.0001)     ;
(PID.TID 0000.0001) dyF =  /* dyF(1,:,1,:) ( m - cartesian, degrees - spherical ) */
(PID.TID 0000.0001)                 2.000000000000000E+02       /* J =  1 */
(PID.TID 0000.0001)     ;
(PID.TID 0000.0001) dxG =  /* dxG(:,1,:,1) ( m - cartesian, degrees - spherical ) */
(PID.TID 0000.0001)                 1.333350557843028E+01,      /* I =  1 */
(PID.TID 0000.0001)                 1.333351440956528E+01,      /* I =  2 */
(PID.TID 0000.0001)                 1.333352369347595E+01,      /* I =  3 */
(PID.TID 0000.0001)                 1.333353345337592E+01,      /* I =  4 */
(PID.TID 0000.0001)                 1.333354371366897E+01,      /* I =  5 */
(PID.TID 0000.0001)                 1.333355450000997E+01,      /* I =  6 */
(PID.TID 0000.0001)                 1.333356583936910E+01,      /* I =  7 */
(PID.TID 0000.0001)                 1.333357776009920E+01,      /* I =  8 */
(PID.TID 0000.0001)                 1.333359029200671E+01,      /* I =  9 */
(PID.TID 0000.0001)                 1.333360346642616E+01,      /* I = 10 */
(PID.TID 0000.0001)                 1.333361731629850E+01,      /* I = 11 */
(PID.TID 0000.0001)                 1.333363187625347E+01,      /* I = 12 */
(PID.TID 0000.0001)                 1.333364718269615E+01,      /* I = 13 */
(PID.TID 0000.0001)                 1.333366327389799E+01,      /* I = 14 */
(PID.TID 0000.0001)                 1.333368019009244E+01,      /* I = 15 */
(PID.TID 0000.0001)                 1.333369797357559E+01,      /* I = 16 */
(PID.TID 0000.0001)                 1.333371666881184E+01,      /* I = 17 */
(PID.TID 0000.0001)                 1.333373632254509E+01,      /* I = 18 */
(PID.TID 0000.0001)                 1.333375698391556E+01,      /* I = 19 */
(PID.TID 0000.0001)                 1.333377870458262E+01,      /* I = 20 */
(PID.TID 0000.0001)                 1.333380153885394E+01,      /* I = 21 */
(PID.TID 0000.0001)                 1.333382554382122E+01,      /* I = 22 */
(PID.TID 0000.0001)                 1.333385077950289E+01,      /* I = 23 */
(PID.TID 0000.0001)                 1.333387730899413E+01,      /* I = 24 */
(PID.TID 0000.0001)                 1.333390519862456E+01,      /* I = 25 */
(PID.TID 0000.0001)                 1.333393451812401E+01,      /* I = 26 */
(PID.TID 0000.0001)                 1.333396534079683E+01,      /* I = 27 */
(PID.TID 0000.0001)                 1.333399774370505E+01,      /* I = 28 */
(PID.TID 0000.0001)                 1.333403180786100E+01,      /* I = 29 */
(PID.TID 0000.0001)                 1.333406761842972E+01,      /* I = 30 */
(PID.TID 0000.0001)                 1.333410526494186E+01,      /* I = 31 */
(PID.TID 0000.0001)                 1.333414484151735E+01,      /* I = 32 */
(PID.TID 0000.0001)                 1.333418644710058E+01,      /* I = 33 */
(PID.TID 0000.0001)                 1.333423018570770E+01,      /* I = 34 */
(PID.TID 0000.0001)                 1.333427616668645E+01,      /* I = 35 */
(PID.TID 0000.0001)                 1.333432450498941E+01,      /* I = 36 */
(PID.TID 0000.0001)                 1.333437532146121E+01,      /* I = 37 */
(PID.TID 0000.0001)                 1.333442874314039E+01,      /* I = 38 */
(PID.TID 0000.0001)                 1.333448490357685E+01,      /* I = 39 */
(PID.TID 0000.0001)                 1.333454394316540E+01,      /* I = 40 */
(PID.TID 0000.0001)                 1.333460600949649E+01,      /* I = 41 */
(PID.TID 0000.0001)                 1.333467125772490E+01,      /* I = 42 */
(PID.TID 0000.0001)                 1.333473985095722E+01,      /* I = 43 */
(PID.TID 0000.0001)                 1.333481196065927E+01,      /* I = 44 */
(PID.TID 0000.0001)                 1.333488776708430E+01,      /* I = 45 */
(PID.TID 0000.0001)                 1.333496745972311E+01,      /* I = 46 */
(PID.TID 0000.0001)                 1.333505123777728E+01,      /* I = 47 */
(PID.TID 0000.0001)                 1.333513931065653E+01,      /* I = 48 */
(PID.TID 0000.0001)                 1.333523189850155E+01,      /* I = 49 */
(PID.TID 0000.0001)                 1.333532923273362E+01,      /* I = 50 */
(PID.TID 0000.0001)                 1.333543155663230E+01,      /* I = 51 */
(PID.TID 0000.0001)                 1.333553912594271E+01,      /* I = 52 */
(PID.TID 0000.0001)                 1.333565220951381E+01,      /* I = 53 */
(PID.TID 0000.0001)                 1.333577108996939E+01,      /* I = 54 */
(PID.TID 0000.0001)                 1.333589606441332E+01,      /* I = 55 */
(PID.TID 0000.0001)                 1.333602744517087E+01,      /* I = 56 */
(PID.TID 0000.0001)                 1.333616556056795E+01,      /* I = 57 */
(PID.TID 0000.0001)                 1.333631075575012E+01,      /* I = 58 */
(PID.TID 0000.0001)                 1.333646339354350E+01,      /* I = 59 */
(PID.TID 0000.0001)                 1.333662385535963E+01,      /* I = 60 */
(PID.TID 0000.0001)                 1.333679254214663E+01,      /* I = 61 */
(PID.TID 0000.0001)                 1.333696987538879E+01,      /* I = 62 */
(PID.TID 0000.0001)                 1.333715629815737E+01,      /* I = 63 */
(PID.TID 0000.0001)                 1.333735227621493E+01,      /* I = 64 */
(PID.TID 0000.0001)                 1.333755829917607E+01,      /* I = 65 */
(PID.TID 0000.0001)                 1.333777488172740E+01,      /* I = 66 */
(PID.TID 0000.0001)                 1.333800256490973E+01,      /* I = 67 */
(PID.TID 0000.0001)                 1.333824191746569E+01,      /* I = 68 */
(PID.TID 0000.0001)                 1.333849353725603E+01,      /* I = 69 */
(PID.TID 0000.0001)                 1.333875805274814E+01,      /* I = 70 */
(PID.TID 0000.0001)                 1.333903612458039E+01,      /* I = 71 */
(PID.TID 0000.0001)                 1.333932844720622E+01,      /* I = 72 */
(PID.TID 0000.0001)                 1.333963575062193E+01,      /* I = 73 */
(PID.TID 0000.0001)                 1.333995880218238E+01,      /* I = 74 */
(PID.TID 0000.0001)                 1.334029840850922E+01,      /* I = 75 */
(PID.TID 0000.0001)                 1.334065541749604E+01,      /* I = 76 */
(PID.TID 0000.0001)                 1.334103072041559E+01,      /* I = 77 */
(PID.TID 0000.0001)                 1.334142525413410E+01,      /* I = 78 */
(PID.TID 0000.0001)                 1.334184000343805E+01,      /* I = 79 */
(PID.TID 0000.0001)                 1.334227600347911E+01,      /* I = 80 */
(PID.TID 0000.0001)                 1.334273434234323E+01,      /* I = 81 */
(PID.TID 0000.0001)                 1.334321616375004E+01,      /* I = 82 */
(PID.TID 0000.0001)                 1.334372266988904E+01,      /* I = 83 */
(PID.TID 0000.0001)                 1.334425512439963E+01,      /* I = 84 */
(PID.TID 0000.0001)                 1.334481485550199E+01,      /* I = 85 */
(PID.TID 0000.0001)                 1.334540325928642E+01,      /* I = 86 */
(PID.TID 0000.0001)                 1.334602180316902E+01,      /* I = 87 */
(PID.TID 0000.0001)                 1.334667202952212E+01,      /* I = 88 */
(PID.TID 0000.0001)                 1.334735555948791E+01,      /* I = 89 */
(PID.TID 0000.0001)                 1.334807409698463E+01,      /* I = 90 */
(PID.TID 0000.0001)                 1.334882943291471E+01,      /* I = 91 */
(PID.TID 0000.0001)                 1.334962344958492E+01,      /* I = 92 */
(PID.TID 0000.0001)                 1.335045812534896E+01,      /* I = 93 */
(PID.TID 0000.0001)                 1.335133553948354E+01,      /* I = 94 */
(PID.TID 0000.0001)                 1.335225787730935E+01,      /* I = 95 */
(PID.TID 0000.0001)                 1.335322743556898E+01,      /* I = 96 */
(PID.TID 0000.0001)                 1.335424662807443E+01,      /* I = 97 */
(PID.TID 0000.0001)                 1.335531799163729E+01,      /* I = 98 */
(PID.TID 0000.0001)                 1.335644419229545E+01,      /* I = 99 */
(PID.TID 0000.0001)                 1.335762803185068E+01,      /* I =100 */
(PID.TID 0000.0001)                 1.335887245473227E+01,      /* I =101 */
(PID.TID 0000.0001)                 1.336018055520228E+01,      /* I =102 */
(PID.TID 0000.0001)                 1.336155558491909E+01,      /* I =103 */
(PID.TID 0000.0001)                 1.336300096087628E+01,      /* I =104 */
(PID.TID 0000.0001)                 1.336452027373481E+01,      /* I =105 */
(PID.TID 0000.0001)                 1.336611729656740E+01,      /* I =106 */
(PID.TID 0000.0001)                 1.336779599403433E+01,      /* I =107 */
(PID.TID 0000.0001)                 1.336956053201144E+01,      /* I =108 */
(PID.TID 0000.0001)                 1.337141528769127E+01,      /* I =109 */
(PID.TID 0000.0001)                 1.337336486017965E+01,      /* I =110 */
(PID.TID 0000.0001)                 1.337541408161077E+01,      /* I =111 */
(PID.TID 0000.0001)                 1.337756802880465E+01,      /* I =112 */
(PID.TID 0000.0001)                 1.337983203549213E+01,      /* I =113 */
(PID.TID 0000.0001)                 1.338221170513314E+01,      /* I =114 */
(PID.TID 0000.0001)                 1.338471292435540E+01,      /* I =115 */
(PID.TID 0000.0001)                 1.338734187704133E+01,      /* I =116 */
(PID.TID 0000.0001)                 1.339010505909238E+01,      /* I =117 */
(PID.TID 0000.0001)                 1.339300929390070E+01,      /* I =118 */
(PID.TID 0000.0001)                 1.339606174855942E+01,      /* I =119 */
(PID.TID 0000.0001)                 1.339926995084359E+01,      /* I =120 */
(PID.TID 0000.0001)                 1.340264180699529E+01,      /* I =121 */
(PID.TID 0000.0001)                 1.340618562034696E+01,      /* I =122 */
(PID.TID 0000.0001)                 1.340991011081868E+01,      /* I =123 */
(PID.TID 0000.0001)                 1.341382443532556E+01,      /* I =124 */
(PID.TID 0000.0001)                 1.341793820913294E+01,      /* I =125 */
(PID.TID 0000.0001)                 1.342226152819769E+01,      /* I =126 */
(PID.TID 0000.0001)                 1.342680499253510E+01,      /* I =127 */
(PID.TID 0000.0001)                 1.343157973065163E+01,      /* I =128 */
(PID.TID 0000.0001)                 1.343659742508456E+01,      /* I =129 */
(PID.TID 0000.0001)                 1.344187033909057E+01,      /* I =130 */
(PID.TID 0000.0001)                 1.344741134452547E+01,      /* I =131 */
(PID.TID 0000.0001)                 1.345323395095843E+01,      /* I =132 */
(PID.TID 0000.0001)                 1.345935233606388E+01,      /* I =133 */
(PID.TID 0000.0001)                 1.346578137733485E+01,      /* I =134 */
(PID.TID 0000.0001)                 1.347253668516156E+01,      /* I =135 */
(PID.TID 0000.0001)                 1.347963463731868E+01,      /* I =136 */
(PID.TID 0000.0001)                 1.348709241490466E+01,      /* I =137 */
(PID.TID 0000.0001)                 1.349492803977558E+01,      /* I =138 */
(PID.TID 0000.0001)                 1.350316041351508E+01,      /* I =139 */
(PID.TID 0000.0001)                 1.351180935798093E+01,      /* I =140 */
(PID.TID 0000.0001)                 1.352089565746654E+01,      /* I =141 */
(PID.TID 0000.0001)                 1.353044110251419E+01,      /* I =142 */
(PID.TID 0000.0001)                 1.354046853541373E+01,      /* I =143 */
(PID.TID 0000.0001)                 1.355100189741760E+01,      /* I =144 */
(PID.TID 0000.0001)                 1.356206627769899E+01,      /* I =145 */
(PID.TID 0000.0001)                 1.357368796407594E+01,      /* I =146 */
(PID.TID 0000.0001)                 1.358589449551856E+01,      /* I =147 */
(PID.TID 0000.0001)                 1.359871471645078E+01,      /* I =148 */
(PID.TID 0000.0001)                 1.361217883285115E+01,      /* I =149 */
(PID.TID 0000.0001)                 1.362631847014915E+01,      /* I =150 */
(PID.TID 0000.0001)                 1.364116673290460E+01,      /* I =151 */
(PID.TID 0000.0001)                 1.365675826624731E+01,      /* I =152 */
(PID.TID 0000.0001)                 1.367312931904298E+01,      /* I =153 */
(PID.TID 0000.0001)                 1.369031780873773E+01,      /* I =154 */
(PID.TID 0000.0001)                 1.370836338781988E+01,      /* I =155 */
(PID.TID 0000.0001)                 1.372730751182062E+01,      /* I =156 */
(PID.TID 0000.0001)                 1.374719350875757E+01,      /* I =157 */
(PID.TID 0000.0001)                 1.376806664990509E+01,      /* I =158 */
(PID.TID 0000.0001)                 1.378997422175274E+01,      /* I =159 */
(PID.TID 0000.0001)                 1.381296559898911E+01,      /* I =160 */
(PID.TID 0000.0001)                 1.383709231832104E+01,      /* I =161 */
(PID.TID 0000.0001)                 1.386240815290873E+01,      /* I =162 */
(PID.TID 0000.0001)                 1.388896918716481E+01,      /* I =163 */
(PID.TID 0000.0001)                 1.391683389163015E+01,      /* I =164 */
(PID.TID 0000.0001)                 1.394606319760068E+01,      /* I =165 */
(PID.TID 0000.0001)                 1.397672057113785E+01,      /* I =166 */
(PID.TID 0000.0001)                 1.400887208604991E+01,      /* I =167 */
(PID.TID 0000.0001)                 1.404258649538309E+01,      /* I =168 */
(PID.TID 0000.0001)                 1.407793530090862E+01,      /* I =169 */
(PID.TID 0000.0001)                 1.411499282003617E+01,      /* I =170 */
(PID.TID 0000.0001)                 1.415383624952395E+01,      /* I =171 */
(PID.TID 0000.0001)                 1.419454572529201E+01,      /* I =172 */
(PID.TID 0000.0001)                 1.423720437757808E+01,      /* I =173 */
(PID.TID 0000.0001)                 1.428189838060363E+01,      /* I =174 */
(PID.TID 0000.0001)                 1.432871699584345E+01,      /* I =175 */
(PID.TID 0000.0001)                 1.437775260791372E+01,      /* I =176 */
(PID.TID 0000.0001)                 1.442910075201240E+01,      /* I =177 */
(PID.TID 0000.0001)                 1.448286013176230E+01,      /* I =178 */
(PID.TID 0000.0001)                 1.453913262622100E+01,      /* I =179 */
(PID.TID 0000.0001)                 1.459802328473512E+01,      /* I =180 */
(PID.TID 0000.0001)                 1.465964030822818E+01,      /* I =181 */
(PID.TID 0000.0001)                 1.472409501542447E+01,      /* I =182 */
(PID.TID 0000.0001)                 1.479150179242509E+01,      /* I =183 */
(PID.TID 0000.0001)                 1.486197802396983E+01,      /* I =184 */
(PID.TID 0000.0001)                 1.493564400464020E+01,      /* I =185 */
(PID.TID 0000.0001)                 1.501262282818657E+01,      /* I =186 */
(PID.TID 0000.0001)                 1.509304025309917E+01,      /* I =187 */
(PID.TID 0000.0001)                 1.517702454248925E+01,      /* I =188 */
(PID.TID 0000.0001)                 1.526470627630714E+01,      /* I =189 */
(PID.TID 0000.0001)                 1.535621813389983E+01,      /* I =190 */
(PID.TID 0000.0001)                 1.545169464490609E+01,      /* I =191 */
(PID.TID 0000.0001)                 1.555127190650460E+01,      /* I =192 */
(PID.TID 0000.0001)                 1.565508726507390E+01,      /* I =193 */
(PID.TID 0000.0001)                 1.576327896039616E+01,      /* I =194 */
(PID.TID 0000.0001)                 1.587598573064292E+01,      /* I =195 */
(PID.TID 0000.0001)                 1.599334637652494E+01,      /* I =196 */
(PID.TID 0000.0001)                 1.611549928317337E+01,      /* I =197 */
(PID.TID 0000.0001)                 1.624258189854968E+01,      /* I =198 */
(PID.TID 0000.0001)                 1.637473016746109E+01,      /* I =199 */
(PID.TID 0000.0001)                 1.651207792058980E+01,      /* I =200 */
(PID.TID 0000.0001)                 1.665475621833111E+01,      /* I =201 */
(PID.TID 0000.0001)                 1.680289264967994E+01,      /* I =202 */
(PID.TID 0000.0001)                 1.695661058690918E+01,      /* I =203 */
(PID.TID 0000.0001)                 1.711602839734634E+01,      /* I =204 */
(PID.TID 0000.0001)                 1.728125861417839E+01,      /* I =205 */
(PID.TID 0000.0001)                 1.745240706889426E+01,      /* I =206 */
(PID.TID 0000.0001)                 1.762957198870894E+01,      /* I =207 */
(PID.TID 0000.0001)                 1.781284306309535E+01,      /* I =208 */
(PID.TID 0000.0001)                 1.800230048437439E+01,      /* I =209 */
(PID.TID 0000.0001)                 1.819801396816951E+01,      /* I =210 */
(PID.TID 0000.0001)                 1.840004176040835E+01,      /* I =211 */
(PID.TID 0000.0001)                 1.860842963843782E+01,      /* I =212 */
(PID.TID 0000.0001)                 1.882320991469193E+01,      /* I =213 */
(PID.TID 0000.0001)                 1.904440045219844E+01,      /* I =214 */
(PID.TID 0000.0001)                 1.927200370200823E+01,      /* I =215 */
(PID.TID 0000.0001)                 1.950600577335953E+01,      /* I =216 */
(PID.TID 0000.0001)                 1.974637554802371E+01,      /* I =217 */
(PID.TID 0000.0001)                 1.999306385079687E+01,      /* I =218 */
(PID.TID 0000.0001)                 2.024600268847589E+01,      /* I =219 */
(PID.TID 0000.0001)                 2.050510456986654E+01,      /* I =220 */
(PID.TID 0000.0001)                 2.077026191939032E+01,      /* I =221 */
(PID.TID 0000.0001)                 2.104134659666656E+01,      /* I =222 */
(PID.TID 0000.0001)                 2.131820953402739E+01,      /* I =223 */
(PID.TID 0000.0001)                 2.160068050326367E+01,      /* I =224 */
(PID.TID 0000.0001)                 2.188856802198952E+01,      /* I =225 */
(PID.TID 0000.0001)                 2.218165940884890E+01,      /* I =226 */
(PID.TID 0000.0001)                 2.247972099537336E+01,      /* I =227 */
(PID.TID 0000.0001)                 2.278249850064545E+01,      /* I =228 */
(PID.TID 0000.0001)                 2.308971757304531E+01,      /* I =229 */
(PID.TID 0000.0001)                 2.340108450128388E+01,      /* I =230 */
(PID.TID 0000.0001)                 2.371628709468741E+01,      /* I =231 */
(PID.TID 0000.0001)                 2.403499573033461E+01,      /* I =232 */
(PID.TID 0000.0001)                 2.435686456220453E+01,      /* I =233 */
(PID.TID 0000.0001)                 2.468153288502243E+01,      /* I =234 */
(PID.TID 0000.0001)                 2.500862664304538E+01,      /* I =235 */
(PID.TID 0000.0001)                 2.533776007166725E+01,      /* I =236 */
(PID.TID 0000.0001)                 2.566853745750001E+01,      /* I =237 */
(PID.TID 0000.0001)                 2.600055500056160E+01,      /* I =238 */
(PID.TID 0000.0001)                 2.633340276042106E+01,      /* I =239 */
(PID.TID 0000.0001)                 2.666666666666666E+01,      /* I =240 */
(PID.TID 0000.0001)                 2.699993057291228E+01,      /* I =241 */
(PID.TID 0000.0001)                 2.733277833277173E+01,      /* I =242 */
(PID.TID 0000.0001)                 2.766479587583332E+01,      /* I =243 */
(PID.TID 0000.0001)                 2.799557326166608E+01,      /* I =244 */
(PID.TID 0000.0001)                 2.832470669028795E+01,      /* I =245 */
(PID.TID 0000.0001)                 2.865180044831091E+01,      /* I =246 */
(PID.TID 0000.0001)                 2.897646877112880E+01,      /* I =247 */
(PID.TID 0000.0001)                 2.929833760299872E+01,      /* I =248 */
(PID.TID 0000.0001)                 2.961704623864592E+01,      /* I =249 */
(PID.TID 0000.0001)                 2.993224883204945E+01,      /* I =250 */
(PID.TID 0000.0001)                 3.024361576028802E+01,      /* I =251 */
(PID.TID 0000.0001)                 3.055083483268788E+01,      /* I =252 */
(PID.TID 0000.0001)                 3.085361233795997E+01,      /* I =253 */
(PID.TID 0000.0001)                 3.115167392448443E+01,      /* I =254 */
(PID.TID 0000.0001)                 3.144476531134382E+01,      /* I =255 */
(PID.TID 0000.0001)                 3.173265283006967E+01,      /* I =256 */
(PID.TID 0000.0001)                 3.201512379930595E+01,      /* I =257 */
(PID.TID 0000.0001)                 3.229198673666677E+01,      /* I =258 */
(PID.TID 0000.0001)                 3.256307141394301E+01,      /* I =259 */
(PID.TID 0000.0001)                 3.282822876346680E+01,      /* I =260 */
(PID.TID 0000.0001)                 3.308733064485744E+01,      /* I =261 */
(PID.TID 0000.0001)                 3.334026948253647E+01,      /* I =262 */
(PID.TID 0000.0001)                 3.358695778530962E+01,      /* I =263 */
(PID.TID 0000.0001)                 3.382732755997380E+01,      /* I =264 */
(PID.TID 0000.0001)                 3.406132963132509E+01,      /* I =265 */
(PID.TID 0000.0001)                 3.428893288113490E+01,      /* I =266 */
(PID.TID 0000.0001)                 3.451012341864140E+01,      /* I =267 */
(PID.TID 0000.0001)                 3.472490369489551E+01,      /* I =268 */
(PID.TID 0000.0001)                 3.493329157292499E+01,      /* I =269 */
(PID.TID 0000.0001)                 3.513531936516383E+01,      /* I =270 */
(PID.TID 0000.0001)                 3.533103284895893E+01,      /* I =271 */
(PID.TID 0000.0001)                 3.552049027023799E+01,      /* I =272 */
(PID.TID 0000.0001)                 3.570376134462440E+01,      /* I =273 */
(PID.TID 0000.0001)                 3.588092626443907E+01,      /* I =274 */
(PID.TID 0000.0001)                 3.605207471915494E+01,      /* I =275 */
(PID.TID 0000.0001)                 3.621730493598699E+01,      /* I =276 */
(PID.TID 0000.0001)                 3.637672274642415E+01,      /* I =277 */
(PID.TID 0000.0001)                 3.653044068365339E+01,      /* I =278 */
(PID.TID 0000.0001)                 3.667857711500223E+01,      /* I =279 */
(PID.TID 0000.0001)                 3.682125541274353E+01,      /* I =280 */
(PID.TID 0000.0001)                 3.695860316587224E+01,      /* I =281 */
(PID.TID 0000.0001)                 3.709075143478366E+01,      /* I =282 */
(PID.TID 0000.0001)                 3.721783405015996E+01,      /* I =283 */
(PID.TID 0000.0001)                 3.733998695680840E+01,      /* I =284 */
(PID.TID 0000.0001)                 3.745734760269041E+01,      /* I =285 */
(PID.TID 0000.0001)                 3.757005437293716E+01,      /* I =286 */
(PID.TID 0000.0001)                 3.767824606825943E+01,      /* I =287 */
(PID.TID 0000.0001)                 3.778206142682873E+01,      /* I =288 */
(PID.TID 0000.0001)                 3.788163868842724E+01,      /* I =289 */
(PID.TID 0000.0001)                 3.797711519943351E+01,      /* I =290 */
(PID.TID 0000.0001)                 3.806862705702619E+01,      /* I =291 */
(PID.TID 0000.0001)                 3.815630879084409E+01,      /* I =292 */
(PID.TID 0000.0001)                 3.824029308023417E+01,      /* I =293 */
(PID.TID 0000.0001)                 3.832071050514676E+01,      /* I =294 */
(PID.TID 0000.0001)                 3.839768932869313E+01,      /* I =295 */
(PID.TID 0000.0001)                 3.847135530936350E+01,      /* I =296 */
(PID.TID 0000.0001)                 3.854183154090824E+01,      /* I =297 */
(PID.TID 0000.0001)                 3.860923831790885E+01,      /* I =298 */
(PID.TID 0000.0001)                 3.867369302510515E+01,      /* I =299 */
(PID.TID 0000.0001)                 3.873531004859822E+01,      /* I =300 */
(PID.TID 0000.0001)                 3.879420070711233E+01,      /* I =301 */
(PID.TID 0000.0001)                 3.885047320157103E+01,      /* I =302 */
(PID.TID 0000.0001)                 3.890423258132093E+01,      /* I =303 */
(PID.TID 0000.0001)                 3.895558072541962E+01,      /* I =304 */
(PID.TID 0000.0001)                 3.900461633748988E+01,      /* I =305 */
(PID.TID 0000.0001)                 3.905143495272970E+01,      /* I =306 */
(PID.TID 0000.0001)                 3.909612895575525E+01,      /* I =307 */
(PID.TID 0000.0001)                 3.913878760804132E+01,      /* I =308 */
(PID.TID 0000.0001)                 3.917949708380939E+01,      /* I =309 */
(PID.TID 0000.0001)                 3.921834051329716E+01,      /* I =310 */
(PID.TID 0000.0001)                 3.925539803242471E+01,      /* I =311 */
(PID.TID 0000.0001)                 3.929074683795024E+01,      /* I =312 */
(PID.TID 0000.0001)                 3.932446124728342E+01,      /* I =313 */
(PID.TID 0000.0001)                 3.935661276219549E+01,      /* I =314 */
(PID.TID 0000.0001)                 3.938727013573265E+01,      /* I =315 */
(PID.TID 0000.0001)                 3.941649944170319E+01,      /* I =316 */
(PID.TID 0000.0001)                 3.944436414616852E+01,      /* I =317 */
(PID.TID 0000.0001)                 3.947092518042460E+01,      /* I =318 */
(PID.TID 0000.0001)                 3.949624101501229E+01,      /* I =319 */
(PID.TID 0000.0001)                 3.952036773434423E+01       /* I =320 */
(PID.TID 0000.0001)     ;
(PID.TID 0000.0001) dxG =  /* dxG(1,:,1,:) ( m - cartesian, degrees - spherical ) */
(PID.TID 0000.0001)                 1.333350557843028E+01       /* J =  1 */
(PID.TID 0000.0001)     ;
(PID.TID 0000.0001) dyG =  /* dyG(:,1,:,1) ( m - cartesian, degrees - spherical ) */
(PID.TID 0000.0001)   320 @  2.000000000000000E+02              /* I =  1:320 */
(PID.TID 0000.0001)     ;
(PID.TID 0000.0001) dyG =  /* dyG(1,:,1,:) ( m - cartesian, degrees - spherical ) */
(PID.TID 0000.0001)                 2.000000000000000E+02       /* J =  1 */
(PID.TID 0000.0001)     ;
(PID.TID 0000.0001) dxC =  /* dxC(:,1,:,1) ( m - cartesian, degrees - spherical ) */
(PID.TID 0000.0001)                 2.642693665638726E+01,      /* I =  1 */
(PID.TID 0000.0001)                 1.333350999399778E+01,      /* I =  2 */
(PID.TID 0000.0001)                 1.333351905152062E+01,      /* I =  3 */
(PID.TID 0000.0001)                 1.333352857342594E+01,      /* I =  4 */
(PID.TID 0000.0001)                 1.333353858352245E+01,      /* I =  5 */
(PID.TID 0000.0001)                 1.333354910683947E+01,      /* I =  6 */
(PID.TID 0000.0001)                 1.333356016968953E+01,      /* I =  7 */
(PID.TID 0000.0001)                 1.333357179973415E+01,      /* I =  8 */
(PID.TID 0000.0001)                 1.333358402605295E+01,      /* I =  9 */
(PID.TID 0000.0001)                 1.333359687921643E+01,      /* I = 10 */
(PID.TID 0000.0001)                 1.333361039136233E+01,      /* I = 11 */
(PID.TID 0000.0001)                 1.333362459627599E+01,      /* I = 12 */
(PID.TID 0000.0001)                 1.333363952947481E+01,      /* I = 13 */
(PID.TID 0000.0001)                 1.333365522829707E+01,      /* I = 14 */
(PID.TID 0000.0001)                 1.333367173199521E+01,      /* I = 15 */
(PID.TID 0000.0001)                 1.333368908183401E+01,      /* I = 16 */
(PID.TID 0000.0001)                 1.333370732119372E+01,      /* I = 17 */
(PID.TID 0000.0001)                 1.333372649567847E+01,      /* I = 18 */
(PID.TID 0000.0001)                 1.333374665323032E+01,      /* I = 19 */
(PID.TID 0000.0001)                 1.333376784424909E+01,      /* I = 20 */
(PID.TID 0000.0001)                 1.333379012171828E+01,      /* I = 21 */
(PID.TID 0000.0001)                 1.333381354133758E+01,      /* I = 22 */
(PID.TID 0000.0001)                 1.333383816166205E+01,      /* I = 23 */
(PID.TID 0000.0001)                 1.333386404424851E+01,      /* I = 24 */
(PID.TID 0000.0001)                 1.333389125380934E+01,      /* I = 25 */
(PID.TID 0000.0001)                 1.333391985837429E+01,      /* I = 26 */
(PID.TID 0000.0001)                 1.333394992946042E+01,      /* I = 27 */
(PID.TID 0000.0001)                 1.333398154225094E+01,      /* I = 28 */
(PID.TID 0000.0001)                 1.333401477578303E+01,      /* I = 29 */
(PID.TID 0000.0001)                 1.333404971314536E+01,      /* I = 30 */
(PID.TID 0000.0001)                 1.333408644168579E+01,      /* I = 31 */
(PID.TID 0000.0001)                 1.333412505322961E+01,      /* I = 32 */
(PID.TID 0000.0001)                 1.333416564430897E+01,      /* I = 33 */
(PID.TID 0000.0001)                 1.333420831640414E+01,      /* I = 34 */
(PID.TID 0000.0001)                 1.333425317619707E+01,      /* I = 35 */
(PID.TID 0000.0001)                 1.333430033583793E+01,      /* I = 36 */
(PID.TID 0000.0001)                 1.333434991322531E+01,      /* I = 37 */
(PID.TID 0000.0001)                 1.333440203230080E+01,      /* I = 38 */
(PID.TID 0000.0001)                 1.333445682335862E+01,      /* I = 39 */
(PID.TID 0000.0001)                 1.333451442337113E+01,      /* I = 40 */
(PID.TID 0000.0001)                 1.333457497633095E+01,      /* I = 41 */
(PID.TID 0000.0001)                 1.333463863361070E+01,      /* I = 42 */
(PID.TID 0000.0001)                 1.333470555434106E+01,      /* I = 43 */
(PID.TID 0000.0001)                 1.333477590580825E+01,      /* I = 44 */
(PID.TID 0000.0001)                 1.333484986387179E+01,      /* I = 45 */
(PID.TID 0000.0001)                 1.333492761340370E+01,      /* I = 46 */
(PID.TID 0000.0001)                 1.333500934875020E+01,      /* I = 47 */
(PID.TID 0000.0001)                 1.333509527421690E+01,      /* I = 48 */
(PID.TID 0000.0001)                 1.333518560457904E+01,      /* I = 49 */
(PID.TID 0000.0001)                 1.333528056561758E+01,      /* I = 50 */
(PID.TID 0000.0001)                 1.333538039468296E+01,      /* I = 51 */
(PID.TID 0000.0001)                 1.333548534128751E+01,      /* I = 52 */
(PID.TID 0000.0001)                 1.333559566772826E+01,      /* I = 53 */
(PID.TID 0000.0001)                 1.333571164974160E+01,      /* I = 54 */
(PID.TID 0000.0001)                 1.333583357719136E+01,      /* I = 55 */
(PID.TID 0000.0001)                 1.333596175479210E+01,      /* I = 56 */
(PID.TID 0000.0001)                 1.333609650286941E+01,      /* I = 57 */
(PID.TID 0000.0001)                 1.333623815815904E+01,      /* I = 58 */
(PID.TID 0000.0001)                 1.333638707464681E+01,      /* I = 59 */
(PID.TID 0000.0001)                 1.333654362445156E+01,      /* I = 60 */
(PID.TID 0000.0001)                 1.333670819875313E+01,      /* I = 61 */
(PID.TID 0000.0001)                 1.333688120876771E+01,      /* I = 62 */
(PID.TID 0000.0001)                 1.333706308677308E+01,      /* I = 63 */
(PID.TID 0000.0001)                 1.333725428718615E+01,      /* I = 64 */
(PID.TID 0000.0001)                 1.333745528769550E+01,      /* I = 65 */
(PID.TID 0000.0001)                 1.333766659045173E+01,      /* I = 66 */
(PID.TID 0000.0001)                 1.333788872331856E+01,      /* I = 67 */
(PID.TID 0000.0001)                 1.333812224118771E+01,      /* I = 68 */
(PID.TID 0000.0001)                 1.333836772736086E+01,      /* I = 69 */
(PID.TID 0000.0001)                 1.333862579500209E+01,      /* I = 70 */
(PID.TID 0000.0001)                 1.333889708866426E+01,      /* I = 71 */
(PID.TID 0000.0001)                 1.333918228589330E+01,      /* I = 72 */
(PID.TID 0000.0001)                 1.333948209891407E+01,      /* I = 73 */
(PID.TID 0000.0001)                 1.333979727640216E+01,      /* I = 74 */
(PID.TID 0000.0001)                 1.334012860534580E+01,      /* I = 75 */
(PID.TID 0000.0001)                 1.334047691300263E+01,      /* I = 76 */
(PID.TID 0000.0001)                 1.334084306895581E+01,      /* I = 77 */
(PID.TID 0000.0001)                 1.334122798727485E+01,      /* I = 78 */
(PID.TID 0000.0001)                 1.334163262878608E+01,      /* I = 79 */
(PID.TID 0000.0001)                 1.334205800345858E+01,      /* I = 80 */
(PID.TID 0000.0001)                 1.334250517291117E+01,      /* I = 81 */
(PID.TID 0000.0001)                 1.334297525304664E+01,      /* I = 82 */
(PID.TID 0000.0001)                 1.334346941681954E+01,      /* I = 83 */
(PID.TID 0000.0001)                 1.334398889714433E+01,      /* I = 84 */
(PID.TID 0000.0001)                 1.334453498995081E+01,      /* I = 85 */
(PID.TID 0000.0001)                 1.334510905739420E+01,      /* I = 86 */
(PID.TID 0000.0001)                 1.334571253122772E+01,      /* I = 87 */
(PID.TID 0000.0001)                 1.334634691634557E+01,      /* I = 88 */
(PID.TID 0000.0001)                 1.334701379450502E+01,      /* I = 89 */
(PID.TID 0000.0001)                 1.334771482823627E+01,      /* I = 90 */
(PID.TID 0000.0001)                 1.334845176494967E+01,      /* I = 91 */
(PID.TID 0000.0001)                 1.334922644124982E+01,      /* I = 92 */
(PID.TID 0000.0001)                 1.335004078746694E+01,      /* I = 93 */
(PID.TID 0000.0001)                 1.335089683241625E+01,      /* I = 94 */
(PID.TID 0000.0001)                 1.335179670839645E+01,      /* I = 95 */
(PID.TID 0000.0001)                 1.335274265643916E+01,      /* I = 96 */
(PID.TID 0000.0001)                 1.335373703182170E+01,      /* I = 97 */
(PID.TID 0000.0001)                 1.335478230985586E+01,      /* I = 98 */
(PID.TID 0000.0001)                 1.335588109196637E+01,      /* I = 99 */
(PID.TID 0000.0001)                 1.335703611207306E+01,      /* I =100 */
(PID.TID 0000.0001)                 1.335825024329148E+01,      /* I =101 */
(PID.TID 0000.0001)                 1.335952650496728E+01,      /* I =102 */
(PID.TID 0000.0001)                 1.336086807006069E+01,      /* I =103 */
(PID.TID 0000.0001)                 1.336227827289768E+01,      /* I =104 */
(PID.TID 0000.0001)                 1.336376061730554E+01,      /* I =105 */
(PID.TID 0000.0001)                 1.336531878515111E+01,      /* I =106 */
(PID.TID 0000.0001)                 1.336695664530086E+01,      /* I =107 */
(PID.TID 0000.0001)                 1.336867826302288E+01,      /* I =108 */
(PID.TID 0000.0001)                 1.337048790985136E+01,      /* I =109 */
(PID.TID 0000.0001)                 1.337239007393546E+01,      /* I =110 */
(PID.TID 0000.0001)                 1.337438947089521E+01,      /* I =111 */
(PID.TID 0000.0001)                 1.337649105520771E+01,      /* I =112 */
(PID.TID 0000.0001)                 1.337870003214839E+01,      /* I =113 */
(PID.TID 0000.0001)                 1.338102187031264E+01,      /* I =114 */
(PID.TID 0000.0001)                 1.338346231474427E+01,      /* I =115 */
(PID.TID 0000.0001)                 1.338602740069837E+01,      /* I =116 */
(PID.TID 0000.0001)                 1.338872346806686E+01,      /* I =117 */
(PID.TID 0000.0001)                 1.339155717649654E+01,      /* I =118 */
(PID.TID 0000.0001)                 1.339453552123006E+01,      /* I =119 */
(PID.TID 0000.0001)                 1.339766584970151E+01,      /* I =120 */
(PID.TID 0000.0001)                 1.340095587891944E+01,      /* I =121 */
(PID.TID 0000.0001)                 1.340441371367113E+01,      /* I =122 */
(PID.TID 0000.0001)                 1.340804786558282E+01,      /* I =123 */
(PID.TID 0000.0001)                 1.341186727307212E+01,      /* I =124 */
(PID.TID 0000.0001)                 1.341588132222925E+01,      /* I =125 */
(PID.TID 0000.0001)                 1.342009986866531E+01,      /* I =126 */
(PID.TID 0000.0001)                 1.342453326036640E+01,      /* I =127 */
(PID.TID 0000.0001)                 1.342919236159337E+01,      /* I =128 */
(PID.TID 0000.0001)                 1.343408857786809E+01,      /* I =129 */
(PID.TID 0000.0001)                 1.343923388208756E+01,      /* I =130 */
(PID.TID 0000.0001)                 1.344464084180802E+01,      /* I =131 */
(PID.TID 0000.0001)                 1.345032264774195E+01,      /* I =132 */
(PID.TID 0000.0001)                 1.345629314351116E+01,      /* I =133 */
(PID.TID 0000.0001)                 1.346256685669937E+01,      /* I =134 */
(PID.TID 0000.0001)                 1.346915903124821E+01,      /* I =135 */
(PID.TID 0000.0001)                 1.347608566124012E+01,      /* I =136 */
(PID.TID 0000.0001)                 1.348336352611167E+01,      /* I =137 */
(PID.TID 0000.0001)                 1.349101022734012E+01,      /* I =138 */
(PID.TID 0000.0001)                 1.349904422664533E+01,      /* I =139 */
(PID.TID 0000.0001)                 1.350748488574801E+01,      /* I =140 */
(PID.TID 0000.0001)                 1.351635250772373E+01,      /* I =141 */
(PID.TID 0000.0001)                 1.352566837999036E+01,      /* I =142 */
(PID.TID 0000.0001)                 1.353545481896396E+01,      /* I =143 */
(PID.TID 0000.0001)                 1.354573521641566E+01,      /* I =144 */
(PID.TID 0000.0001)                 1.355653408755829E+01,      /* I =145 */
(PID.TID 0000.0001)                 1.356787712088746E+01,      /* I =146 */
(PID.TID 0000.0001)                 1.357979122979725E+01,      /* I =147 */
(PID.TID 0000.0001)                 1.359230460598467E+01,      /* I =148 */
(PID.TID 0000.0001)                 1.360544677465097E+01,      /* I =149 */
(PID.TID 0000.0001)                 1.361924865150015E+01,      /* I =150 */
(PID.TID 0000.0001)                 1.363374260152687E+01,      /* I =151 */
(PID.TID 0000.0001)                 1.364896249957595E+01,      /* I =152 */
(PID.TID 0000.0001)                 1.366494379264515E+01,      /* I =153 */
(PID.TID 0000.0001)                 1.368172356389035E+01,      /* I =154 */
(PID.TID 0000.0001)                 1.369934059827880E+01,      /* I =155 */
(PID.TID 0000.0001)                 1.371783544982025E+01,      /* I =156 */
(PID.TID 0000.0001)                 1.373725051028909E+01,      /* I =157 */
(PID.TID 0000.0001)                 1.375763007933133E+01,      /* I =158 */
(PID.TID 0000.0001)                 1.377902043582892E+01,      /* I =159 */
(PID.TID 0000.0001)                 1.380146991037093E+01,      /* I =160 */
(PID.TID 0000.0001)                 1.382502895865507E+01,      /* I =161 */
(PID.TID 0000.0001)                 1.384975023561489E+01,      /* I =162 */
(PID.TID 0000.0001)                 1.387568867003677E+01,      /* I =163 */
(PID.TID 0000.0001)                 1.390290153939748E+01,      /* I =164 */
(PID.TID 0000.0001)                 1.393144854461542E+01,      /* I =165 */
(PID.TID 0000.0001)                 1.396139188436927E+01,      /* I =166 */
(PID.TID 0000.0001)                 1.399279632859388E+01,      /* I =167 */
(PID.TID 0000.0001)                 1.402572929071650E+01,      /* I =168 */
(PID.TID 0000.0001)                 1.406026089814585E+01,      /* I =169 */
(PID.TID 0000.0001)                 1.409646406047239E+01,      /* I =170 */
(PID.TID 0000.0001)                 1.413441453478006E+01,      /* I =171 */
(PID.TID 0000.0001)                 1.417419098740798E+01,      /* I =172 */
(PID.TID 0000.0001)                 1.421587505143505E+01,      /* I =173 */
(PID.TID 0000.0001)                 1.425955137909086E+01,      /* I =174 */
(PID.TID 0000.0001)                 1.430530768822354E+01,      /* I =175 */
(PID.TID 0000.0001)                 1.435323480187859E+01,      /* I =176 */
(PID.TID 0000.0001)                 1.440342667996306E+01,      /* I =177 */
(PID.TID 0000.0001)                 1.445598044188735E+01,      /* I =178 */
(PID.TID 0000.0001)                 1.451099637899165E+01,      /* I =179 */
(PID.TID 0000.0001)                 1.456857795547806E+01,      /* I =180 */
(PID.TID 0000.0001)                 1.462883179648165E+01,      /* I =181 */
(PID.TID 0000.0001)                 1.469186766182633E+01,      /* I =182 */
(PID.TID 0000.0001)                 1.475779840392478E+01,      /* I =183 */
(PID.TID 0000.0001)                 1.482673990819746E+01,      /* I =184 */
(PID.TID 0000.0001)                 1.489881101430502E+01,      /* I =185 */
(PID.TID 0000.0001)                 1.497413341641339E+01,      /* I =186 */
(PID.TID 0000.0001)                 1.505283154064287E+01,      /* I =187 */
(PID.TID 0000.0001)                 1.513503239779421E+01,      /* I =188 */
(PID.TID 0000.0001)                 1.522086540939820E+01,      /* I =189 */
(PID.TID 0000.0001)                 1.531046220510348E+01,      /* I =190 */
(PID.TID 0000.0001)                 1.540395638940296E+01,      /* I =191 */
(PID.TID 0000.0001)                 1.550148327570534E+01,      /* I =192 */
(PID.TID 0000.0001)                 1.560317958578925E+01,      /* I =193 */
(PID.TID 0000.0001)                 1.570918311273503E+01,      /* I =194 */
(PID.TID 0000.0001)                 1.581963234551954E+01,      /* I =195 */
(PID.TID 0000.0001)                 1.593466605358393E+01,      /* I =196 */
(PID.TID 0000.0001)                 1.605442282984915E+01,      /* I =197 */
(PID.TID 0000.0001)                 1.617904059086152E+01,      /* I =198 */
(PID.TID 0000.0001)                 1.630865603300538E+01,      /* I =199 */
(PID.TID 0000.0001)                 1.644340404402545E+01,      /* I =200 */
(PID.TID 0000.0001)                 1.658341706946045E+01,      /* I =201 */
(PID.TID 0000.0001)                 1.672882443400552E+01,      /* I =202 */
(PID.TID 0000.0001)                 1.687975161829456E+01,      /* I =203 */
(PID.TID 0000.0001)                 1.703631949212776E+01,      /* I =204 */
(PID.TID 0000.0001)                 1.719864350576236E+01,      /* I =205 */
(PID.TID 0000.0001)                 1.736683284153632E+01,      /* I =206 */
(PID.TID 0000.0001)                 1.754098952880160E+01,      /* I =207 */
(PID.TID 0000.0001)                 1.772120752590214E+01,      /* I =208 */
(PID.TID 0000.0001)                 1.790757177373487E+01,      /* I =209 */
(PID.TID 0000.0001)                 1.810015722627195E+01,      /* I =210 */
(PID.TID 0000.0001)                 1.829902786428892E+01,      /* I =211 */
(PID.TID 0000.0001)                 1.850423569942308E+01,      /* I =212 */
(PID.TID 0000.0001)                 1.871581977656487E+01,      /* I =213 */
(PID.TID 0000.0001)                 1.893380518344518E+01,      /* I =214 */
(PID.TID 0000.0001)                 1.915820207710334E+01,      /* I =215 */
(PID.TID 0000.0001)                 1.938900473768388E+01,      /* I =216 */
(PID.TID 0000.0001)                 1.962619066069162E+01,      /* I =217 */
(PID.TID 0000.0001)                 1.986971969941029E+01,      /* I =218 */
(PID.TID 0000.0001)                 2.011953326963638E+01,      /* I =219 */
(PID.TID 0000.0001)                 2.037555362917121E+01,      /* I =220 */
(PID.TID 0000.0001)                 2.063768324462843E+01,      /* I =221 */
(PID.TID 0000.0001)                 2.090580425802844E+01,      /* I =222 */
(PID.TID 0000.0001)                 2.117977806534697E+01,      /* I =223 */
(PID.TID 0000.0001)                 2.145944501864553E+01,      /* I =224 */
(PID.TID 0000.0001)                 2.174462426262659E+01,      /* I =225 */
(PID.TID 0000.0001)                 2.203511371541921E+01,      /* I =226 */
(PID.TID 0000.0001)                 2.233069020211113E+01,      /* I =227 */
(PID.TID 0000.0001)                 2.263110974800941E+01,      /* I =228 */
(PID.TID 0000.0001)                 2.293610803684538E+01,      /* I =229 */
(PID.TID 0000.0001)                 2.324540103716459E+01,      /* I =230 */
(PID.TID 0000.0001)                 2.355868579798565E+01,      /* I =231 */
(PID.TID 0000.0001)                 2.387564141251102E+01,      /* I =232 */
(PID.TID 0000.0001)                 2.419593014626957E+01,      /* I =233 */
(PID.TID 0000.0001)                 2.451919872361348E+01,      /* I =234 */
(PID.TID 0000.0001)                 2.484507976403390E+01,      /* I =235 */
(PID.TID 0000.0001)                 2.517319335735632E+01,      /* I =236 */
(PID.TID 0000.0001)                 2.550314876458363E+01,      /* I =237 */
(PID.TID 0000.0001)                 2.583454622903081E+01,      /* I =238 */
(PID.TID 0000.0001)                 2.616697888049133E+01,      /* I =239 */
(PID.TID 0000.0001)                 2.650003471354386E+01,      /* I =240 */
(PID.TID 0000.0001)                 2.683329861978947E+01,      /* I =241 */
(PID.TID 0000.0001)                 2.716635445284200E+01,      /* I =242 */
(PID.TID 0000.0001)                 2.749878710430253E+01,      /* I =243 */
(PID.TID 0000.0001)                 2.783018456874970E+01,      /* I =244 */
(PID.TID 0000.0001)                 2.816013997597701E+01,      /* I =245 */
(PID.TID 0000.0001)                 2.848825356929943E+01,      /* I =246 */
(PID.TID 0000.0001)                 2.881413460971985E+01,      /* I =247 */
(PID.TID 0000.0001)                 2.913740318706376E+01,      /* I =248 */
(PID.TID 0000.0001)                 2.945769192082232E+01,      /* I =249 */
(PID.TID 0000.0001)                 2.977464753534769E+01,      /* I =250 */
(PID.TID 0000.0001)                 3.008793229616873E+01,      /* I =251 */
(PID.TID 0000.0001)                 3.039722529648795E+01,      /* I =252 */
(PID.TID 0000.0001)                 3.070222358532392E+01,      /* I =253 */
(PID.TID 0000.0001)                 3.100264313122220E+01,      /* I =254 */
(PID.TID 0000.0001)                 3.129821961791412E+01,      /* I =255 */
(PID.TID 0000.0001)                 3.158870907070674E+01,      /* I =256 */
(PID.TID 0000.0001)                 3.187388831468781E+01,      /* I =257 */
(PID.TID 0000.0001)                 3.215355526798636E+01,      /* I =258 */
(PID.TID 0000.0001)                 3.242752907530489E+01,      /* I =259 */
(PID.TID 0000.0001)                 3.269565008870491E+01,      /* I =260 */
(PID.TID 0000.0001)                 3.295777970416212E+01,      /* I =261 */
(PID.TID 0000.0001)                 3.321380006369695E+01,      /* I =262 */
(PID.TID 0000.0001)                 3.346361363392305E+01,      /* I =263 */
(PID.TID 0000.0001)                 3.370714267264171E+01,      /* I =264 */
(PID.TID 0000.0001)                 3.394432859564945E+01,      /* I =265 */
(PID.TID 0000.0001)                 3.417513125623000E+01,      /* I =266 */
(PID.TID 0000.0001)                 3.439952814988815E+01,      /* I =267 */
(PID.TID 0000.0001)                 3.461751355676846E+01,      /* I =268 */
(PID.TID 0000.0001)                 3.482909763391025E+01,      /* I =269 */
(PID.TID 0000.0001)                 3.503430546904441E+01,      /* I =270 */
(PID.TID 0000.0001)                 3.523317610706138E+01,      /* I =271 */
(PID.TID 0000.0001)                 3.542576155959846E+01,      /* I =272 */
(PID.TID 0000.0001)                 3.561212580743119E+01,      /* I =273 */
(PID.TID 0000.0001)                 3.579234380453173E+01,      /* I =274 */
(PID.TID 0000.0001)                 3.596650049179701E+01,      /* I =275 */
(PID.TID 0000.0001)                 3.613468982757097E+01,      /* I =276 */
(PID.TID 0000.0001)                 3.629701384120557E+01,      /* I =277 */
(PID.TID 0000.0001)                 3.645358171503877E+01,      /* I =278 */
(PID.TID 0000.0001)                 3.660450889932781E+01,      /* I =279 */
(PID.TID 0000.0001)                 3.674991626387288E+01,      /* I =280 */
(PID.TID 0000.0001)                 3.688992928930789E+01,      /* I =281 */
(PID.TID 0000.0001)                 3.702467730032795E+01,      /* I =282 */
(PID.TID 0000.0001)                 3.715429274247181E+01,      /* I =283 */
(PID.TID 0000.0001)                 3.727891050348418E+01,      /* I =284 */
(PID.TID 0000.0001)                 3.739866727974940E+01,      /* I =285 */
(PID.TID 0000.0001)                 3.751370098781379E+01,      /* I =286 */
(PID.TID 0000.0001)                 3.762415022059830E+01,      /* I =287 */
(PID.TID 0000.0001)                 3.773015374754408E+01,      /* I =288 */
(PID.TID 0000.0001)                 3.783185005762799E+01,      /* I =289 */
(PID.TID 0000.0001)                 3.792937694393037E+01,      /* I =290 */
(PID.TID 0000.0001)                 3.802287112822985E+01,      /* I =291 */
(PID.TID 0000.0001)                 3.811246792393514E+01,      /* I =292 */
(PID.TID 0000.0001)                 3.819830093553912E+01,      /* I =293 */
(PID.TID 0000.0001)                 3.828050179269046E+01,      /* I =294 */
(PID.TID 0000.0001)                 3.835919991691994E+01,      /* I =295 */
(PID.TID 0000.0001)                 3.843452231902831E+01,      /* I =296 */
(PID.TID 0000.0001)                 3.850659342513587E+01,      /* I =297 */
(PID.TID 0000.0001)                 3.857553492940855E+01,      /* I =298 */
(PID.TID 0000.0001)                 3.864146567150701E+01,      /* I =299 */
(PID.TID 0000.0001)                 3.870450153685168E+01,      /* I =300 */
(PID.TID 0000.0001)                 3.876475537785527E+01,      /* I =301 */
(PID.TID 0000.0001)                 3.882233695434168E+01,      /* I =302 */
(PID.TID 0000.0001)                 3.887735289144598E+01,      /* I =303 */
(PID.TID 0000.0001)                 3.892990665337027E+01,      /* I =304 */
(PID.TID 0000.0001)                 3.898009853145474E+01,      /* I =305 */
(PID.TID 0000.0001)                 3.902802564510979E+01,      /* I =306 */
(PID.TID 0000.0001)                 3.907378195424248E+01,      /* I =307 */
(PID.TID 0000.0001)                 3.911745828189828E+01,      /* I =308 */
(PID.TID 0000.0001)                 3.915914234592535E+01,      /* I =309 */
(PID.TID 0000.0001)                 3.919891879855328E+01,      /* I =310 */
(PID.TID 0000.0001)                 3.923686927286094E+01,      /* I =311 */
(PID.TID 0000.0001)                 3.927307243518748E+01,      /* I =312 */
(PID.TID 0000.0001)                 3.930760404261683E+01,      /* I =313 */
(PID.TID 0000.0001)                 3.934053700473945E+01,      /* I =314 */
(PID.TID 0000.0001)                 3.937194144896407E+01,      /* I =315 */
(PID.TID 0000.0001)                 3.940188478871792E+01,      /* I =316 */
(PID.TID 0000.0001)                 3.943043179393585E+01,      /* I =317 */
(PID.TID 0000.0001)                 3.945764466329656E+01,      /* I =318 */
(PID.TID 0000.0001)                 3.948358309771845E+01,      /* I =319 */
(PID.TID 0000.0001)                 3.950830437467826E+01       /* I =320 */
(PID.TID 0000.0001)     ;
(PID.TID 0000.0001) dxC =  /* dxC(1,:,1,:) ( m - cartesian, degrees - spherical ) */
(PID.TID 0000.0001)                 2.642693665638726E+01       /* J =  1 */
(PID.TID 0000.0001)     ;
(PID.TID 0000.0001) dyC =  /* dyC(:,1,:,1) ( m - cartesian, degrees - spherical ) */
(PID.TID 0000.0001)   320 @  2.000000000000000E+02              /* I =  1:320 */
(PID.TID 0000.0001)     ;
(PID.TID 0000.0001) dyC =  /* dyC(1,:,1,:) ( m - cartesian, degrees - spherical ) */
(PID.TID 0000.0001)                 2.000000000000000E+02       /* J =  1 */
(PID.TID 0000.0001)     ;
(PID.TID 0000.0001) dxV =  /* dxV(:,1,:,1) ( m - cartesian, degrees - spherical ) */
(PID.TID 0000.0001)                 2.642693665638726E+01,      /* I =  1 */
(PID.TID 0000.0001)                 1.333350999399778E+01,      /* I =  2 */
(PID.TID 0000.0001)                 1.333351905152062E+01,      /* I =  3 */
(PID.TID 0000.0001)                 1.333352857342594E+01,      /* I =  4 */
(PID.TID 0000.0001)                 1.333353858352245E+01,      /* I =  5 */
(PID.TID 0000.0001)                 1.333354910683947E+01,      /* I =  6 */
(PID.TID 0000.0001)                 1.333356016968953E+01,      /* I =  7 */
(PID.TID 0000.0001)                 1.333357179973415E+01,      /* I =  8 */
(PID.TID 0000.0001)                 1.333358402605295E+01,      /* I =  9 */
(PID.TID 0000.0001)                 1.333359687921643E+01,      /* I = 10 */
(PID.TID 0000.0001)                 1.333361039136233E+01,      /* I = 11 */
(PID.TID 0000.0001)                 1.333362459627599E+01,      /* I = 12 */
(PID.TID 0000.0001)                 1.333363952947481E+01,      /* I = 13 */
(PID.TID 0000.0001)                 1.333365522829707E+01,      /* I = 14 */
(PID.TID 0000.0001)                 1.333367173199521E+01,      /* I = 15 */
(PID.TID 0000.0001)                 1.333368908183401E+01,      /* I = 16 */
(PID.TID 0000.0001)                 1.333370732119372E+01,      /* I = 17 */
(PID.TID 0000.0001)                 1.333372649567847E+01,      /* I = 18 */
(PID.TID 0000.0001)                 1.333374665323032E+01,      /* I = 19 */
(PID.TID 0000.0001)                 1.333376784424909E+01,      /* I = 20 */
(PID.TID 0000.0001)                 1.333379012171828E+01,      /* I = 21 */
(PID.TID 0000.0001)                 1.333381354133758E+01,      /* I = 22 */
(PID.TID 0000.0001)                 1.333383816166205E+01,      /* I = 23 */
(PID.TID 0000.0001)                 1.333386404424851E+01,      /* I = 24 */
(PID.TID 0000.0001)                 1.333389125380934E+01,      /* I = 25 */
(PID.TID 0000.0001)                 1.333391985837429E+01,      /* I = 26 */
(PID.TID 0000.0001)                 1.333394992946042E+01,      /* I = 27 */
(PID.TID 0000.0001)                 1.333398154225094E+01,      /* I = 28 */
(PID.TID 0000.0001)                 1.333401477578303E+01,      /* I = 29 */
(PID.TID 0000.0001)                 1.333404971314536E+01,      /* I = 30 */
(PID.TID 0000.0001)                 1.333408644168579E+01,      /* I = 31 */
(PID.TID 0000.0001)                 1.333412505322961E+01,      /* I = 32 */
(PID.TID 0000.0001)                 1.333416564430897E+01,      /* I = 33 */
(PID.TID 0000.0001)                 1.333420831640414E+01,      /* I = 34 */
(PID.TID 0000.0001)                 1.333425317619707E+01,      /* I = 35 */
(PID.TID 0000.0001)                 1.333430033583793E+01,      /* I = 36 */
(PID.TID 0000.0001)                 1.333434991322531E+01,      /* I = 37 */
(PID.TID 0000.0001)                 1.333440203230080E+01,      /* I = 38 */
(PID.TID 0000.0001)                 1.333445682335862E+01,      /* I = 39 */
(PID.TID 0000.0001)                 1.333451442337113E+01,      /* I = 40 */
(PID.TID 0000.0001)                 1.333457497633095E+01,      /* I = 41 */
(PID.TID 0000.0001)                 1.333463863361070E+01,      /* I = 42 */
(PID.TID 0000.0001)                 1.333470555434106E+01,      /* I = 43 */
(PID.TID 0000.0001)                 1.333477590580825E+01,      /* I = 44 */
(PID.TID 0000.0001)                 1.333484986387179E+01,      /* I = 45 */
(PID.TID 0000.0001)                 1.333492761340370E+01,      /* I = 46 */
(PID.TID 0000.0001)                 1.333500934875020E+01,      /* I = 47 */
(PID.TID 0000.0001)                 1.333509527421690E+01,      /* I = 48 */
(PID.TID 0000.0001)                 1.333518560457904E+01,      /* I = 49 */
(PID.TID 0000.0001)                 1.333528056561758E+01,      /* I = 50 */
(PID.TID 0000.0001)                 1.333538039468296E+01,      /* I = 51 */
(PID.TID 0000.0001)                 1.333548534128751E+01,      /* I = 52 */
(PID.TID 0000.0001)                 1.333559566772826E+01,      /* I = 53 */
(PID.TID 0000.0001)                 1.333571164974160E+01,      /* I = 54 */
(PID.TID 0000.0001)                 1.333583357719136E+01,      /* I = 55 */
(PID.TID 0000.0001)                 1.333596175479210E+01,      /* I = 56 */
(PID.TID 0000.0001)                 1.333609650286941E+01,      /* I = 57 */
(PID.TID 0000.0001)                 1.333623815815904E+01,      /* I = 58 */
(PID.TID 0000.0001)                 1.333638707464681E+01,      /* I = 59 */
(PID.TID 0000.0001)                 1.333654362445156E+01,      /* I = 60 */
(PID.TID 0000.0001)                 1.333670819875313E+01,      /* I = 61 */
(PID.TID 0000.0001)                 1.333688120876771E+01,      /* I = 62 */
(PID.TID 0000.0001)                 1.333706308677308E+01,      /* I = 63 */
(PID.TID 0000.0001)                 1.333725428718615E+01,      /* I = 64 */
(PID.TID 0000.0001)                 1.333745528769550E+01,      /* I = 65 */
(PID.TID 0000.0001)                 1.333766659045173E+01,      /* I = 66 */
(PID.TID 0000.0001)                 1.333788872331856E+01,      /* I = 67 */
(PID.TID 0000.0001)                 1.333812224118771E+01,      /* I = 68 */
(PID.TID 0000.0001)                 1.333836772736086E+01,      /* I = 69 */
(PID.TID 0000.0001)                 1.333862579500209E+01,      /* I = 70 */
(PID.TID 0000.0001)                 1.333889708866426E+01,      /* I = 71 */
(PID.TID 0000.0001)                 1.333918228589330E+01,      /* I = 72 */
(PID.TID 0000.0001)                 1.333948209891407E+01,      /* I = 73 */
(PID.TID 0000.0001)                 1.333979727640216E+01,      /* I = 74 */
(PID.TID 0000.0001)                 1.334012860534580E+01,      /* I = 75 */
(PID.TID 0000.0001)                 1.334047691300263E+01,      /* I = 76 */
(PID.TID 0000.0001)                 1.334084306895581E+01,      /* I = 77 */
(PID.TID 0000.0001)                 1.334122798727485E+01,      /* I = 78 */
(PID.TID 0000.0001)                 1.334163262878608E+01,      /* I = 79 */
(PID.TID 0000.0001)                 1.334205800345858E+01,      /* I = 80 */
(PID.TID 0000.0001)                 1.334250517291117E+01,      /* I = 81 */
(PID.TID 0000.0001)                 1.334297525304664E+01,      /* I = 82 */
(PID.TID 0000.0001)                 1.334346941681954E+01,      /* I = 83 */
(PID.TID 0000.0001)                 1.334398889714433E+01,      /* I = 84 */
(PID.TID 0000.0001)                 1.334453498995081E+01,      /* I = 85 */
(PID.TID 0000.0001)                 1.334510905739420E+01,      /* I = 86 */
(PID.TID 0000.0001)                 1.334571253122772E+01,      /* I = 87 */
(PID.TID 0000.0001)                 1.334634691634557E+01,      /* I = 88 */
(PID.TID 0000.0001)                 1.334701379450502E+01,      /* I = 89 */
(PID.TID 0000.0001)                 1.334771482823627E+01,      /* I = 90 */
(PID.TID 0000.0001)                 1.334845176494967E+01,      /* I = 91 */
(PID.TID 0000.0001)                 1.334922644124982E+01,      /* I = 92 */
(PID.TID 0000.0001)                 1.335004078746694E+01,      /* I = 93 */
(PID.TID 0000.0001)                 1.335089683241625E+01,      /* I = 94 */
(PID.TID 0000.0001)                 1.335179670839645E+01,      /* I = 95 */
(PID.TID 0000.0001)                 1.335274265643916E+01,      /* I = 96 */
(PID.TID 0000.0001)                 1.335373703182170E+01,      /* I = 97 */
(PID.TID 0000.0001)                 1.335478230985586E+01,      /* I = 98 */
(PID.TID 0000.0001)                 1.335588109196637E+01,      /* I = 99 */
(PID.TID 0000.0001)                 1.335703611207306E+01,      /* I =100 */
(PID.TID 0000.0001)                 1.335825024329148E+01,      /* I =101 */
(PID.TID 0000.0001)                 1.335952650496728E+01,      /* I =102 */
(PID.TID 0000.0001)                 1.336086807006069E+01,      /* I =103 */
(PID.TID 0000.0001)                 1.336227827289768E+01,      /* I =104 */
(PID.TID 0000.0001)                 1.336376061730554E+01,      /* I =105 */
(PID.TID 0000.0001)                 1.336531878515111E+01,      /* I =106 */
(PID.TID 0000.0001)                 1.336695664530086E+01,      /* I =107 */
(PID.TID 0000.0001)                 1.336867826302288E+01,      /* I =108 */
(PID.TID 0000.0001)                 1.337048790985136E+01,      /* I =109 */
(PID.TID 0000.0001)                 1.337239007393546E+01,      /* I =110 */
(PID.TID 0000.0001)                 1.337438947089521E+01,      /* I =111 */
(PID.TID 0000.0001)                 1.337649105520771E+01,      /* I =112 */
(PID.TID 0000.0001)                 1.337870003214839E+01,      /* I =113 */
(PID.TID 0000.0001)                 1.338102187031264E+01,      /* I =114 */
(PID.TID 0000.0001)                 1.338346231474427E+01,      /* I =115 */
(PID.TID 0000.0001)                 1.338602740069837E+01,      /* I =116 */
(PID.TID 0000.0001)                 1.338872346806686E+01,      /* I =117 */
(PID.TID 0000.0001)                 1.339155717649654E+01,      /* I =118 */
(PID.TID 0000.0001)                 1.339453552123006E+01,      /* I =119 */
(PID.TID 0000.0001)                 1.339766584970151E+01,      /* I =120 */
(PID.TID 0000.0001)                 1.340095587891944E+01,      /* I =121 */
(PID.TID 0000.0001)                 1.340441371367113E+01,      /* I =122 */
(PID.TID 0000.0001)                 1.340804786558282E+01,      /* I =123 */
(PID.TID 0000.0001)                 1.341186727307212E+01,      /* I =124 */
(PID.TID 0000.0001)                 1.341588132222925E+01,      /* I =125 */
(PID.TID 0000.0001)                 1.342009986866531E+01,      /* I =126 */
(PID.TID 0000.0001)                 1.342453326036640E+01,      /* I =127 */
(PID.TID 0000.0001)                 1.342919236159337E+01,      /* I =128 */
(PID.TID 0000.0001)                 1.343408857786809E+01,      /* I =129 */
(PID.TID 0000.0001)                 1.343923388208756E+01,      /* I =130 */
(PID.TID 0000.0001)                 1.344464084180802E+01,      /* I =131 */
(PID.TID 0000.0001)                 1.345032264774195E+01,      /* I =132 */
(PID.TID 0000.0001)                 1.345629314351116E+01,      /* I =133 */
(PID.TID 0000.0001)                 1.346256685669937E+01,      /* I =134 */
(PID.TID 0000.0001)                 1.346915903124821E+01,      /* I =135 */
(PID.TID 0000.0001)                 1.347608566124012E+01,      /* I =136 */
(PID.TID 0000.0001)                 1.348336352611167E+01,      /* I =137 */
(PID.TID 0000.0001)                 1.349101022734012E+01,      /* I =138 */
(PID.TID 0000.0001)                 1.349904422664533E+01,      /* I =139 */
(PID.TID 0000.0001)                 1.350748488574801E+01,      /* I =140 */
(PID.TID 0000.0001)                 1.351635250772373E+01,      /* I =141 */
(PID.TID 0000.0001)                 1.352566837999036E+01,      /* I =142 */
(PID.TID 0000.0001)                 1.353545481896396E+01,      /* I =143 */
(PID.TID 0000.0001)                 1.354573521641566E+01,      /* I =144 */
(PID.TID 0000.0001)                 1.355653408755829E+01,      /* I =145 */
(PID.TID 0000.0001)                 1.356787712088746E+01,      /* I =146 */
(PID.TID 0000.0001)                 1.357979122979725E+01,      /* I =147 */
(PID.TID 0000.0001)                 1.359230460598467E+01,      /* I =148 */
(PID.TID 0000.0001)                 1.360544677465097E+01,      /* I =149 */
(PID.TID 0000.0001)                 1.361924865150015E+01,      /* I =150 */
(PID.TID 0000.0001)                 1.363374260152687E+01,      /* I =151 */
(PID.TID 0000.0001)                 1.364896249957595E+01,      /* I =152 */
(PID.TID 0000.0001)                 1.366494379264515E+01,      /* I =153 */
(PID.TID 0000.0001)                 1.368172356389035E+01,      /* I =154 */
(PID.TID 0000.0001)                 1.369934059827880E+01,      /* I =155 */
(PID.TID 0000.0001)                 1.371783544982025E+01,      /* I =156 */
(PID.TID 0000.0001)                 1.373725051028909E+01,      /* I =157 */
(PID.TID 0000.0001)                 1.375763007933133E+01,      /* I =158 */
(PID.TID 0000.0001)                 1.377902043582892E+01,      /* I =159 */
(PID.TID 0000.0001)                 1.380146991037093E+01,      /* I =160 */
(PID.TID 0000.0001)                 1.382502895865507E+01,      /* I =161 */
(PID.TID 0000.0001)                 1.384975023561489E+01,      /* I =162 */
(PID.TID 0000.0001)                 1.387568867003677E+01,      /* I =163 */
(PID.TID 0000.0001)                 1.390290153939748E+01,      /* I =164 */
(PID.TID 0000.0001)                 1.393144854461542E+01,      /* I =165 */
(PID.TID 0000.0001)                 1.396139188436927E+01,      /* I =166 */
(PID.TID 0000.0001)                 1.399279632859388E+01,      /* I =167 */
(PID.TID 0000.0001)                 1.402572929071650E+01,      /* I =168 */
(PID.TID 0000.0001)                 1.406026089814585E+01,      /* I =169 */
(PID.TID 0000.0001)                 1.409646406047239E+01,      /* I =170 */
(PID.TID 0000.0001)                 1.413441453478006E+01,      /* I =171 */
(PID.TID 0000.0001)                 1.417419098740798E+01,      /* I =172 */
(PID.TID 0000.0001)                 1.421587505143505E+01,      /* I =173 */
(PID.TID 0000.0001)                 1.425955137909086E+01,      /* I =174 */
(PID.TID 0000.0001)                 1.430530768822354E+01,      /* I =175 */
(PID.TID 0000.0001)                 1.435323480187859E+01,      /* I =176 */
(PID.TID 0000.0001)                 1.440342667996306E+01,      /* I =177 */
(PID.TID 0000.0001)                 1.445598044188735E+01,      /* I =178 */
(PID.TID 0000.0001)                 1.451099637899165E+01,      /* I =179 */
(PID.TID 0000.0001)                 1.456857795547806E+01,      /* I =180 */
(PID.TID 0000.0001)                 1.462883179648165E+01,      /* I =181 */
(PID.TID 0000.0001)                 1.469186766182633E+01,      /* I =182 */
(PID.TID 0000.0001)                 1.475779840392478E+01,      /* I =183 */
(PID.TID 0000.0001)                 1.482673990819746E+01,      /* I =184 */
(PID.TID 0000.0001)                 1.489881101430502E+01,      /* I =185 */
(PID.TID 0000.0001)                 1.497413341641339E+01,      /* I =186 */
(PID.TID 0000.0001)                 1.505283154064287E+01,      /* I =187 */
(PID.TID 0000.0001)                 1.513503239779421E+01,      /* I =188 */
(PID.TID 0000.0001)                 1.522086540939820E+01,      /* I =189 */
(PID.TID 0000.0001)                 1.531046220510348E+01,      /* I =190 */
(PID.TID 0000.0001)                 1.540395638940296E+01,      /* I =191 */
(PID.TID 0000.0001)                 1.550148327570534E+01,      /* I =192 */
(PID.TID 0000.0001)                 1.560317958578925E+01,      /* I =193 */
(PID.TID 0000.0001)                 1.570918311273503E+01,      /* I =194 */
(PID.TID 0000.0001)                 1.581963234551954E+01,      /* I =195 */
(PID.TID 0000.0001)                 1.593466605358393E+01,      /* I =196 */
(PID.TID 0000.0001)                 1.605442282984915E+01,      /* I =197 */
(PID.TID 0000.0001)                 1.617904059086152E+01,      /* I =198 */
(PID.TID 0000.0001)                 1.630865603300538E+01,      /* I =199 */
(PID.TID 0000.0001)                 1.644340404402545E+01,      /* I =200 */
(PID.TID 0000.0001)                 1.658341706946045E+01,      /* I =201 */
(PID.TID 0000.0001)                 1.672882443400552E+01,      /* I =202 */
(PID.TID 0000.0001)                 1.687975161829456E+01,      /* I =203 */
(PID.TID 0000.0001)                 1.703631949212776E+01,      /* I =204 */
(PID.TID 0000.0001)                 1.719864350576236E+01,      /* I =205 */
(PID.TID 0000.0001)                 1.736683284153632E+01,      /* I =206 */
(PID.TID 0000.0001)                 1.754098952880160E+01,      /* I =207 */
(PID.TID 0000.0001)                 1.772120752590214E+01,      /* I =208 */
(PID.TID 0000.0001)                 1.790757177373487E+01,      /* I =209 */
(PID.TID 0000.0001)                 1.810015722627195E+01,      /* I =210 */
(PID.TID 0000.0001)                 1.829902786428892E+01,      /* I =211 */
(PID.TID 0000.0001)                 1.850423569942308E+01,      /* I =212 */
(PID.TID 0000.0001)                 1.871581977656487E+01,      /* I =213 */
(PID.TID 0000.0001)                 1.893380518344518E+01,      /* I =214 */
(PID.TID 0000.0001)                 1.915820207710334E+01,      /* I =215 */
(PID.TID 0000.0001)                 1.938900473768388E+01,      /* I =216 */
(PID.TID 0000.0001)                 1.962619066069162E+01,      /* I =217 */
(PID.TID 0000.0001)                 1.986971969941029E+01,      /* I =218 */
(PID.TID 0000.0001)                 2.011953326963638E+01,      /* I =219 */
(PID.TID 0000.0001)                 2.037555362917121E+01,      /* I =220 */
(PID.TID 0000.0001)                 2.063768324462843E+01,      /* I =221 */
(PID.TID 0000.0001)                 2.090580425802844E+01,      /* I =222 */
(PID.TID 0000.0001)                 2.117977806534697E+01,      /* I =223 */
(PID.TID 0000.0001)                 2.145944501864553E+01,      /* I =224 */
(PID.TID 0000.0001)                 2.174462426262659E+01,      /* I =225 */
(PID.TID 0000.0001)                 2.203511371541921E+01,      /* I =226 */
(PID.TID 0000.0001)                 2.233069020211113E+01,      /* I =227 */
(PID.TID 0000.0001)                 2.263110974800941E+01,      /* I =228 */
(PID.TID 0000.0001)                 2.293610803684538E+01,      /* I =229 */
(PID.TID 0000.0001)                 2.324540103716459E+01,      /* I =230 */
(PID.TID 0000.0001)                 2.355868579798565E+01,      /* I =231 */
(PID.TID 0000.0001)                 2.387564141251102E+01,      /* I =232 */
(PID.TID 0000.0001)                 2.419593014626957E+01,      /* I =233 */
(PID.TID 0000.0001)                 2.451919872361348E+01,      /* I =234 */
(PID.TID 0000.0001)                 2.484507976403390E+01,      /* I =235 */
(PID.TID 0000.0001)                 2.517319335735632E+01,      /* I =236 */
(PID.TID 0000.0001)                 2.550314876458363E+01,      /* I =237 */
(PID.TID 0000.0001)                 2.583454622903081E+01,      /* I =238 */
(PID.TID 0000.0001)                 2.616697888049133E+01,      /* I =239 */
(PID.TID 0000.0001)                 2.650003471354386E+01,      /* I =240 */
(PID.TID 0000.0001)                 2.683329861978947E+01,      /* I =241 */
(PID.TID 0000.0001)                 2.716635445284200E+01,      /* I =242 */
(PID.TID 0000.0001)                 2.749878710430253E+01,      /* I =243 */
(PID.TID 0000.0001)                 2.783018456874970E+01,      /* I =244 */
(PID.TID 0000.0001)                 2.816013997597701E+01,      /* I =245 */
(PID.TID 0000.0001)                 2.848825356929943E+01,      /* I =246 */
(PID.TID 0000.0001)                 2.881413460971985E+01,      /* I =247 */
(PID.TID 0000.0001)                 2.913740318706376E+01,      /* I =248 */
(PID.TID 0000.0001)                 2.945769192082232E+01,      /* I =249 */
(PID.TID 0000.0001)                 2.977464753534769E+01,      /* I =250 */
(PID.TID 0000.0001)                 3.008793229616873E+01,      /* I =251 */
(PID.TID 0000.0001)                 3.039722529648795E+01,      /* I =252 */
(PID.TID 0000.0001)                 3.070222358532392E+01,      /* I =253 */
(PID.TID 0000.0001)                 3.100264313122220E+01,      /* I =254 */
(PID.TID 0000.0001)                 3.129821961791412E+01,      /* I =255 */
(PID.TID 0000.0001)                 3.158870907070674E+01,      /* I =256 */
(PID.TID 0000.0001)                 3.187388831468781E+01,      /* I =257 */
(PID.TID 0000.0001)                 3.215355526798636E+01,      /* I =258 */
(PID.TID 0000.0001)                 3.242752907530489E+01,      /* I =259 */
(PID.TID 0000.0001)                 3.269565008870491E+01,      /* I =260 */
(PID.TID 0000.0001)                 3.295777970416212E+01,      /* I =261 */
(PID.TID 0000.0001)                 3.321380006369695E+01,      /* I =262 */
(PID.TID 0000.0001)                 3.346361363392305E+01,      /* I =263 */
(PID.TID 0000.0001)                 3.370714267264171E+01,      /* I =264 */
(PID.TID 0000.0001)                 3.394432859564945E+01,      /* I =265 */
(PID.TID 0000.0001)                 3.417513125623000E+01,      /* I =266 */
(PID.TID 0000.0001)                 3.439952814988815E+01,      /* I =267 */
(PID.TID 0000.0001)                 3.461751355676846E+01,      /* I =268 */
(PID.TID 0000.0001)                 3.482909763391025E+01,      /* I =269 */
(PID.TID 0000.0001)                 3.503430546904441E+01,      /* I =270 */
(PID.TID 0000.0001)                 3.523317610706138E+01,      /* I =271 */
(PID.TID 0000.0001)                 3.542576155959846E+01,      /* I =272 */
(PID.TID 0000.0001)                 3.561212580743119E+01,      /* I =273 */
(PID.TID 0000.0001)                 3.579234380453173E+01,      /* I =274 */
(PID.TID 0000.0001)                 3.596650049179701E+01,      /* I =275 */
(PID.TID 0000.0001)                 3.613468982757097E+01,      /* I =276 */
(PID.TID 0000.0001)                 3.629701384120557E+01,      /* I =277 */
(PID.TID 0000.0001)                 3.645358171503877E+01,      /* I =278 */
(PID.TID 0000.0001)                 3.660450889932781E+01,      /* I =279 */
(PID.TID 0000.0001)                 3.674991626387288E+01,      /* I =280 */
(PID.TID 0000.0001)                 3.688992928930789E+01,      /* I =281 */
(PID.TID 0000.0001)                 3.702467730032795E+01,      /* I =282 */
(PID.TID 0000.0001)                 3.715429274247181E+01,      /* I =283 */
(PID.TID 0000.0001)                 3.727891050348418E+01,      /* I =284 */
(PID.TID 0000.0001)                 3.739866727974940E+01,      /* I =285 */
(PID.TID 0000.0001)                 3.751370098781379E+01,      /* I =286 */
(PID.TID 0000.0001)                 3.762415022059830E+01,      /* I =287 */
(PID.TID 0000.0001)                 3.773015374754408E+01,      /* I =288 */
(PID.TID 0000.0001)                 3.783185005762799E+01,      /* I =289 */
(PID.TID 0000.0001)                 3.792937694393037E+01,      /* I =290 */
(PID.TID 0000.0001)                 3.802287112822985E+01,      /* I =291 */
(PID.TID 0000.0001)                 3.811246792393514E+01,      /* I =292 */
(PID.TID 0000.0001)                 3.819830093553912E+01,      /* I =293 */
(PID.TID 0000.0001)                 3.828050179269046E+01,      /* I =294 */
(PID.TID 0000.0001)                 3.835919991691994E+01,      /* I =295 */
(PID.TID 0000.0001)                 3.843452231902831E+01,      /* I =296 */
(PID.TID 0000.0001)                 3.850659342513587E+01,      /* I =297 */
(PID.TID 0000.0001)                 3.857553492940855E+01,      /* I =298 */
(PID.TID 0000.0001)                 3.864146567150701E+01,      /* I =299 */
(PID.TID 0000.0001)                 3.870450153685168E+01,      /* I =300 */
(PID.TID 0000.0001)                 3.876475537785527E+01,      /* I =301 */
(PID.TID 0000.0001)                 3.882233695434168E+01,      /* I =302 */
(PID.TID 0000.0001)                 3.887735289144598E+01,      /* I =303 */
(PID.TID 0000.0001)                 3.892990665337027E+01,      /* I =304 */
(PID.TID 0000.0001)                 3.898009853145474E+01,      /* I =305 */
(PID.TID 0000.0001)                 3.902802564510979E+01,      /* I =306 */
(PID.TID 0000.0001)                 3.907378195424248E+01,      /* I =307 */
(PID.TID 0000.0001)                 3.911745828189828E+01,      /* I =308 */
(PID.TID 0000.0001)                 3.915914234592535E+01,      /* I =309 */
(PID.TID 0000.0001)                 3.919891879855328E+01,      /* I =310 */
(PID.TID 0000.0001)                 3.923686927286094E+01,      /* I =311 */
(PID.TID 0000.0001)                 3.927307243518748E+01,      /* I =312 */
(PID.TID 0000.0001)                 3.930760404261683E+01,      /* I =313 */
(PID.TID 0000.0001)                 3.934053700473945E+01,      /* I =314 */
(PID.TID 0000.0001)                 3.937194144896407E+01,      /* I =315 */
(PID.TID 0000.0001)                 3.940188478871792E+01,      /* I =316 */
(PID.TID 0000.0001)                 3.943043179393585E+01,      /* I =317 */
(PID.TID 0000.0001)                 3.945764466329656E+01,      /* I =318 */
(PID.TID 0000.0001)                 3.948358309771845E+01,      /* I =319 */
(PID.TID 0000.0001)                 3.950830437467826E+01       /* I =320 */
(PID.TID 0000.0001)     ;
(PID.TID 0000.0001) dxV =  /* dxV(1,:,1,:) ( m - cartesian, degrees - spherical ) */
(PID.TID 0000.0001)                 2.642693665638726E+01       /* J =  1 */
(PID.TID 0000.0001)     ;
(PID.TID 0000.0001) dyU =  /* dyU(:,1,:,1) ( m - cartesian, degrees - spherical ) */
(PID.TID 0000.0001)   320 @  2.000000000000000E+02              /* I =  1:320 */
(PID.TID 0000.0001)     ;
(PID.TID 0000.0001) dyU =  /* dyU(1,:,1,:) ( m - cartesian, degrees - spherical ) */
(PID.TID 0000.0001)                 2.000000000000000E+02       /* J =  1 */
(PID.TID 0000.0001)     ;
(PID.TID 0000.0001) rA =  /* rA(:,1,:,1) ( m - cartesian, degrees - spherical ) */
(PID.TID 0000.0001)                 2.666701115686057E+03,      /* I =  1 */
(PID.TID 0000.0001)                 2.666702881913057E+03,      /* I =  2 */
(PID.TID 0000.0001)                 2.666704738695189E+03,      /* I =  3 */
(PID.TID 0000.0001)                 2.666706690675185E+03,      /* I =  4 */
(PID.TID 0000.0001)                 2.666708742733794E+03,      /* I =  5 */
(PID.TID 0000.0001)                 2.666710900001994E+03,      /* I =  6 */
(PID.TID 0000.0001)                 2.666713167873819E+03,      /* I =  7 */
(PID.TID 0000.0001)                 2.666715552019839E+03,      /* I =  8 */
(PID.TID 0000.0001)                 2.666718058401342E+03,      /* I =  9 */
(PID.TID 0000.0001)                 2.666720693285232E+03,      /* I = 10 */
(PID.TID 0000.0001)                 2.666723463259700E+03,      /* I = 11 */
(PID.TID 0000.0001)                 2.666726375250694E+03,      /* I = 12 */
(PID.TID 0000.0001)                 2.666729436539230E+03,      /* I = 13 */
(PID.TID 0000.0001)                 2.666732654779597E+03,      /* I = 14 */
(PID.TID 0000.0001)                 2.666736038018488E+03,      /* I = 15 */
(PID.TID 0000.0001)                 2.666739594715118E+03,      /* I = 16 */
(PID.TID 0000.0001)                 2.666743333762369E+03,      /* I = 17 */
(PID.TID 0000.0001)                 2.666747264509018E+03,      /* I = 18 */
(PID.TID 0000.0001)                 2.666751396783111E+03,      /* I = 19 */
(PID.TID 0000.0001)                 2.666755740916523E+03,      /* I = 20 */
(PID.TID 0000.0001)                 2.666760307770787E+03,      /* I = 21 */
(PID.TID 0000.0001)                 2.666765108764243E+03,      /* I = 22 */
(PID.TID 0000.0001)                 2.666770155900579E+03,      /* I = 23 */
(PID.TID 0000.0001)                 2.666775461798826E+03,      /* I = 24 */
(PID.TID 0000.0001)                 2.666781039724912E+03,      /* I = 25 */
(PID.TID 0000.0001)                 2.666786903624803E+03,      /* I = 26 */
(PID.TID 0000.0001)                 2.666793068159366E+03,      /* I = 27 */
(PID.TID 0000.0001)                 2.666799548741011E+03,      /* I = 28 */
(PID.TID 0000.0001)                 2.666806361572199E+03,      /* I = 29 */
(PID.TID 0000.0001)                 2.666813523685944E+03,      /* I = 30 */
(PID.TID 0000.0001)                 2.666821052988373E+03,      /* I = 31 */
(PID.TID 0000.0001)                 2.666828968303470E+03,      /* I = 32 */
(PID.TID 0000.0001)                 2.666837289420117E+03,      /* I = 33 */
(PID.TID 0000.0001)                 2.666846037141539E+03,      /* I = 34 */
(PID.TID 0000.0001)                 2.666855233337290E+03,      /* I = 35 */
(PID.TID 0000.0001)                 2.666864900997882E+03,      /* I = 36 */
(PID.TID 0000.0001)                 2.666875064292241E+03,      /* I = 37 */
(PID.TID 0000.0001)                 2.666885748628079E+03,      /* I = 38 */
(PID.TID 0000.0001)                 2.666896980715370E+03,      /* I = 39 */
(PID.TID 0000.0001)                 2.666908788633080E+03,      /* I = 40 */
(PID.TID 0000.0001)                 2.666921201899298E+03,      /* I = 41 */
(PID.TID 0000.0001)                 2.666934251544980E+03,      /* I = 42 */
(PID.TID 0000.0001)                 2.666947970191445E+03,      /* I = 43 */
(PID.TID 0000.0001)                 2.666962392131855E+03,      /* I = 44 */
(PID.TID 0000.0001)                 2.666977553416860E+03,      /* I = 45 */
(PID.TID 0000.0001)                 2.666993491944622E+03,      /* I = 46 */
(PID.TID 0000.0001)                 2.667010247555456E+03,      /* I = 47 */
(PID.TID 0000.0001)                 2.667027862131305E+03,      /* I = 48 */
(PID.TID 0000.0001)                 2.667046379700309E+03,      /* I = 49 */
(PID.TID 0000.0001)                 2.667065846546724E+03,      /* I = 50 */
(PID.TID 0000.0001)                 2.667086311326460E+03,      /* I = 51 */
(PID.TID 0000.0001)                 2.667107825188542E+03,      /* I = 52 */
(PID.TID 0000.0001)                 2.667130441902762E+03,      /* I = 53 */
(PID.TID 0000.0001)                 2.667154217993878E+03,      /* I = 54 */
(PID.TID 0000.0001)                 2.667179212882664E+03,      /* I = 55 */
(PID.TID 0000.0001)                 2.667205489034175E+03,      /* I = 56 */
(PID.TID 0000.0001)                 2.667233112113591E+03,      /* I = 57 */
(PID.TID 0000.0001)                 2.667262151150025E+03,      /* I = 58 */
(PID.TID 0000.0001)                 2.667292678708699E+03,      /* I = 59 */
(PID.TID 0000.0001)                 2.667324771071927E+03,      /* I = 60 */
(PID.TID 0000.0001)                 2.667358508429325E+03,      /* I = 61 */
(PID.TID 0000.0001)                 2.667393975077757E+03,      /* I = 62 */
(PID.TID 0000.0001)                 2.667431259631473E+03,      /* I = 63 */
(PID.TID 0000.0001)                 2.667470455242985E+03,      /* I = 64 */
(PID.TID 0000.0001)                 2.667511659835214E+03,      /* I = 65 */
(PID.TID 0000.0001)                 2.667554976345479E+03,      /* I = 66 */
(PID.TID 0000.0001)                 2.667600512981946E+03,      /* I = 67 */
(PID.TID 0000.0001)                 2.667648383493139E+03,      /* I = 68 */
(PID.TID 0000.0001)                 2.667698707451207E+03,      /* I = 69 */
(PID.TID 0000.0001)                 2.667751610549628E+03,      /* I = 70 */
(PID.TID 0000.0001)                 2.667807224916078E+03,      /* I = 71 */
(PID.TID 0000.0001)                 2.667865689441244E+03,      /* I = 72 */
(PID.TID 0000.0001)                 2.667927150124385E+03,      /* I = 73 */
(PID.TID 0000.0001)                 2.667991760436477E+03,      /* I = 74 */
(PID.TID 0000.0001)                 2.668059681701844E+03,      /* I = 75 */
(PID.TID 0000.0001)                 2.668131083499207E+03,      /* I = 76 */
(PID.TID 0000.0001)                 2.668206144083118E+03,      /* I = 77 */
(PID.TID 0000.0001)                 2.668285050826821E+03,      /* I = 78 */
(PID.TID 0000.0001)                 2.668368000687609E+03,      /* I = 79 */
(PID.TID 0000.0001)                 2.668455200695822E+03,      /* I = 80 */
(PID.TID 0000.0001)                 2.668546868468647E+03,      /* I = 81 */
(PID.TID 0000.0001)                 2.668643232750007E+03,      /* I = 82 */
(PID.TID 0000.0001)                 2.668744533977807E+03,      /* I = 83 */
(PID.TID 0000.0001)                 2.668851024879925E+03,      /* I = 84 */
(PID.TID 0000.0001)                 2.668962971100398E+03,      /* I = 85 */
(PID.TID 0000.0001)                 2.669080651857283E+03,      /* I = 86 */
(PID.TID 0000.0001)                 2.669204360633805E+03,      /* I = 87 */
(PID.TID 0000.0001)                 2.669334405904424E+03,      /* I = 88 */
(PID.TID 0000.0001)                 2.669471111897582E+03,      /* I = 89 */
(PID.TID 0000.0001)                 2.669614819396926E+03,      /* I = 90 */
(PID.TID 0000.0001)                 2.669765886582942E+03,      /* I = 91 */
(PID.TID 0000.0001)                 2.669924689916983E+03,      /* I = 92 */
(PID.TID 0000.0001)                 2.670091625069792E+03,      /* I = 93 */
(PID.TID 0000.0001)                 2.670267107896709E+03,      /* I = 94 */
(PID.TID 0000.0001)                 2.670451575461870E+03,      /* I = 95 */
(PID.TID 0000.0001)                 2.670645487113796E+03,      /* I = 96 */
(PID.TID 0000.0001)                 2.670849325614885E+03,      /* I = 97 */
(PID.TID 0000.0001)                 2.671063598327458E+03,      /* I = 98 */
(PID.TID 0000.0001)                 2.671288838459089E+03,      /* I = 99 */
(PID.TID 0000.0001)                 2.671525606370137E+03,      /* I =100 */
(PID.TID 0000.0001)                 2.671774490946455E+03,      /* I =101 */
(PID.TID 0000.0001)                 2.672036111040457E+03,      /* I =102 */
(PID.TID 0000.0001)                 2.672311116983819E+03,      /* I =103 */
(PID.TID 0000.0001)                 2.672600192175255E+03,      /* I =104 */
(PID.TID 0000.0001)                 2.672904054746963E+03,      /* I =105 */
(PID.TID 0000.0001)                 2.673223459313480E+03,      /* I =106 */
(PID.TID 0000.0001)                 2.673559198806866E+03,      /* I =107 */
(PID.TID 0000.0001)                 2.673912106402288E+03,      /* I =108 */
(PID.TID 0000.0001)                 2.674283057538254E+03,      /* I =109 */
(PID.TID 0000.0001)                 2.674672972035931E+03,      /* I =110 */
(PID.TID 0000.0001)                 2.675082816322154E+03,      /* I =111 */
(PID.TID 0000.0001)                 2.675513605760930E+03,      /* I =112 */
(PID.TID 0000.0001)                 2.675966407098426E+03,      /* I =113 */
(PID.TID 0000.0001)                 2.676442341026629E+03,      /* I =114 */
(PID.TID 0000.0001)                 2.676942584871080E+03,      /* I =115 */
(PID.TID 0000.0001)                 2.677468375408266E+03,      /* I =116 */
(PID.TID 0000.0001)                 2.678021011818476E+03,      /* I =117 */
(PID.TID 0000.0001)                 2.678601858780140E+03,      /* I =118 */
(PID.TID 0000.0001)                 2.679212349711884E+03,      /* I =119 */
(PID.TID 0000.0001)                 2.679853990168719E+03,      /* I =120 */
(PID.TID 0000.0001)                 2.680528361399058E+03,      /* I =121 */
(PID.TID 0000.0001)                 2.681237124069392E+03,      /* I =122 */
(PID.TID 0000.0001)                 2.681982022163736E+03,      /* I =123 */
(PID.TID 0000.0001)                 2.682764887065112E+03,      /* I =124 */
(PID.TID 0000.0001)                 2.683587641826588E+03,      /* I =125 */
(PID.TID 0000.0001)                 2.684452305639538E+03,      /* I =126 */
(PID.TID 0000.0001)                 2.685360998507020E+03,      /* I =127 */
(PID.TID 0000.0001)                 2.686315946130325E+03,      /* I =128 */
(PID.TID 0000.0001)                 2.687319485016912E+03,      /* I =129 */
(PID.TID 0000.0001)                 2.688374067818113E+03,      /* I =130 */
(PID.TID 0000.0001)                 2.689482268905093E+03,      /* I =131 */
(PID.TID 0000.0001)                 2.690646790191687E+03,      /* I =132 */
(PID.TID 0000.0001)                 2.691870467212776E+03,      /* I =133 */
(PID.TID 0000.0001)                 2.693156275466971E+03,      /* I =134 */
(PID.TID 0000.0001)                 2.694507337032312E+03,      /* I =135 */
(PID.TID 0000.0001)                 2.695926927463736E+03,      /* I =136 */
(PID.TID 0000.0001)                 2.697418482980933E+03,      /* I =137 */
(PID.TID 0000.0001)                 2.698985607955115E+03,      /* I =138 */
(PID.TID 0000.0001)                 2.700632082703016E+03,      /* I =139 */
(PID.TID 0000.0001)                 2.702361871596186E+03,      /* I =140 */
(PID.TID 0000.0001)                 2.704179131493308E+03,      /* I =141 */
(PID.TID 0000.0001)                 2.706088220502837E+03,      /* I =142 */
(PID.TID 0000.0001)                 2.708093707082747E+03,      /* I =143 */
(PID.TID 0000.0001)                 2.710200379483520E+03,      /* I =144 */
(PID.TID 0000.0001)                 2.712413255539797E+03,      /* I =145 */
(PID.TID 0000.0001)                 2.714737592815188E+03,      /* I =146 */
(PID.TID 0000.0001)                 2.717178899103712E+03,      /* I =147 */
(PID.TID 0000.0001)                 2.719742943290156E+03,      /* I =148 */
(PID.TID 0000.0001)                 2.722435766570230E+03,      /* I =149 */
(PID.TID 0000.0001)                 2.725263694029831E+03,      /* I =150 */
(PID.TID 0000.0001)                 2.728233346580919E+03,      /* I =151 */
(PID.TID 0000.0001)                 2.731351653249463E+03,      /* I =152 */
(PID.TID 0000.0001)                 2.734625863808595E+03,      /* I =153 */
(PID.TID 0000.0001)                 2.738063561747545E+03,      /* I =154 */
(PID.TID 0000.0001)                 2.741672677563976E+03,      /* I =155 */
(PID.TID 0000.0001)                 2.745461502364123E+03,      /* I =156 */
(PID.TID 0000.0001)                 2.749438701751514E+03,      /* I =157 */
(PID.TID 0000.0001)                 2.753613329981019E+03,      /* I =158 */
(PID.TID 0000.0001)                 2.757994844350548E+03,      /* I =159 */
(PID.TID 0000.0001)                 2.762593119797822E+03,      /* I =160 */
(PID.TID 0000.0001)                 2.767418463664208E+03,      /* I =161 */
(PID.TID 0000.0001)                 2.772481630581747E+03,      /* I =162 */
(PID.TID 0000.0001)                 2.777793837432962E+03,      /* I =163 */
(PID.TID 0000.0001)                 2.783366778326029E+03,      /* I =164 */
(PID.TID 0000.0001)                 2.789212639520137E+03,      /* I =165 */
(PID.TID 0000.0001)                 2.795344114227569E+03,      /* I =166 */
(PID.TID 0000.0001)                 2.801774417209983E+03,      /* I =167 */
(PID.TID 0000.0001)                 2.808517299076618E+03,      /* I =168 */
(PID.TID 0000.0001)                 2.815587060181723E+03,      /* I =169 */
(PID.TID 0000.0001)                 2.822998564007234E+03,      /* I =170 */
(PID.TID 0000.0001)                 2.830767249904789E+03,      /* I =171 */
(PID.TID 0000.0001)                 2.838909145058403E+03,      /* I =172 */
(PID.TID 0000.0001)                 2.847440875515617E+03,      /* I =173 */
(PID.TID 0000.0001)                 2.856379676120726E+03,      /* I =174 */
(PID.TID 0000.0001)                 2.865743399168691E+03,      /* I =175 */
(PID.TID 0000.0001)                 2.875550521582743E+03,      /* I =176 */
(PID.TID 0000.0001)                 2.885820150402481E+03,      /* I =177 */
(PID.TID 0000.0001)                 2.896572026352459E+03,      /* I =178 */
(PID.TID 0000.0001)                 2.907826525244200E+03,      /* I =179 */
(PID.TID 0000.0001)                 2.919604656947023E+03,      /* I =180 */
(PID.TID 0000.0001)                 2.931928061645636E+03,      /* I =181 */
(PID.TID 0000.0001)                 2.944819003084895E+03,      /* I =182 */
(PID.TID 0000.0001)                 2.958300358485018E+03,      /* I =183 */
(PID.TID 0000.0001)                 2.972395604793966E+03,      /* I =184 */
(PID.TID 0000.0001)                 2.987128800928041E+03,      /* I =185 */
(PID.TID 0000.0001)                 3.002524565637315E+03,      /* I =186 */
(PID.TID 0000.0001)                 3.018608050619834E+03,      /* I =187 */
(PID.TID 0000.0001)                 3.035404908497850E+03,      /* I =188 */
(PID.TID 0000.0001)                 3.052941255261428E+03,      /* I =189 */
(PID.TID 0000.0001)                 3.071243626779966E+03,      /* I =190 */
(PID.TID 0000.0001)                 3.090338928981218E+03,      /* I =191 */
(PID.TID 0000.0001)                 3.110254381300920E+03,      /* I =192 */
(PID.TID 0000.0001)                 3.131017453014780E+03,      /* I =193 */
(PID.TID 0000.0001)                 3.152655792079233E+03,      /* I =194 */
(PID.TID 0000.0001)                 3.175197146128584E+03,      /* I =195 */
(PID.TID 0000.0001)                 3.198669275304987E+03,      /* I =196 */
(PID.TID 0000.0001)                 3.223099856634673E+03,      /* I =197 */
(PID.TID 0000.0001)                 3.248516379709935E+03,      /* I =198 */
(PID.TID 0000.0001)                 3.274946033492218E+03,      /* I =199 */
(PID.TID 0000.0001)                 3.302415584117961E+03,      /* I =200 */
(PID.TID 0000.0001)                 3.330951243666221E+03,      /* I =201 */
(PID.TID 0000.0001)                 3.360578529935989E+03,      /* I =202 */
(PID.TID 0000.0001)                 3.391322117381837E+03,      /* I =203 */
(PID.TID 0000.0001)                 3.423205679469268E+03,      /* I =204 */
(PID.TID 0000.0001)                 3.456251722835677E+03,      /* I =205 */
(PID.TID 0000.0001)                 3.490481413778852E+03,      /* I =206 */
(PID.TID 0000.0001)                 3.525914397741788E+03,      /* I =207 */
(PID.TID 0000.0001)                 3.562568612619069E+03,      /* I =208 */
(PID.TID 0000.0001)                 3.600460096874879E+03,      /* I =209 */
(PID.TID 0000.0001)                 3.639602793633901E+03,      /* I =210 */
(PID.TID 0000.0001)                 3.680008352081669E+03,      /* I =211 */
(PID.TID 0000.0001)                 3.721685927687564E+03,      /* I =212 */
(PID.TID 0000.0001)                 3.764641982938386E+03,      /* I =213 */
(PID.TID 0000.0001)                 3.808880090439688E+03,      /* I =214 */
(PID.TID 0000.0001)                 3.854400740401647E+03,      /* I =215 */
(PID.TID 0000.0001)                 3.901201154671907E+03,      /* I =216 */
(PID.TID 0000.0001)                 3.949275109604741E+03,      /* I =217 */
(PID.TID 0000.0001)                 3.998612770159373E+03,      /* I =218 */
(PID.TID 0000.0001)                 4.049200537695179E+03,      /* I =219 */
(PID.TID 0000.0001)                 4.101020913973307E+03,      /* I =220 */
(PID.TID 0000.0001)                 4.154052383878064E+03,      /* I =221 */
(PID.TID 0000.0001)                 4.208269319333313E+03,      /* I =222 */
(PID.TID 0000.0001)                 4.263641906805477E+03,      /* I =223 */
(PID.TID 0000.0001)                 4.320136100652733E+03,      /* I =224 */
(PID.TID 0000.0001)                 4.377713604397904E+03,      /* I =225 */
(PID.TID 0000.0001)                 4.436331881769780E+03,      /* I =226 */
(PID.TID 0000.0001)                 4.495944199074673E+03,      /* I =227 */
(PID.TID 0000.0001)                 4.556499700129090E+03,      /* I =228 */
(PID.TID 0000.0001)                 4.617943514609063E+03,      /* I =229 */
(PID.TID 0000.0001)                 4.680216900256775E+03,      /* I =230 */
(PID.TID 0000.0001)                 4.743257418937483E+03,      /* I =231 */
(PID.TID 0000.0001)                 4.806999146066923E+03,      /* I =232 */
(PID.TID 0000.0001)                 4.871372912440906E+03,      /* I =233 */
(PID.TID 0000.0001)                 4.936306577004486E+03,      /* I =234 */
(PID.TID 0000.0001)                 5.001725328609076E+03,      /* I =235 */
(PID.TID 0000.0001)                 5.067552014333451E+03,      /* I =236 */
(PID.TID 0000.0001)                 5.133707491500002E+03,      /* I =237 */
(PID.TID 0000.0001)                 5.200111000112320E+03,      /* I =238 */
(PID.TID 0000.0001)                 5.266680552084212E+03,      /* I =239 */
(PID.TID 0000.0001)                 5.333333333333333E+03,      /* I =240 */
(PID.TID 0000.0001)                 5.399986114582455E+03,      /* I =241 */
(PID.TID 0000.0001)                 5.466555666554346E+03,      /* I =242 */
(PID.TID 0000.0001)                 5.532959175166664E+03,      /* I =243 */
(PID.TID 0000.0001)                 5.599114652333215E+03,      /* I =244 */
(PID.TID 0000.0001)                 5.664941338057590E+03,      /* I =245 */
(PID.TID 0000.0001)                 5.730360089662182E+03,      /* I =246 */
(PID.TID 0000.0001)                 5.795293754225760E+03,      /* I =247 */
(PID.TID 0000.0001)                 5.859667520599744E+03,      /* I =248 */
(PID.TID 0000.0001)                 5.923409247729184E+03,      /* I =249 */
(PID.TID 0000.0001)                 5.986449766409891E+03,      /* I =250 */
(PID.TID 0000.0001)                 6.048723152057603E+03,      /* I =251 */
(PID.TID 0000.0001)                 6.110166966537575E+03,      /* I =252 */
(PID.TID 0000.0001)                 6.170722467591993E+03,      /* I =253 */
(PID.TID 0000.0001)                 6.230334784896885E+03,      /* I =254 */
(PID.TID 0000.0001)                 6.288953062268763E+03,      /* I =255 */
(PID.TID 0000.0001)                 6.346530566013934E+03,      /* I =256 */
(PID.TID 0000.0001)                 6.403024759861190E+03,      /* I =257 */
(PID.TID 0000.0001)                 6.458397347333354E+03,      /* I =258 */
(PID.TID 0000.0001)                 6.512614282788602E+03,      /* I =259 */
(PID.TID 0000.0001)                 6.565645752693359E+03,      /* I =260 */
(PID.TID 0000.0001)                 6.617466128971488E+03,      /* I =261 */
(PID.TID 0000.0001)                 6.668053896507294E+03,      /* I =262 */
(PID.TID 0000.0001)                 6.717391557061925E+03,      /* I =263 */
(PID.TID 0000.0001)                 6.765465511994760E+03,      /* I =264 */
(PID.TID 0000.0001)                 6.812265926265019E+03,      /* I =265 */
(PID.TID 0000.0001)                 6.857786576226979E+03,      /* I =266 */
(PID.TID 0000.0001)                 6.902024683728279E+03,      /* I =267 */
(PID.TID 0000.0001)                 6.944980738979102E+03,      /* I =268 */
(PID.TID 0000.0001)                 6.986658314584997E+03,      /* I =269 */
(PID.TID 0000.0001)                 7.027063873032766E+03,      /* I =270 */
(PID.TID 0000.0001)                 7.066206569791787E+03,      /* I =271 */
(PID.TID 0000.0001)                 7.104098054047598E+03,      /* I =272 */
(PID.TID 0000.0001)                 7.140752268924879E+03,      /* I =273 */
(PID.TID 0000.0001)                 7.176185252887813E+03,      /* I =274 */
(PID.TID 0000.0001)                 7.210414943830989E+03,      /* I =275 */
(PID.TID 0000.0001)                 7.243460987197397E+03,      /* I =276 */
(PID.TID 0000.0001)                 7.275344549284830E+03,      /* I =277 */
(PID.TID 0000.0001)                 7.306088136730677E+03,      /* I =278 */
(PID.TID 0000.0001)                 7.335715423000445E+03,      /* I =279 */
(PID.TID 0000.0001)                 7.364251082548706E+03,      /* I =280 */
(PID.TID 0000.0001)                 7.391720633174448E+03,      /* I =281 */
(PID.TID 0000.0001)                 7.418150286956731E+03,      /* I =282 */
(PID.TID 0000.0001)                 7.443566810031993E+03,      /* I =283 */
(PID.TID 0000.0001)                 7.467997391361680E+03,      /* I =284 */
(PID.TID 0000.0001)                 7.491469520538082E+03,      /* I =285 */
(PID.TID 0000.0001)                 7.514010874587433E+03,      /* I =286 */
(PID.TID 0000.0001)                 7.535649213651886E+03,      /* I =287 */
(PID.TID 0000.0001)                 7.556412285365746E+03,      /* I =288 */
(PID.TID 0000.0001)                 7.576327737685448E+03,      /* I =289 */
(PID.TID 0000.0001)                 7.595423039886701E+03,      /* I =290 */
(PID.TID 0000.0001)                 7.613725411405238E+03,      /* I =291 */
(PID.TID 0000.0001)                 7.631261758168817E+03,      /* I =292 */
(PID.TID 0000.0001)                 7.648058616046834E+03,      /* I =293 */
(PID.TID 0000.0001)                 7.664142101029352E+03,      /* I =294 */
(PID.TID 0000.0001)                 7.679537865738625E+03,      /* I =295 */
(PID.TID 0000.0001)                 7.694271061872699E+03,      /* I =296 */
(PID.TID 0000.0001)                 7.708366308181648E+03,      /* I =297 */
(PID.TID 0000.0001)                 7.721847663581771E+03,      /* I =298 */
(PID.TID 0000.0001)                 7.734738605021031E+03,      /* I =299 */
(PID.TID 0000.0001)                 7.747062009719643E+03,      /* I =300 */
(PID.TID 0000.0001)                 7.758840141422466E+03,      /* I =301 */
(PID.TID 0000.0001)                 7.770094640314207E+03,      /* I =302 */
(PID.TID 0000.0001)                 7.780846516264185E+03,      /* I =303 */
(PID.TID 0000.0001)                 7.791116145083923E+03,      /* I =304 */
(PID.TID 0000.0001)                 7.800923267497976E+03,      /* I =305 */
(PID.TID 0000.0001)                 7.810286990545940E+03,      /* I =306 */
(PID.TID 0000.0001)                 7.819225791151050E+03,      /* I =307 */
(PID.TID 0000.0001)                 7.827757521608264E+03,      /* I =308 */
(PID.TID 0000.0001)                 7.835899416761878E+03,      /* I =309 */
(PID.TID 0000.0001)                 7.843668102659432E+03,      /* I =310 */
(PID.TID 0000.0001)                 7.851079606484943E+03,      /* I =311 */
(PID.TID 0000.0001)                 7.858149367590049E+03,      /* I =312 */
(PID.TID 0000.0001)                 7.864892249456683E+03,      /* I =313 */
(PID.TID 0000.0001)                 7.871322552439098E+03,      /* I =314 */
(PID.TID 0000.0001)                 7.877454027146530E+03,      /* I =315 */
(PID.TID 0000.0001)                 7.883299888340637E+03,      /* I =316 */
(PID.TID 0000.0001)                 7.888872829233704E+03,      /* I =317 */
(PID.TID 0000.0001)                 7.894185036084920E+03,      /* I =318 */
(PID.TID 0000.0001)                 7.899248203002459E+03,      /* I =319 */
(PID.TID 0000.0001)                 7.904073546868845E+03       /* I =320 */
(PID.TID 0000.0001)     ;
(PID.TID 0000.0001) rA =  /* rA(1,:,1,:) ( m - cartesian, degrees - spherical ) */
(PID.TID 0000.0001)                 2.666701115686057E+03       /* J =  1 */
(PID.TID 0000.0001)     ;
(PID.TID 0000.0001) rAw =  /* rAw(:,1,:,1) ( m - cartesian, degrees - spherical ) */
(PID.TID 0000.0001)                 5.285387331277451E+03,      /* I =  1 */
(PID.TID 0000.0001)                 2.666701998799557E+03,      /* I =  2 */
(PID.TID 0000.0001)                 2.666703810304123E+03,      /* I =  3 */
(PID.TID 0000.0001)                 2.666705714685187E+03,      /* I =  4 */
(PID.TID 0000.0001)                 2.666707716704489E+03,      /* I =  5 */
(PID.TID 0000.0001)                 2.666709821367894E+03,      /* I =  6 */
(PID.TID 0000.0001)                 2.666712033937907E+03,      /* I =  7 */
(PID.TID 0000.0001)                 2.666714359946830E+03,      /* I =  8 */
(PID.TID 0000.0001)                 2.666716805210590E+03,      /* I =  9 */
(PID.TID 0000.0001)                 2.666719375843287E+03,      /* I = 10 */
(PID.TID 0000.0001)                 2.666722078272466E+03,      /* I = 11 */
(PID.TID 0000.0001)                 2.666724919255197E+03,      /* I = 12 */
(PID.TID 0000.0001)                 2.666727905894963E+03,      /* I = 13 */
(PID.TID 0000.0001)                 2.666731045659414E+03,      /* I = 14 */
(PID.TID 0000.0001)                 2.666734346399043E+03,      /* I = 15 */
(PID.TID 0000.0001)                 2.666737816366803E+03,      /* I = 16 */
(PID.TID 0000.0001)                 2.666741464238743E+03,      /* I = 17 */
(PID.TID 0000.0001)                 2.666745299135694E+03,      /* I = 18 */
(PID.TID 0000.0001)                 2.666749330646065E+03,      /* I = 19 */
(PID.TID 0000.0001)                 2.666753568849818E+03,      /* I = 20 */
(PID.TID 0000.0001)                 2.666758024343656E+03,      /* I = 21 */
(PID.TID 0000.0001)                 2.666762708267515E+03,      /* I = 22 */
(PID.TID 0000.0001)                 2.666767632332411E+03,      /* I = 23 */
(PID.TID 0000.0001)                 2.666772808849702E+03,      /* I = 24 */
(PID.TID 0000.0001)                 2.666778250761869E+03,      /* I = 25 */
(PID.TID 0000.0001)                 2.666783971674857E+03,      /* I = 26 */
(PID.TID 0000.0001)                 2.666789985892085E+03,      /* I = 27 */
(PID.TID 0000.0001)                 2.666796308450188E+03,      /* I = 28 */
(PID.TID 0000.0001)                 2.666802955156605E+03,      /* I = 29 */
(PID.TID 0000.0001)                 2.666809942629071E+03,      /* I = 30 */
(PID.TID 0000.0001)                 2.666817288337159E+03,      /* I = 31 */
(PID.TID 0000.0001)                 2.666825010645921E+03,      /* I = 32 */
(PID.TID 0000.0001)                 2.666833128861794E+03,      /* I = 33 */
(PID.TID 0000.0001)                 2.666841663280828E+03,      /* I = 34 */
(PID.TID 0000.0001)                 2.666850635239415E+03,      /* I = 35 */
(PID.TID 0000.0001)                 2.666860067167586E+03,      /* I = 36 */
(PID.TID 0000.0001)                 2.666869982645062E+03,      /* I = 37 */
(PID.TID 0000.0001)                 2.666880406460160E+03,      /* I = 38 */
(PID.TID 0000.0001)                 2.666891364671725E+03,      /* I = 39 */
(PID.TID 0000.0001)                 2.666902884674225E+03,      /* I = 40 */
(PID.TID 0000.0001)                 2.666914995266189E+03,      /* I = 41 */
(PID.TID 0000.0001)                 2.666927726722140E+03,      /* I = 42 */
(PID.TID 0000.0001)                 2.666941110868212E+03,      /* I = 43 */
(PID.TID 0000.0001)                 2.666955181161650E+03,      /* I = 44 */
(PID.TID 0000.0001)                 2.666969972774357E+03,      /* I = 45 */
(PID.TID 0000.0001)                 2.666985522680741E+03,      /* I = 46 */
(PID.TID 0000.0001)                 2.667001869750039E+03,      /* I = 47 */
(PID.TID 0000.0001)                 2.667019054843381E+03,      /* I = 48 */
(PID.TID 0000.0001)                 2.667037120915807E+03,      /* I = 49 */
(PID.TID 0000.0001)                 2.667056113123516E+03,      /* I = 50 */
(PID.TID 0000.0001)                 2.667076078936592E+03,      /* I = 51 */
(PID.TID 0000.0001)                 2.667097068257502E+03,      /* I = 52 */
(PID.TID 0000.0001)                 2.667119133545653E+03,      /* I = 53 */
(PID.TID 0000.0001)                 2.667142329948320E+03,      /* I = 54 */
(PID.TID 0000.0001)                 2.667166715438271E+03,      /* I = 55 */
(PID.TID 0000.0001)                 2.667192350958419E+03,      /* I = 56 */
(PID.TID 0000.0001)                 2.667219300573883E+03,      /* I = 57 */
(PID.TID 0000.0001)                 2.667247631631808E+03,      /* I = 58 */
(PID.TID 0000.0001)                 2.667277414929362E+03,      /* I = 59 */
(PID.TID 0000.0001)                 2.667308724890313E+03,      /* I = 60 */
(PID.TID 0000.0001)                 2.667341639750626E+03,      /* I = 61 */
(PID.TID 0000.0001)                 2.667376241753541E+03,      /* I = 62 */
(PID.TID 0000.0001)                 2.667412617354616E+03,      /* I = 63 */
(PID.TID 0000.0001)                 2.667450857437230E+03,      /* I = 64 */
(PID.TID 0000.0001)                 2.667491057539100E+03,      /* I = 65 */
(PID.TID 0000.0001)                 2.667533318090346E+03,      /* I = 66 */
(PID.TID 0000.0001)                 2.667577744663713E+03,      /* I = 67 */
(PID.TID 0000.0001)                 2.667624448237542E+03,      /* I = 68 */
(PID.TID 0000.0001)                 2.667673545472172E+03,      /* I = 69 */
(PID.TID 0000.0001)                 2.667725159000417E+03,      /* I = 70 */
(PID.TID 0000.0001)                 2.667779417732853E+03,      /* I = 71 */
(PID.TID 0000.0001)                 2.667836457178661E+03,      /* I = 72 */
(PID.TID 0000.0001)                 2.667896419782815E+03,      /* I = 73 */
(PID.TID 0000.0001)                 2.667959455280431E+03,      /* I = 74 */
(PID.TID 0000.0001)                 2.668025721069160E+03,      /* I = 75 */
(PID.TID 0000.0001)                 2.668095382600526E+03,      /* I = 76 */
(PID.TID 0000.0001)                 2.668168613791162E+03,      /* I = 77 */
(PID.TID 0000.0001)                 2.668245597454970E+03,      /* I = 78 */
(PID.TID 0000.0001)                 2.668326525757215E+03,      /* I = 79 */
(PID.TID 0000.0001)                 2.668411600691716E+03,      /* I = 80 */
(PID.TID 0000.0001)                 2.668501034582234E+03,      /* I = 81 */
(PID.TID 0000.0001)                 2.668595050609327E+03,      /* I = 82 */
(PID.TID 0000.0001)                 2.668693883363907E+03,      /* I = 83 */
(PID.TID 0000.0001)                 2.668797779428866E+03,      /* I = 84 */
(PID.TID 0000.0001)                 2.668906997990162E+03,      /* I = 85 */
(PID.TID 0000.0001)                 2.669021811478841E+03,      /* I = 86 */
(PID.TID 0000.0001)                 2.669142506245544E+03,      /* I = 87 */
(PID.TID 0000.0001)                 2.669269383269114E+03,      /* I = 88 */
(PID.TID 0000.0001)                 2.669402758901003E+03,      /* I = 89 */
(PID.TID 0000.0001)                 2.669542965647254E+03,      /* I = 90 */
(PID.TID 0000.0001)                 2.669690352989934E+03,      /* I = 91 */
(PID.TID 0000.0001)                 2.669845288249963E+03,      /* I = 92 */
(PID.TID 0000.0001)                 2.670008157493388E+03,      /* I = 93 */
(PID.TID 0000.0001)                 2.670179366483250E+03,      /* I = 94 */
(PID.TID 0000.0001)                 2.670359341679289E+03,      /* I = 95 */
(PID.TID 0000.0001)                 2.670548531287833E+03,      /* I = 96 */
(PID.TID 0000.0001)                 2.670747406364341E+03,      /* I = 97 */
(PID.TID 0000.0001)                 2.670956461971172E+03,      /* I = 98 */
(PID.TID 0000.0001)                 2.671176218393273E+03,      /* I = 99 */
(PID.TID 0000.0001)                 2.671407222414613E+03,      /* I =100 */
(PID.TID 0000.0001)                 2.671650048658296E+03,      /* I =101 */
(PID.TID 0000.0001)                 2.671905300993456E+03,      /* I =102 */
(PID.TID 0000.0001)                 2.672173614012138E+03,      /* I =103 */
(PID.TID 0000.0001)                 2.672455654579537E+03,      /* I =104 */
(PID.TID 0000.0001)                 2.672752123461109E+03,      /* I =105 */
(PID.TID 0000.0001)                 2.673063757030221E+03,      /* I =106 */
(PID.TID 0000.0001)                 2.673391329060173E+03,      /* I =107 */
(PID.TID 0000.0001)                 2.673735652604577E+03,      /* I =108 */
(PID.TID 0000.0001)                 2.674097581970271E+03,      /* I =109 */
(PID.TID 0000.0001)                 2.674478014787092E+03,      /* I =110 */
(PID.TID 0000.0001)                 2.674877894179043E+03,      /* I =111 */
(PID.TID 0000.0001)                 2.675298211041542E+03,      /* I =112 */
(PID.TID 0000.0001)                 2.675740006429678E+03,      /* I =113 */
(PID.TID 0000.0001)                 2.676204374062527E+03,      /* I =114 */
(PID.TID 0000.0001)                 2.676692462948854E+03,      /* I =115 */
(PID.TID 0000.0001)                 2.677205480139673E+03,      /* I =116 */
(PID.TID 0000.0001)                 2.677744693613371E+03,      /* I =117 */
(PID.TID 0000.0001)                 2.678311435299308E+03,      /* I =118 */
(PID.TID 0000.0001)                 2.678907104246012E+03,      /* I =119 */
(PID.TID 0000.0001)                 2.679533169940301E+03,      /* I =120 */
(PID.TID 0000.0001)                 2.680191175783888E+03,      /* I =121 */
(PID.TID 0000.0001)                 2.680882742734225E+03,      /* I =122 */
(PID.TID 0000.0001)                 2.681609573116564E+03,      /* I =123 */
(PID.TID 0000.0001)                 2.682373454614424E+03,      /* I =124 */
(PID.TID 0000.0001)                 2.683176264445849E+03,      /* I =125 */
(PID.TID 0000.0001)                 2.684019973733063E+03,      /* I =126 */
(PID.TID 0000.0001)                 2.684906652073279E+03,      /* I =127 */
(PID.TID 0000.0001)                 2.685838472318673E+03,      /* I =128 */
(PID.TID 0000.0001)                 2.686817715573619E+03,      /* I =129 */
(PID.TID 0000.0001)                 2.687846776417513E+03,      /* I =130 */
(PID.TID 0000.0001)                 2.688928168361603E+03,      /* I =131 */
(PID.TID 0000.0001)                 2.690064529548390E+03,      /* I =132 */
(PID.TID 0000.0001)                 2.691258628702231E+03,      /* I =133 */
(PID.TID 0000.0001)                 2.692513371339873E+03,      /* I =134 */
(PID.TID 0000.0001)                 2.693831806249641E+03,      /* I =135 */
(PID.TID 0000.0001)                 2.695217132248024E+03,      /* I =136 */
(PID.TID 0000.0001)                 2.696672705222334E+03,      /* I =137 */
(PID.TID 0000.0001)                 2.698202045468024E+03,      /* I =138 */
(PID.TID 0000.0001)                 2.699808845329066E+03,      /* I =139 */
(PID.TID 0000.0001)                 2.701496977149601E+03,      /* I =140 */
(PID.TID 0000.0001)                 2.703270501544747E+03,      /* I =141 */
(PID.TID 0000.0001)                 2.705133675998072E+03,      /* I =142 */
(PID.TID 0000.0001)                 2.707090963792792E+03,      /* I =143 */
(PID.TID 0000.0001)                 2.709147043283133E+03,      /* I =144 */
(PID.TID 0000.0001)                 2.711306817511659E+03,      /* I =145 */
(PID.TID 0000.0001)                 2.713575424177493E+03,      /* I =146 */
(PID.TID 0000.0001)                 2.715958245959450E+03,      /* I =147 */
(PID.TID 0000.0001)                 2.718460921196935E+03,      /* I =148 */
(PID.TID 0000.0001)                 2.721089354930193E+03,      /* I =149 */
(PID.TID 0000.0001)                 2.723849730300030E+03,      /* I =150 */
(PID.TID 0000.0001)                 2.726748520305375E+03,      /* I =151 */
(PID.TID 0000.0001)                 2.729792499915191E+03,      /* I =152 */
(PID.TID 0000.0001)                 2.732988758529029E+03,      /* I =153 */
(PID.TID 0000.0001)                 2.736344712778070E+03,      /* I =154 */
(PID.TID 0000.0001)                 2.739868119655761E+03,      /* I =155 */
(PID.TID 0000.0001)                 2.743567089964050E+03,      /* I =156 */
(PID.TID 0000.0001)                 2.747450102057819E+03,      /* I =157 */
(PID.TID 0000.0001)                 2.751526015866266E+03,      /* I =158 */
(PID.TID 0000.0001)                 2.755804087165784E+03,      /* I =159 */
(PID.TID 0000.0001)                 2.760293982074185E+03,      /* I =160 */
(PID.TID 0000.0001)                 2.765005791731015E+03,      /* I =161 */
(PID.TID 0000.0001)                 2.769950047122978E+03,      /* I =162 */
(PID.TID 0000.0001)                 2.775137734007355E+03,      /* I =163 */
(PID.TID 0000.0001)                 2.780580307879496E+03,      /* I =164 */
(PID.TID 0000.0001)                 2.786289708923083E+03,      /* I =165 */
(PID.TID 0000.0001)                 2.792278376873853E+03,      /* I =166 */
(PID.TID 0000.0001)                 2.798559265718776E+03,      /* I =167 */
(PID.TID 0000.0001)                 2.805145858143300E+03,      /* I =168 */
(PID.TID 0000.0001)                 2.812052179629170E+03,      /* I =169 */
(PID.TID 0000.0001)                 2.819292812094478E+03,      /* I =170 */
(PID.TID 0000.0001)                 2.826882906956012E+03,      /* I =171 */
(PID.TID 0000.0001)                 2.834838197481597E+03,      /* I =172 */
(PID.TID 0000.0001)                 2.843175010287010E+03,      /* I =173 */
(PID.TID 0000.0001)                 2.851910275818172E+03,      /* I =174 */
(PID.TID 0000.0001)                 2.861061537644709E+03,      /* I =175 */
(PID.TID 0000.0001)                 2.870646960375717E+03,      /* I =176 */
(PID.TID 0000.0001)                 2.880685335992612E+03,      /* I =177 */
(PID.TID 0000.0001)                 2.891196088377470E+03,      /* I =178 */
(PID.TID 0000.0001)                 2.902199275798330E+03,      /* I =179 */
(PID.TID 0000.0001)                 2.913715591095612E+03,      /* I =180 */
(PID.TID 0000.0001)                 2.925766359296330E+03,      /* I =181 */
(PID.TID 0000.0001)                 2.938373532365265E+03,      /* I =182 */
(PID.TID 0000.0001)                 2.951559680784956E+03,      /* I =183 */
(PID.TID 0000.0001)                 2.965347981639492E+03,      /* I =184 */
(PID.TID 0000.0001)                 2.979762202861004E+03,      /* I =185 */
(PID.TID 0000.0001)                 2.994826683282678E+03,      /* I =186 */
(PID.TID 0000.0001)                 3.010566308128574E+03,      /* I =187 */
(PID.TID 0000.0001)                 3.027006479558842E+03,      /* I =188 */
(PID.TID 0000.0001)                 3.044173081879639E+03,      /* I =189 */
(PID.TID 0000.0001)                 3.062092441020697E+03,      /* I =190 */
(PID.TID 0000.0001)                 3.080791277880592E+03,      /* I =191 */
(PID.TID 0000.0001)                 3.100296655141069E+03,      /* I =192 */
(PID.TID 0000.0001)                 3.120635917157850E+03,      /* I =193 */
(PID.TID 0000.0001)                 3.141836622547007E+03,      /* I =194 */
(PID.TID 0000.0001)                 3.163926469103908E+03,      /* I =195 */
(PID.TID 0000.0001)                 3.186933210716786E+03,      /* I =196 */
(PID.TID 0000.0001)                 3.210884565969830E+03,      /* I =197 */
(PID.TID 0000.0001)                 3.235808118172305E+03,      /* I =198 */
(PID.TID 0000.0001)                 3.261731206601077E+03,      /* I =199 */
(PID.TID 0000.0001)                 3.288680808805090E+03,      /* I =200 */
(PID.TID 0000.0001)                 3.316683413892090E+03,      /* I =201 */
(PID.TID 0000.0001)                 3.345764886801105E+03,      /* I =202 */
(PID.TID 0000.0001)                 3.375950323658913E+03,      /* I =203 */
(PID.TID 0000.0001)                 3.407263898425552E+03,      /* I =204 */
(PID.TID 0000.0001)                 3.439728701152472E+03,      /* I =205 */
(PID.TID 0000.0001)                 3.473366568307265E+03,      /* I =206 */
(PID.TID 0000.0001)                 3.508197905760320E+03,      /* I =207 */
(PID.TID 0000.0001)                 3.544241505180429E+03,      /* I =208 */
(PID.TID 0000.0001)                 3.581514354746974E+03,      /* I =209 */
(PID.TID 0000.0001)                 3.620031445254390E+03,      /* I =210 */
(PID.TID 0000.0001)                 3.659805572857785E+03,      /* I =211 */
(PID.TID 0000.0001)                 3.700847139884617E+03,      /* I =212 */
(PID.TID 0000.0001)                 3.743163955312975E+03,      /* I =213 */
(PID.TID 0000.0001)                 3.786761036689037E+03,      /* I =214 */
(PID.TID 0000.0001)                 3.831640415420667E+03,      /* I =215 */
(PID.TID 0000.0001)                 3.877800947536777E+03,      /* I =216 */
(PID.TID 0000.0001)                 3.925238132138324E+03,      /* I =217 */
(PID.TID 0000.0001)                 3.973943939882057E+03,      /* I =218 */
(PID.TID 0000.0001)                 4.023906653927275E+03,      /* I =219 */
(PID.TID 0000.0001)                 4.075110725834243E+03,      /* I =220 */
(PID.TID 0000.0001)                 4.127536648925686E+03,      /* I =221 */
(PID.TID 0000.0001)                 4.181160851605688E+03,      /* I =222 */
(PID.TID 0000.0001)                 4.235955613069395E+03,      /* I =223 */
(PID.TID 0000.0001)                 4.291889003729106E+03,      /* I =224 */
(PID.TID 0000.0001)                 4.348924852525319E+03,      /* I =225 */
(PID.TID 0000.0001)                 4.407022743083842E+03,      /* I =226 */
(PID.TID 0000.0001)                 4.466138040422226E+03,      /* I =227 */
(PID.TID 0000.0001)                 4.526221949601882E+03,      /* I =228 */
(PID.TID 0000.0001)                 4.587221607369076E+03,      /* I =229 */
(PID.TID 0000.0001)                 4.649080207432919E+03,      /* I =230 */
(PID.TID 0000.0001)                 4.711737159597129E+03,      /* I =231 */
(PID.TID 0000.0001)                 4.775128282502203E+03,      /* I =232 */
(PID.TID 0000.0001)                 4.839186029253915E+03,      /* I =233 */
(PID.TID 0000.0001)                 4.903839744722695E+03,      /* I =234 */
(PID.TID 0000.0001)                 4.969015952806781E+03,      /* I =235 */
(PID.TID 0000.0001)                 5.034638671471263E+03,      /* I =236 */
(PID.TID 0000.0001)                 5.100629752916727E+03,      /* I =237 */
(PID.TID 0000.0001)                 5.166909245806161E+03,      /* I =238 */
(PID.TID 0000.0001)                 5.233395776098266E+03,      /* I =239 */
(PID.TID 0000.0001)                 5.300006942708772E+03,      /* I =240 */
(PID.TID 0000.0001)                 5.366659723957894E+03,      /* I =241 */
(PID.TID 0000.0001)                 5.433270890568401E+03,      /* I =242 */
(PID.TID 0000.0001)                 5.499757420860506E+03,      /* I =243 */
(PID.TID 0000.0001)                 5.566036913749940E+03,      /* I =244 */
(PID.TID 0000.0001)                 5.632027995195402E+03,      /* I =245 */
(PID.TID 0000.0001)                 5.697650713859885E+03,      /* I =246 */
(PID.TID 0000.0001)                 5.762826921943971E+03,      /* I =247 */
(PID.TID 0000.0001)                 5.827480637412752E+03,      /* I =248 */
(PID.TID 0000.0001)                 5.891538384164464E+03,      /* I =249 */
(PID.TID 0000.0001)                 5.954929507069537E+03,      /* I =250 */
(PID.TID 0000.0001)                 6.017586459233747E+03,      /* I =251 */
(PID.TID 0000.0001)                 6.079445059297589E+03,      /* I =252 */
(PID.TID 0000.0001)                 6.140444717064785E+03,      /* I =253 */
(PID.TID 0000.0001)                 6.200528626244440E+03,      /* I =254 */
(PID.TID 0000.0001)                 6.259643923582824E+03,      /* I =255 */
(PID.TID 0000.0001)                 6.317741814141348E+03,      /* I =256 */
(PID.TID 0000.0001)                 6.374777662937561E+03,      /* I =257 */
(PID.TID 0000.0001)                 6.430711053597272E+03,      /* I =258 */
(PID.TID 0000.0001)                 6.485505815060978E+03,      /* I =259 */
(PID.TID 0000.0001)                 6.539130017740982E+03,      /* I =260 */
(PID.TID 0000.0001)                 6.591555940832424E+03,      /* I =261 */
(PID.TID 0000.0001)                 6.642760012739390E+03,      /* I =262 */
(PID.TID 0000.0001)                 6.692722726784609E+03,      /* I =263 */
(PID.TID 0000.0001)                 6.741428534528342E+03,      /* I =264 */
(PID.TID 0000.0001)                 6.788865719129891E+03,      /* I =265 */
(PID.TID 0000.0001)                 6.835026251245999E+03,      /* I =266 */
(PID.TID 0000.0001)                 6.879905629977629E+03,      /* I =267 */
(PID.TID 0000.0001)                 6.923502711353692E+03,      /* I =268 */
(PID.TID 0000.0001)                 6.965819526782050E+03,      /* I =269 */
(PID.TID 0000.0001)                 7.006861093808882E+03,      /* I =270 */
(PID.TID 0000.0001)                 7.046635221412276E+03,      /* I =271 */
(PID.TID 0000.0001)                 7.085152311919691E+03,      /* I =272 */
(PID.TID 0000.0001)                 7.122425161486238E+03,      /* I =273 */
(PID.TID 0000.0001)                 7.158468760906347E+03,      /* I =274 */
(PID.TID 0000.0001)                 7.193300098359401E+03,      /* I =275 */
(PID.TID 0000.0001)                 7.226937965514193E+03,      /* I =276 */
(PID.TID 0000.0001)                 7.259402768241114E+03,      /* I =277 */
(PID.TID 0000.0001)                 7.290716343007753E+03,      /* I =278 */
(PID.TID 0000.0001)                 7.320901779865562E+03,      /* I =279 */
(PID.TID 0000.0001)                 7.349983252774575E+03,      /* I =280 */
(PID.TID 0000.0001)                 7.377985857861578E+03,      /* I =281 */
(PID.TID 0000.0001)                 7.404935460065591E+03,      /* I =282 */
(PID.TID 0000.0001)                 7.430858548494362E+03,      /* I =283 */
(PID.TID 0000.0001)                 7.455782100696837E+03,      /* I =284 */
(PID.TID 0000.0001)                 7.479733455949880E+03,      /* I =285 */
(PID.TID 0000.0001)                 7.502740197562758E+03,      /* I =286 */
(PID.TID 0000.0001)                 7.524830044119659E+03,      /* I =287 */
(PID.TID 0000.0001)                 7.546030749508816E+03,      /* I =288 */
(PID.TID 0000.0001)                 7.566370011525598E+03,      /* I =289 */
(PID.TID 0000.0001)                 7.585875388786074E+03,      /* I =290 */
(PID.TID 0000.0001)                 7.604574225645971E+03,      /* I =291 */
(PID.TID 0000.0001)                 7.622493584787028E+03,      /* I =292 */
(PID.TID 0000.0001)                 7.639660187107825E+03,      /* I =293 */
(PID.TID 0000.0001)                 7.656100358538091E+03,      /* I =294 */
(PID.TID 0000.0001)                 7.671839983383989E+03,      /* I =295 */
(PID.TID 0000.0001)                 7.686904463805662E+03,      /* I =296 */
(PID.TID 0000.0001)                 7.701318685027174E+03,      /* I =297 */
(PID.TID 0000.0001)                 7.715106985881710E+03,      /* I =298 */
(PID.TID 0000.0001)                 7.728293134301402E+03,      /* I =299 */
(PID.TID 0000.0001)                 7.740900307370336E+03,      /* I =300 */
(PID.TID 0000.0001)                 7.752951075571054E+03,      /* I =301 */
(PID.TID 0000.0001)                 7.764467390868336E+03,      /* I =302 */
(PID.TID 0000.0001)                 7.775470578289196E+03,      /* I =303 */
(PID.TID 0000.0001)                 7.785981330674053E+03,      /* I =304 */
(PID.TID 0000.0001)                 7.796019706290948E+03,      /* I =305 */
(PID.TID 0000.0001)                 7.805605129021958E+03,      /* I =306 */
(PID.TID 0000.0001)                 7.814756390848495E+03,      /* I =307 */
(PID.TID 0000.0001)                 7.823491656379656E+03,      /* I =308 */
(PID.TID 0000.0001)                 7.831828469185070E+03,      /* I =309 */
(PID.TID 0000.0001)                 7.839783759710655E+03,      /* I =310 */
(PID.TID 0000.0001)                 7.847373854572189E+03,      /* I =311 */
(PID.TID 0000.0001)                 7.854614487037496E+03,      /* I =312 */
(PID.TID 0000.0001)                 7.861520808523366E+03,      /* I =313 */
(PID.TID 0000.0001)                 7.868107400947891E+03,      /* I =314 */
(PID.TID 0000.0001)                 7.874388289792813E+03,      /* I =315 */
(PID.TID 0000.0001)                 7.880376957743584E+03,      /* I =316 */
(PID.TID 0000.0001)                 7.886086358787171E+03,      /* I =317 */
(PID.TID 0000.0001)                 7.891528932659313E+03,      /* I =318 */
(PID.TID 0000.0001)                 7.896716619543690E+03,      /* I =319 */
(PID.TID 0000.0001)                 7.901660874935652E+03       /* I =320 */
(PID.TID 0000.0001)     ;
(PID.TID 0000.0001) rAw =  /* rAw(1,:,1,:) ( m - cartesian, degrees - spherical ) */
(PID.TID 0000.0001)                 5.285387331277451E+03       /* J =  1 */
(PID.TID 0000.0001)     ;
(PID.TID 0000.0001) rAs =  /* rAs(:,1,:,1) ( m - cartesian, degrees - spherical ) */
(PID.TID 0000.0001)                 2.666701115686057E+03,      /* I =  1 */
(PID.TID 0000.0001)                 2.666702881913057E+03,      /* I =  2 */
(PID.TID 0000.0001)                 2.666704738695189E+03,      /* I =  3 */
(PID.TID 0000.0001)                 2.666706690675185E+03,      /* I =  4 */
(PID.TID 0000.0001)                 2.666708742733794E+03,      /* I =  5 */
(PID.TID 0000.0001)                 2.666710900001994E+03,      /* I =  6 */
(PID.TID 0000.0001)                 2.666713167873819E+03,      /* I =  7 */
(PID.TID 0000.0001)                 2.666715552019839E+03,      /* I =  8 */
(PID.TID 0000.0001)                 2.666718058401342E+03,      /* I =  9 */
(PID.TID 0000.0001)                 2.666720693285232E+03,      /* I = 10 */
(PID.TID 0000.0001)                 2.666723463259700E+03,      /* I = 11 */
(PID.TID 0000.0001)                 2.666726375250694E+03,      /* I = 12 */
(PID.TID 0000.0001)                 2.666729436539230E+03,      /* I = 13 */
(PID.TID 0000.0001)                 2.666732654779597E+03,      /* I = 14 */
(PID.TID 0000.0001)                 2.666736038018488E+03,      /* I = 15 */
(PID.TID 0000.0001)                 2.666739594715118E+03,      /* I = 16 */
(PID.TID 0000.0001)                 2.666743333762369E+03,      /* I = 17 */
(PID.TID 0000.0001)                 2.666747264509018E+03,      /* I = 18 */
(PID.TID 0000.0001)                 2.666751396783111E+03,      /* I = 19 */
(PID.TID 0000.0001)                 2.666755740916523E+03,      /* I = 20 */
(PID.TID 0000.0001)                 2.666760307770787E+03,      /* I = 21 */
(PID.TID 0000.0001)                 2.666765108764243E+03,      /* I = 22 */
(PID.TID 0000.0001)                 2.666770155900579E+03,      /* I = 23 */
(PID.TID 0000.0001)                 2.666775461798826E+03,      /* I = 24 */
(PID.TID 0000.0001)                 2.666781039724912E+03,      /* I = 25 */
(PID.TID 0000.0001)                 2.666786903624803E+03,      /* I = 26 */
(PID.TID 0000.0001)                 2.666793068159366E+03,      /* I = 27 */
(PID.TID 0000.0001)                 2.666799548741011E+03,      /* I = 28 */
(PID.TID 0000.0001)                 2.666806361572199E+03,      /* I = 29 */
(PID.TID 0000.0001)                 2.666813523685944E+03,      /* I = 30 */
(PID.TID 0000.0001)                 2.666821052988373E+03,      /* I = 31 */
(PID.TID 0000.0001)                 2.666828968303470E+03,      /* I = 32 */
(PID.TID 0000.0001)                 2.666837289420117E+03,      /* I = 33 */
(PID.TID 0000.0001)                 2.666846037141539E+03,      /* I = 34 */
(PID.TID 0000.0001)                 2.666855233337290E+03,      /* I = 35 */
(PID.TID 0000.0001)                 2.666864900997882E+03,      /* I = 36 */
(PID.TID 0000.0001)                 2.666875064292241E+03,      /* I = 37 */
(PID.TID 0000.0001)                 2.666885748628079E+03,      /* I = 38 */
(PID.TID 0000.0001)                 2.666896980715370E+03,      /* I = 39 */
(PID.TID 0000.0001)                 2.666908788633080E+03,      /* I = 40 */
(PID.TID 0000.0001)                 2.666921201899298E+03,      /* I = 41 */
(PID.TID 0000.0001)                 2.666934251544980E+03,      /* I = 42 */
(PID.TID 0000.0001)                 2.666947970191445E+03,      /* I = 43 */
(PID.TID 0000.0001)                 2.666962392131855E+03,      /* I = 44 */
(PID.TID 0000.0001)                 2.666977553416860E+03,      /* I = 45 */
(PID.TID 0000.0001)                 2.666993491944622E+03,      /* I = 46 */
(PID.TID 0000.0001)                 2.667010247555456E+03,      /* I = 47 */
(PID.TID 0000.0001)                 2.667027862131305E+03,      /* I = 48 */
(PID.TID 0000.0001)                 2.667046379700309E+03,      /* I = 49 */
(PID.TID 0000.0001)                 2.667065846546724E+03,      /* I = 50 */
(PID.TID 0000.0001)                 2.667086311326460E+03,      /* I = 51 */
(PID.TID 0000.0001)                 2.667107825188542E+03,      /* I = 52 */
(PID.TID 0000.0001)                 2.667130441902762E+03,      /* I = 53 */
(PID.TID 0000.0001)                 2.667154217993878E+03,      /* I = 54 */
(PID.TID 0000.0001)                 2.667179212882664E+03,      /* I = 55 */
(PID.TID 0000.0001)                 2.667205489034175E+03,      /* I = 56 */
(PID.TID 0000.0001)                 2.667233112113591E+03,      /* I = 57 */
(PID.TID 0000.0001)                 2.667262151150025E+03,      /* I = 58 */
(PID.TID 0000.0001)                 2.667292678708699E+03,      /* I = 59 */
(PID.TID 0000.0001)                 2.667324771071927E+03,      /* I = 60 */
(PID.TID 0000.0001)                 2.667358508429325E+03,      /* I = 61 */
(PID.TID 0000.0001)                 2.667393975077757E+03,      /* I = 62 */
(PID.TID 0000.0001)                 2.667431259631473E+03,      /* I = 63 */
(PID.TID 0000.0001)                 2.667470455242985E+03,      /* I = 64 */
(PID.TID 0000.0001)                 2.667511659835214E+03,      /* I = 65 */
(PID.TID 0000.0001)                 2.667554976345479E+03,      /* I = 66 */
(PID.TID 0000.0001)                 2.667600512981946E+03,      /* I = 67 */
(PID.TID 0000.0001)                 2.667648383493139E+03,      /* I = 68 */
(PID.TID 0000.0001)                 2.667698707451207E+03,      /* I = 69 */
(PID.TID 0000.0001)                 2.667751610549628E+03,      /* I = 70 */
(PID.TID 0000.0001)                 2.667807224916078E+03,      /* I = 71 */
(PID.TID 0000.0001)                 2.667865689441244E+03,      /* I = 72 */
(PID.TID 0000.0001)                 2.667927150124385E+03,      /* I = 73 */
(PID.TID 0000.0001)                 2.667991760436477E+03,      /* I = 74 */
(PID.TID 0000.0001)                 2.668059681701844E+03,      /* I = 75 */
(PID.TID 0000.0001)                 2.668131083499207E+03,      /* I = 76 */
(PID.TID 0000.0001)                 2.668206144083118E+03,      /* I = 77 */
(PID.TID 0000.0001)                 2.668285050826821E+03,      /* I = 78 */
(PID.TID 0000.0001)                 2.668368000687609E+03,      /* I = 79 */
(PID.TID 0000.0001)                 2.668455200695822E+03,      /* I = 80 */
(PID.TID 0000.0001)                 2.668546868468647E+03,      /* I = 81 */
(PID.TID 0000.0001)                 2.668643232750007E+03,      /* I = 82 */
(PID.TID 0000.0001)                 2.668744533977807E+03,      /* I = 83 */
(PID.TID 0000.0001)                 2.668851024879925E+03,      /* I = 84 */
(PID.TID 0000.0001)                 2.668962971100398E+03,      /* I = 85 */
(PID.TID 0000.0001)                 2.669080651857283E+03,      /* I = 86 */
(PID.TID 0000.0001)                 2.669204360633805E+03,      /* I = 87 */
(PID.TID 0000.0001)                 2.669334405904424E+03,      /* I = 88 */
(PID.TID 0000.0001)                 2.669471111897582E+03,      /* I = 89 */
(PID.TID 0000.0001)                 2.669614819396926E+03,      /* I = 90 */
(PID.TID 0000.0001)                 2.669765886582942E+03,      /* I = 91 */
(PID.TID 0000.0001)                 2.669924689916983E+03,      /* I = 92 */
(PID.TID 0000.0001)                 2.670091625069792E+03,      /* I = 93 */
(PID.TID 0000.0001)                 2.670267107896709E+03,      /* I = 94 */
(PID.TID 0000.0001)                 2.670451575461870E+03,      /* I = 95 */
(PID.TID 0000.0001)                 2.670645487113796E+03,      /* I = 96 */
(PID.TID 0000.0001)                 2.670849325614885E+03,      /* I = 97 */
(PID.TID 0000.0001)                 2.671063598327458E+03,      /* I = 98 */
(PID.TID 0000.0001)                 2.671288838459089E+03,      /* I = 99 */
(PID.TID 0000.0001)                 2.671525606370137E+03,      /* I =100 */
(PID.TID 0000.0001)                 2.671774490946455E+03,      /* I =101 */
(PID.TID 0000.0001)                 2.672036111040457E+03,      /* I =102 */
(PID.TID 0000.0001)                 2.672311116983819E+03,      /* I =103 */
(PID.TID 0000.0001)                 2.672600192175255E+03,      /* I =104 */
(PID.TID 0000.0001)                 2.672904054746963E+03,      /* I =105 */
(PID.TID 0000.0001)                 2.673223459313480E+03,      /* I =106 */
(PID.TID 0000.0001)                 2.673559198806866E+03,      /* I =107 */
(PID.TID 0000.0001)                 2.673912106402288E+03,      /* I =108 */
(PID.TID 0000.0001)                 2.674283057538254E+03,      /* I =109 */
(PID.TID 0000.0001)                 2.674672972035931E+03,      /* I =110 */
(PID.TID 0000.0001)                 2.675082816322154E+03,      /* I =111 */
(PID.TID 0000.0001)                 2.675513605760930E+03,      /* I =112 */
(PID.TID 0000.0001)                 2.675966407098426E+03,      /* I =113 */
(PID.TID 0000.0001)                 2.676442341026629E+03,      /* I =114 */
(PID.TID 0000.0001)                 2.676942584871080E+03,      /* I =115 */
(PID.TID 0000.0001)                 2.677468375408266E+03,      /* I =116 */
(PID.TID 0000.0001)                 2.678021011818476E+03,      /* I =117 */
(PID.TID 0000.0001)                 2.678601858780140E+03,      /* I =118 */
(PID.TID 0000.0001)                 2.679212349711884E+03,      /* I =119 */
(PID.TID 0000.0001)                 2.679853990168719E+03,      /* I =120 */
(PID.TID 0000.0001)                 2.680528361399058E+03,      /* I =121 */
(PID.TID 0000.0001)                 2.681237124069392E+03,      /* I =122 */
(PID.TID 0000.0001)                 2.681982022163736E+03,      /* I =123 */
(PID.TID 0000.0001)                 2.682764887065112E+03,      /* I =124 */
(PID.TID 0000.0001)                 2.683587641826588E+03,      /* I =125 */
(PID.TID 0000.0001)                 2.684452305639538E+03,      /* I =126 */
(PID.TID 0000.0001)                 2.685360998507020E+03,      /* I =127 */
(PID.TID 0000.0001)                 2.686315946130325E+03,      /* I =128 */
(PID.TID 0000.0001)                 2.687319485016912E+03,      /* I =129 */
(PID.TID 0000.0001)                 2.688374067818113E+03,      /* I =130 */
(PID.TID 0000.0001)                 2.689482268905093E+03,      /* I =131 */
(PID.TID 0000.0001)                 2.690646790191687E+03,      /* I =132 */
(PID.TID 0000.0001)                 2.691870467212776E+03,      /* I =133 */
(PID.TID 0000.0001)                 2.693156275466971E+03,      /* I =134 */
(PID.TID 0000.0001)                 2.694507337032312E+03,      /* I =135 */
(PID.TID 0000.0001)                 2.695926927463736E+03,      /* I =136 */
(PID.TID 0000.0001)                 2.697418482980933E+03,      /* I =137 */
(PID.TID 0000.0001)                 2.698985607955115E+03,      /* I =138 */
(PID.TID 0000.0001)                 2.700632082703016E+03,      /* I =139 */
(PID.TID 0000.0001)                 2.702361871596186E+03,      /* I =140 */
(PID.TID 0000.0001)                 2.704179131493308E+03,      /* I =141 */
(PID.TID 0000.0001)                 2.706088220502837E+03,      /* I =142 */
(PID.TID 0000.0001)                 2.708093707082747E+03,      /* I =143 */
(PID.TID 0000.0001)                 2.710200379483520E+03,      /* I =144 */
(PID.TID 0000.0001)                 2.712413255539797E+03,      /* I =145 */
(PID.TID 0000.0001)                 2.714737592815188E+03,      /* I =146 */
(PID.TID 0000.0001)                 2.717178899103712E+03,      /* I =147 */
(PID.TID 0000.0001)                 2.719742943290156E+03,      /* I =148 */
(PID.TID 0000.0001)                 2.722435766570230E+03,      /* I =149 */
(PID.TID 0000.0001)                 2.725263694029831E+03,      /* I =150 */
(PID.TID 0000.0001)                 2.728233346580919E+03,      /* I =151 */
(PID.TID 0000.0001)                 2.731351653249463E+03,      /* I =152 */
(PID.TID 0000.0001)                 2.734625863808595E+03,      /* I =153 */
(PID.TID 0000.0001)                 2.738063561747545E+03,      /* I =154 */
(PID.TID 0000.0001)                 2.741672677563976E+03,      /* I =155 */
(PID.TID 0000.0001)                 2.745461502364123E+03,      /* I =156 */
(PID.TID 0000.0001)                 2.749438701751514E+03,      /* I =157 */
(PID.TID 0000.0001)                 2.753613329981019E+03,      /* I =158 */
(PID.TID 0000.0001)                 2.757994844350548E+03,      /* I =159 */
(PID.TID 0000.0001)                 2.762593119797822E+03,      /* I =160 */
(PID.TID 0000.0001)                 2.767418463664208E+03,      /* I =161 */
(PID.TID 0000.0001)                 2.772481630581747E+03,      /* I =162 */
(PID.TID 0000.0001)                 2.777793837432962E+03,      /* I =163 */
(PID.TID 0000.0001)                 2.783366778326029E+03,      /* I =164 */
(PID.TID 0000.0001)                 2.789212639520137E+03,      /* I =165 */
(PID.TID 0000.0001)                 2.795344114227569E+03,      /* I =166 */
(PID.TID 0000.0001)                 2.801774417209983E+03,      /* I =167 */
(PID.TID 0000.0001)                 2.808517299076618E+03,      /* I =168 */
(PID.TID 0000.0001)                 2.815587060181723E+03,      /* I =169 */
(PID.TID 0000.0001)                 2.822998564007234E+03,      /* I =170 */
(PID.TID 0000.0001)                 2.830767249904789E+03,      /* I =171 */
(PID.TID 0000.0001)                 2.838909145058403E+03,      /* I =172 */
(PID.TID 0000.0001)                 2.847440875515617E+03,      /* I =173 */
(PID.TID 0000.0001)                 2.856379676120726E+03,      /* I =174 */
(PID.TID 0000.0001)                 2.865743399168691E+03,      /* I =175 */
(PID.TID 0000.0001)                 2.875550521582743E+03,      /* I =176 */
(PID.TID 0000.0001)                 2.885820150402481E+03,      /* I =177 */
(PID.TID 0000.0001)                 2.896572026352459E+03,      /* I =178 */
(PID.TID 0000.0001)                 2.907826525244200E+03,      /* I =179 */
(PID.TID 0000.0001)                 2.919604656947023E+03,      /* I =180 */
(PID.TID 0000.0001)                 2.931928061645636E+03,      /* I =181 */
(PID.TID 0000.0001)                 2.944819003084895E+03,      /* I =182 */
(PID.TID 0000.0001)                 2.958300358485018E+03,      /* I =183 */
(PID.TID 0000.0001)                 2.972395604793966E+03,      /* I =184 */
(PID.TID 0000.0001)                 2.987128800928041E+03,      /* I =185 */
(PID.TID 0000.0001)                 3.002524565637315E+03,      /* I =186 */
(PID.TID 0000.0001)                 3.018608050619834E+03,      /* I =187 */
(PID.TID 0000.0001)                 3.035404908497850E+03,      /* I =188 */
(PID.TID 0000.0001)                 3.052941255261428E+03,      /* I =189 */
(PID.TID 0000.0001)                 3.071243626779966E+03,      /* I =190 */
(PID.TID 0000.0001)                 3.090338928981218E+03,      /* I =191 */
(PID.TID 0000.0001)                 3.110254381300920E+03,      /* I =192 */
(PID.TID 0000.0001)                 3.131017453014780E+03,      /* I =193 */
(PID.TID 0000.0001)                 3.152655792079233E+03,      /* I =194 */
(PID.TID 0000.0001)                 3.175197146128584E+03,      /* I =195 */
(PID.TID 0000.0001)                 3.198669275304987E+03,      /* I =196 */
(PID.TID 0000.0001)                 3.223099856634673E+03,      /* I =197 */
(PID.TID 0000.0001)                 3.248516379709935E+03,      /* I =198 */
(PID.TID 0000.0001)                 3.274946033492218E+03,      /* I =199 */
(PID.TID 0000.0001)                 3.302415584117961E+03,      /* I =200 */
(PID.TID 0000.0001)                 3.330951243666221E+03,      /* I =201 */
(PID.TID 0000.0001)                 3.360578529935989E+03,      /* I =202 */
(PID.TID 0000.0001)                 3.391322117381837E+03,      /* I =203 */
(PID.TID 0000.0001)                 3.423205679469268E+03,      /* I =204 */
(PID.TID 0000.0001)                 3.456251722835677E+03,      /* I =205 */
(PID.TID 0000.0001)                 3.490481413778852E+03,      /* I =206 */
(PID.TID 0000.0001)                 3.525914397741788E+03,      /* I =207 */
(PID.TID 0000.0001)                 3.562568612619069E+03,      /* I =208 */
(PID.TID 0000.0001)                 3.600460096874879E+03,      /* I =209 */
(PID.TID 0000.0001)                 3.639602793633901E+03,      /* I =210 */
(PID.TID 0000.0001)                 3.680008352081669E+03,      /* I =211 */
(PID.TID 0000.0001)                 3.721685927687564E+03,      /* I =212 */
(PID.TID 0000.0001)                 3.764641982938386E+03,      /* I =213 */
(PID.TID 0000.0001)                 3.808880090439688E+03,      /* I =214 */
(PID.TID 0000.0001)                 3.854400740401647E+03,      /* I =215 */
(PID.TID 0000.0001)                 3.901201154671907E+03,      /* I =216 */
(PID.TID 0000.0001)                 3.949275109604741E+03,      /* I =217 */
(PID.TID 0000.0001)                 3.998612770159373E+03,      /* I =218 */
(PID.TID 0000.0001)                 4.049200537695179E+03,      /* I =219 */
(PID.TID 0000.0001)                 4.101020913973307E+03,      /* I =220 */
(PID.TID 0000.0001)                 4.154052383878064E+03,      /* I =221 */
(PID.TID 0000.0001)                 4.208269319333313E+03,      /* I =222 */
(PID.TID 0000.0001)                 4.263641906805477E+03,      /* I =223 */
(PID.TID 0000.0001)                 4.320136100652733E+03,      /* I =224 */
(PID.TID 0000.0001)                 4.377713604397904E+03,      /* I =225 */
(PID.TID 0000.0001)                 4.436331881769780E+03,      /* I =226 */
(PID.TID 0000.0001)                 4.495944199074673E+03,      /* I =227 */
(PID.TID 0000.0001)                 4.556499700129090E+03,      /* I =228 */
(PID.TID 0000.0001)                 4.617943514609063E+03,      /* I =229 */
(PID.TID 0000.0001)                 4.680216900256775E+03,      /* I =230 */
(PID.TID 0000.0001)                 4.743257418937483E+03,      /* I =231 */
(PID.TID 0000.0001)                 4.806999146066923E+03,      /* I =232 */
(PID.TID 0000.0001)                 4.871372912440906E+03,      /* I =233 */
(PID.TID 0000.0001)                 4.936306577004486E+03,      /* I =234 */
(PID.TID 0000.0001)                 5.001725328609076E+03,      /* I =235 */
(PID.TID 0000.0001)                 5.067552014333451E+03,      /* I =236 */
(PID.TID 0000.0001)                 5.133707491500002E+03,      /* I =237 */
(PID.TID 0000.0001)                 5.200111000112320E+03,      /* I =238 */
(PID.TID 0000.0001)                 5.266680552084212E+03,      /* I =239 */
(PID.TID 0000.0001)                 5.333333333333333E+03,      /* I =240 */
(PID.TID 0000.0001)                 5.399986114582455E+03,      /* I =241 */
(PID.TID 0000.0001)                 5.466555666554346E+03,      /* I =242 */
(PID.TID 0000.0001)                 5.532959175166664E+03,      /* I =243 */
(PID.TID 0000.0001)                 5.599114652333215E+03,      /* I =244 */
(PID.TID 0000.0001)                 5.664941338057590E+03,      /* I =245 */
(PID.TID 0000.0001)                 5.730360089662182E+03,      /* I =246 */
(PID.TID 0000.0001)                 5.795293754225760E+03,      /* I =247 */
(PID.TID 0000.0001)                 5.859667520599744E+03,      /* I =248 */
(PID.TID 0000.0001)                 5.923409247729184E+03,      /* I =249 */
(PID.TID 0000.0001)                 5.986449766409891E+03,      /* I =250 */
(PID.TID 0000.0001)                 6.048723152057603E+03,      /* I =251 */
(PID.TID 0000.0001)                 6.110166966537575E+03,      /* I =252 */
(PID.TID 0000.0001)                 6.170722467591993E+03,      /* I =253 */
(PID.TID 0000.0001)                 6.230334784896885E+03,      /* I =254 */
(PID.TID 0000.0001)                 6.288953062268763E+03,      /* I =255 */
(PID.TID 0000.0001)                 6.346530566013934E+03,      /* I =256 */
(PID.TID 0000.0001)                 6.403024759861190E+03,      /* I =257 */
(PID.TID 0000.0001)                 6.458397347333354E+03,      /* I =258 */
(PID.TID 0000.0001)                 6.512614282788602E+03,      /* I =259 */
(PID.TID 0000.0001)                 6.565645752693359E+03,      /* I =260 */
(PID.TID 0000.0001)                 6.617466128971488E+03,      /* I =261 */
(PID.TID 0000.0001)                 6.668053896507294E+03,      /* I =262 */
(PID.TID 0000.0001)                 6.717391557061925E+03,      /* I =263 */
(PID.TID 0000.0001)                 6.765465511994760E+03,      /* I =264 */
(PID.TID 0000.0001)                 6.812265926265019E+03,      /* I =265 */
(PID.TID 0000.0001)                 6.857786576226979E+03,      /* I =266 */
(PID.TID 0000.0001)                 6.902024683728279E+03,      /* I =267 */
(PID.TID 0000.0001)                 6.944980738979102E+03,      /* I =268 */
(PID.TID 0000.0001)                 6.986658314584997E+03,      /* I =269 */
(PID.TID 0000.0001)                 7.027063873032766E+03,      /* I =270 */
(PID.TID 0000.0001)                 7.066206569791787E+03,      /* I =271 */
(PID.TID 0000.0001)                 7.104098054047598E+03,      /* I =272 */
(PID.TID 0000.0001)                 7.140752268924879E+03,      /* I =273 */
(PID.TID 0000.0001)                 7.176185252887813E+03,      /* I =274 */
(PID.TID 0000.0001)                 7.210414943830989E+03,      /* I =275 */
(PID.TID 0000.0001)                 7.243460987197397E+03,      /* I =276 */
(PID.TID 0000.0001)                 7.275344549284830E+03,      /* I =277 */
(PID.TID 0000.0001)                 7.306088136730677E+03,      /* I =278 */
(PID.TID 0000.0001)                 7.335715423000445E+03,      /* I =279 */
(PID.TID 0000.0001)                 7.364251082548706E+03,      /* I =280 */
(PID.TID 0000.0001)                 7.391720633174448E+03,      /* I =281 */
(PID.TID 0000.0001)                 7.418150286956731E+03,      /* I =282 */
(PID.TID 0000.0001)                 7.443566810031993E+03,      /* I =283 */
(PID.TID 0000.0001)                 7.467997391361680E+03,      /* I =284 */
(PID.TID 0000.0001)                 7.491469520538082E+03,      /* I =285 */
(PID.TID 0000.0001)                 7.514010874587433E+03,      /* I =286 */
(PID.TID 0000.0001)                 7.535649213651886E+03,      /* I =287 */
(PID.TID 0000.0001)                 7.556412285365746E+03,      /* I =288 */
(PID.TID 0000.0001)                 7.576327737685448E+03,      /* I =289 */
(PID.TID 0000.0001)                 7.595423039886701E+03,      /* I =290 */
(PID.TID 0000.0001)                 7.613725411405238E+03,      /* I =291 */
(PID.TID 0000.0001)                 7.631261758168817E+03,      /* I =292 */
(PID.TID 0000.0001)                 7.648058616046834E+03,      /* I =293 */
(PID.TID 0000.0001)                 7.664142101029352E+03,      /* I =294 */
(PID.TID 0000.0001)                 7.679537865738625E+03,      /* I =295 */
(PID.TID 0000.0001)                 7.694271061872699E+03,      /* I =296 */
(PID.TID 0000.0001)                 7.708366308181648E+03,      /* I =297 */
(PID.TID 0000.0001)                 7.721847663581771E+03,      /* I =298 */
(PID.TID 0000.0001)                 7.734738605021031E+03,      /* I =299 */
(PID.TID 0000.0001)                 7.747062009719643E+03,      /* I =300 */
(PID.TID 0000.0001)                 7.758840141422466E+03,      /* I =301 */
(PID.TID 0000.0001)                 7.770094640314207E+03,      /* I =302 */
(PID.TID 0000.0001)                 7.780846516264185E+03,      /* I =303 */
(PID.TID 0000.0001)                 7.791116145083923E+03,      /* I =304 */
(PID.TID 0000.0001)                 7.800923267497976E+03,      /* I =305 */
(PID.TID 0000.0001)                 7.810286990545940E+03,      /* I =306 */
(PID.TID 0000.0001)                 7.819225791151050E+03,      /* I =307 */
(PID.TID 0000.0001)                 7.827757521608264E+03,      /* I =308 */
(PID.TID 0000.0001)                 7.835899416761878E+03,      /* I =309 */
(PID.TID 0000.0001)                 7.843668102659432E+03,      /* I =310 */
(PID.TID 0000.0001)                 7.851079606484943E+03,      /* I =311 */
(PID.TID 0000.0001)                 7.858149367590049E+03,      /* I =312 */
(PID.TID 0000.0001)                 7.864892249456683E+03,      /* I =313 */
(PID.TID 0000.0001)                 7.871322552439098E+03,      /* I =314 */
(PID.TID 0000.0001)                 7.877454027146530E+03,      /* I =315 */
(PID.TID 0000.0001)                 7.883299888340637E+03,      /* I =316 */
(PID.TID 0000.0001)                 7.888872829233704E+03,      /* I =317 */
(PID.TID 0000.0001)                 7.894185036084920E+03,      /* I =318 */
(PID.TID 0000.0001)                 7.899248203002459E+03,      /* I =319 */
(PID.TID 0000.0001)                 7.904073546868845E+03       /* I =320 */
(PID.TID 0000.0001)     ;
(PID.TID 0000.0001) rAs =  /* rAs(1,:,1,:) ( m - cartesian, degrees - spherical ) */
(PID.TID 0000.0001)                 2.666701115686057E+03       /* J =  1 */
(PID.TID 0000.0001)     ;
(PID.TID 0000.0001) 
(PID.TID 0000.0001)  MDSREADFIELD: opening global file: T.init
(PID.TID 0000.0001) // =======================================================
(PID.TID 0000.0001) // Field Initial Temperature at iteration          1
(PID.TID 0000.0001) // CMIN =          1.193046668521006E-04
(PID.TID 0000.0001) // CMAX =          9.995316742662479E-03
(PID.TID 0000.0001) // CINT =          3.657782250300140E-04
(PID.TID 0000.0001) // SYMBOLS (CMIN->CMAX): -abcdefghijklmnopqrstuvwxyz+
(PID.TID 0000.0001) //                  0.0: .
(PID.TID 0000.0001) // RANGE I (Lo:Hi:Step):(   1: 320:   1)
(PID.TID 0000.0001) // RANGE J (Lo:Hi:Step):(   1:   1:  -1)
(PID.TID 0000.0001) // RANGE K (Lo:Hi:Step):(   1:   1:   1)
(PID.TID 0000.0001) // =======================================================
(PID.TID 0000.0001) K =   1
(PID.TID 0000.0001)                I=10      I=20      I=30      I=40      I=50      I=60      I=70      I=80      I=90      I=100     I=110     I=120     I=130     I=140     I=150     I=160     I=170     I=180     I=190     I=200     I=210     I=220     I=230     I=240     I=250     I=260     I=270     I=280     I=290     I=300     I=310     I=320
(PID.TID 0000.0001) |--J--|123456789|123456789|123456789|123456789|123456789|123456789|123456789|123456789|123456789|123456789|123456789|123456789|123456789|123456789|123456789|123456789|123456789|123456789|123456789|123456789|123456789|123456789|123456789|123456789|123456789|123456789|123456789|123456789|123456789|123456789|123456789|123456789|
(PID.TID 0000.0001)      1 .kzbohwiraimloqcxtuvregqnabgkmypimpdvzp-vpsbkjdvwlzdwulqzqfiemklpbhpdqfpnlnyikhkgjmshcll-rsggsu+mxlvvdjnsollbljhwtzo-pvzfsnysfldziatxggycyswelbwohjwjbeaocncujvapzhxbafyag+emhrzurcb-hv+-vqofvgtrfppreqdnqrrx-huhyrbb-fnlspnbejguhq+mzvycvydcusqtrxgkeabwilyfwrxm+jnemkrrzecoz-w-nesgycnxyilmdcntkigwqfzqfrrc-gcbweatngj-xwgodpi
(PID.TID 0000.0001) // =======================================================
(PID.TID 0000.0001) // END OF FIELD                                          =
(PID.TID 0000.0001) // =======================================================
(PID.TID 0000.0001) 
(PID.TID 0000.0001) // =======================================================
(PID.TID 0000.0001) // Field Initial Salinity at iteration          1
(PID.TID 0000.0001) // CMIN =          3.500000000000000E+01
(PID.TID 0000.0001) // CMAX =          3.500000000000000E+01
(PID.TID 0000.0001) // CINT =          0.000000000000000E+00
(PID.TID 0000.0001) // SYMBOLS (CMIN->CMAX): -abcdefghijklmnopqrstuvwxyz+
(PID.TID 0000.0001) //                  0.0: .
(PID.TID 0000.0001) // RANGE I (Lo:Hi:Step):(   1: 320:   1)
(PID.TID 0000.0001) // RANGE J (Lo:Hi:Step):(   1:   1:  -1)
(PID.TID 0000.0001) // RANGE K (Lo:Hi:Step):(   1:   1:   1)
(PID.TID 0000.0001) // =======================================================
(PID.TID 0000.0001) K =   1
(PID.TID 0000.0001)                I=10      I=20      I=30      I=40      I=50      I=60      I=70      I=80      I=90      I=100     I=110     I=120     I=130     I=140     I=150     I=160     I=170     I=180     I=190     I=200     I=210     I=220     I=230     I=240     I=250     I=260     I=270     I=280     I=290     I=300     I=310     I=320
(PID.TID 0000.0001) |--J--|123456789|123456789|123456789|123456789|123456789|123456789|123456789|123456789|123456789|123456789|123456789|123456789|123456789|123456789|123456789|123456789|123456789|123456789|123456789|123456789|123456789|123456789|123456789|123456789|123456789|123456789|123456789|123456789|123456789|123456789|123456789|123456789|
(PID.TID 0000.0001)      1 .-------------------------------------------------------------------------------------------------------------------------------------------------------------------------------------------------------------------------------------------------------------------------------------------------------------------------------
(PID.TID 0000.0001) // =======================================================
(PID.TID 0000.0001) // END OF FIELD                                          =
(PID.TID 0000.0001) // =======================================================
(PID.TID 0000.0001) 
(PID.TID 0000.0001)  MDSREADFIELD: opening global file: Qnet.forcing
(PID.TID 0000.0001) // =======================================================
(PID.TID 0000.0001) // Model current state
(PID.TID 0000.0001) // =======================================================
(PID.TID 0000.0001) 
(PID.TID 0000.0001) // =======================================================
(PID.TID 0000.0001) // Begin MONITOR dynamic field statistics
(PID.TID 0000.0001) // =======================================================
(PID.TID 0000.0001) %MON time_tsnumber                =                     0
(PID.TID 0000.0001) %MON time_secondsf                =   0.0000000000000E+00
(PID.TID 0000.0001) %MON dynstat_eta_max              =   0.0000000000000E+00
(PID.TID 0000.0001) %MON dynstat_eta_min              =   0.0000000000000E+00
(PID.TID 0000.0001) %MON dynstat_eta_mean             =   0.0000000000000E+00
(PID.TID 0000.0001) %MON dynstat_eta_sd               =   0.0000000000000E+00
(PID.TID 0000.0001) %MON dynstat_eta_del2             =   0.0000000000000E+00
(PID.TID 0000.0001) %MON dynstat_uvel_max             =   0.0000000000000E+00
(PID.TID 0000.0001) %MON dynstat_uvel_min             =   0.0000000000000E+00
(PID.TID 0000.0001) %MON dynstat_uvel_mean            =   0.0000000000000E+00
(PID.TID 0000.0001) %MON dynstat_uvel_sd              =   0.0000000000000E+00
(PID.TID 0000.0001) %MON dynstat_uvel_del2            =   0.0000000000000E+00
(PID.TID 0000.0001) %MON dynstat_vvel_max             =   0.0000000000000E+00
(PID.TID 0000.0001) %MON dynstat_vvel_min             =   0.0000000000000E+00
(PID.TID 0000.0001) %MON dynstat_vvel_mean            =   0.0000000000000E+00
(PID.TID 0000.0001) %MON dynstat_vvel_sd              =   0.0000000000000E+00
(PID.TID 0000.0001) %MON dynstat_vvel_del2            =   0.0000000000000E+00
(PID.TID 0000.0001) %MON dynstat_wvel_max             =   0.0000000000000E+00
(PID.TID 0000.0001) %MON dynstat_wvel_min             =   0.0000000000000E+00
(PID.TID 0000.0001) %MON dynstat_wvel_mean            =   0.0000000000000E+00
(PID.TID 0000.0001) %MON dynstat_wvel_sd              =   0.0000000000000E+00
(PID.TID 0000.0001) %MON dynstat_wvel_del2            =   0.0000000000000E+00
(PID.TID 0000.0001) %MON dynstat_theta_max            =   9.9980345224379E-03
(PID.TID 0000.0001) %MON dynstat_theta_min            =   3.9889598923900E-07
(PID.TID 0000.0001) %MON dynstat_theta_mean           =   5.0669990539996E-03
(PID.TID 0000.0001) %MON dynstat_theta_sd             =   2.8822895061532E-03
(PID.TID 0000.0001) %MON dynstat_theta_del2           =   1.4465397623378E-03
(PID.TID 0000.0001) %MON dynstat_salt_max             =   3.5000000000000E+01
(PID.TID 0000.0001) %MON dynstat_salt_min             =   3.5000000000000E+01
(PID.TID 0000.0001) %MON dynstat_salt_mean            =   3.5000000000000E+01
(PID.TID 0000.0001) %MON dynstat_salt_sd              =   1.4210854715202E-14
(PID.TID 0000.0001) %MON dynstat_salt_del2            =   0.0000000000000E+00
(PID.TID 0000.0001) %MON advcfl_uvel_max              =   0.0000000000000E+00
(PID.TID 0000.0001) %MON advcfl_vvel_max              =   0.0000000000000E+00
(PID.TID 0000.0001) %MON advcfl_wvel_max              =   0.0000000000000E+00
(PID.TID 0000.0001) %MON advcfl_W_hf_max              =   0.0000000000000E+00
(PID.TID 0000.0001) %MON ke_max                       =   0.0000000000000E+00
(PID.TID 0000.0001) %MON ke_mean                      =   0.0000000000000E+00
(PID.TID 0000.0001) %MON ke_volint                    =   0.0000000000000E+00
(PID.TID 0000.0001) %MON ke_volmean                   =   0.0000000000000E+00
(PID.TID 0000.0001) %MON ke_vol                       =   2.0260852940581E+08
(PID.TID 0000.0001) // =======================================================
(PID.TID 0000.0001) // End MONITOR dynamic field statistics
(PID.TID 0000.0001) // =======================================================
 cg2d: Sum(rhs),rhsMax =  -3.33066907387547E-16  4.34534814524355E-04
(PID.TID 0000.0001)                    cg2d_init_res =    4.31213602031210E+00
(PID.TID 0000.0001)                       cg2d_iters =   199
(PID.TID 0000.0001)                         cg2d_res =    8.69882100687101E-14
 cg3d: Sum(rhs),rhsMax =   2.01505478969466E-14  9.42282085708318E-06
(PID.TID 0000.0001)                    cg3d_init_res =    2.10684632797422E+01
(PID.TID 0000.0001)                       cg3d_iters =    20
(PID.TID 0000.0001)                         cg3d_res =    3.04049897397083E-03
(PID.TID 0000.0001) // =======================================================
(PID.TID 0000.0001) // Begin MONITOR dynamic field statistics
(PID.TID 0000.0001) // =======================================================
(PID.TID 0000.0001) %MON time_tsnumber                =                     1
(PID.TID 0000.0001) %MON time_secondsf                =   2.0000000000000E+01
(PID.TID 0000.0001) %MON dynstat_eta_max              =   2.3725500233586E-05
(PID.TID 0000.0001) %MON dynstat_eta_min              =  -2.0699974017746E-05
(PID.TID 0000.0001) %MON dynstat_eta_mean             =   9.6569153217598E-20
(PID.TID 0000.0001) %MON dynstat_eta_sd               =   7.5063528952083E-06
(PID.TID 0000.0001) %MON dynstat_eta_del2             =   3.0602731199354E-06
(PID.TID 0000.0001) %MON dynstat_uvel_max             =   1.0004216839355E-04
(PID.TID 0000.0001) %MON dynstat_uvel_min             =  -1.0905120582136E-04
(PID.TID 0000.0001) %MON dynstat_uvel_mean            =   1.0756742432167E-07
(PID.TID 0000.0001) %MON dynstat_uvel_sd              =   2.1316815734603E-05
(PID.TID 0000.0001) %MON dynstat_uvel_del2            =   1.2887271361069E-05
(PID.TID 0000.0001) %MON dynstat_vvel_max             =   0.0000000000000E+00
(PID.TID 0000.0001) %MON dynstat_vvel_min             =   0.0000000000000E+00
(PID.TID 0000.0001) %MON dynstat_vvel_mean            =   0.0000000000000E+00
(PID.TID 0000.0001) %MON dynstat_vvel_sd              =   0.0000000000000E+00
(PID.TID 0000.0001) %MON dynstat_vvel_del2            =   0.0000000000000E+00
(PID.TID 0000.0001) %MON dynstat_wvel_max             =   0.0000000000000E+00
(PID.TID 0000.0001) %MON dynstat_wvel_min             =   0.0000000000000E+00
(PID.TID 0000.0001) %MON dynstat_wvel_mean            =   0.0000000000000E+00
(PID.TID 0000.0001) %MON dynstat_wvel_sd              =   0.0000000000000E+00
(PID.TID 0000.0001) %MON dynstat_wvel_del2            =   0.0000000000000E+00
(PID.TID 0000.0001) %MON dynstat_theta_max            =   9.9980345224379E-03
(PID.TID 0000.0001) %MON dynstat_theta_min            =  -2.6732022418926E-06
(PID.TID 0000.0001) %MON dynstat_theta_mean           =   5.0663266672600E-03
(PID.TID 0000.0001) %MON dynstat_theta_sd             =   2.8823232668965E-03
(PID.TID 0000.0001) %MON dynstat_theta_del2           =   1.4465396630697E-03
(PID.TID 0000.0001) %MON dynstat_salt_max             =   3.5000000000000E+01
(PID.TID 0000.0001) %MON dynstat_salt_min             =   3.5000000000000E+01
(PID.TID 0000.0001) %MON dynstat_salt_mean            =   3.5000000000000E+01
(PID.TID 0000.0001) %MON dynstat_salt_sd              =   1.4210854715202E-14
(PID.TID 0000.0001) %MON dynstat_salt_del2            =   0.0000000000000E+00
(PID.TID 0000.0001) %MON advcfl_uvel_max              =   1.6354763613005E-04
(PID.TID 0000.0001) %MON advcfl_vvel_max              =   0.0000000000000E+00
(PID.TID 0000.0001) %MON advcfl_wvel_max              =   0.0000000000000E+00
(PID.TID 0000.0001) %MON advcfl_W_hf_max              =   0.0000000000000E+00
(PID.TID 0000.0001) %MON ke_max                       =   3.6197227695296E-09
(PID.TID 0000.0001) %MON ke_mean                      =   2.6633746069175E-10
(PID.TID 0000.0001) %MON ke_volint                    =   4.5792943763827E-02
(PID.TID 0000.0001) %MON ke_volmean                   =   2.2601686068263E-10
(PID.TID 0000.0001) %MON ke_vol                       =   2.0260852940581E+08
(PID.TID 0000.0001) // =======================================================
(PID.TID 0000.0001) // End MONITOR dynamic field statistics
(PID.TID 0000.0001) // =======================================================
 cg2d: Sum(rhs),rhsMax =   2.23811608843216E-06  4.34558963992209E-04
(PID.TID 0000.0001)                    cg2d_init_res =    1.59062606812337E-03
(PID.TID 0000.0001)                       cg2d_iters =   187
(PID.TID 0000.0001)                         cg2d_res =    7.99883009816924E-14
 cg3d: Sum(rhs),rhsMax =  -4.45338210752766E-14  9.42289838395783E-06
(PID.TID 0000.0001)                    cg3d_init_res =    8.07214103775627E-02
(PID.TID 0000.0001)                       cg3d_iters =    20
(PID.TID 0000.0001)                         cg3d_res =    3.63441210478132E-04
(PID.TID 0000.0001) // =======================================================
(PID.TID 0000.0001) // Begin MONITOR dynamic field statistics
(PID.TID 0000.0001) // =======================================================
(PID.TID 0000.0001) %MON time_tsnumber                =                     2
(PID.TID 0000.0001) %MON time_secondsf                =   4.0000000000000E+01
(PID.TID 0000.0001) %MON dynstat_eta_max              =   2.4209716551721E-05
(PID.TID 0000.0001) %MON dynstat_eta_min              =  -2.0551240763756E-05
(PID.TID 0000.0001) %MON dynstat_eta_mean             =  -7.9216510055239E-10
(PID.TID 0000.0001) %MON dynstat_eta_sd               =   7.6052338720886E-06
(PID.TID 0000.0001) %MON dynstat_eta_del2             =   3.0587148158862E-06
(PID.TID 0000.0001) %MON dynstat_uvel_max             =   1.9910114657554E-04
(PID.TID 0000.0001) %MON dynstat_uvel_min             =  -2.1175481234660E-04
(PID.TID 0000.0001) %MON dynstat_uvel_mean            =   1.5001213063080E-07
(PID.TID 0000.0001) %MON dynstat_uvel_sd              =   4.2573848551909E-05
(PID.TID 0000.0001) %MON dynstat_uvel_del2            =   2.5705884465476E-05
(PID.TID 0000.0001) %MON dynstat_vvel_max             =   0.0000000000000E+00
(PID.TID 0000.0001) %MON dynstat_vvel_min             =   0.0000000000000E+00
(PID.TID 0000.0001) %MON dynstat_vvel_mean            =   0.0000000000000E+00
(PID.TID 0000.0001) %MON dynstat_vvel_sd              =   0.0000000000000E+00
(PID.TID 0000.0001) %MON dynstat_vvel_del2            =   0.0000000000000E+00
(PID.TID 0000.0001) %MON dynstat_wvel_max             =   8.8806345959637E-05
(PID.TID 0000.0001) %MON dynstat_wvel_min             =  -9.4974223257461E-05
(PID.TID 0000.0001) %MON dynstat_wvel_mean            =   2.0243676783718E-11
(PID.TID 0000.0001) %MON dynstat_wvel_sd              =   2.0480003135689E-05
(PID.TID 0000.0001) %MON dynstat_wvel_del2            =   1.2597303056510E-05
(PID.TID 0000.0001) %MON dynstat_theta_max            =   9.9980210743326E-03
(PID.TID 0000.0001) %MON dynstat_theta_min            =  -2.9185230160215E-04
(PID.TID 0000.0001) %MON dynstat_theta_mean           =   5.0656542503866E-03
(PID.TID 0000.0001) %MON dynstat_theta_sd             =   2.8821849788121E-03
(PID.TID 0000.0001) %MON dynstat_theta_del2           =   1.4463903527277E-03
(PID.TID 0000.0001) %MON dynstat_salt_max             =   3.5000000000000E+01
(PID.TID 0000.0001) %MON dynstat_salt_min             =   3.5000000000000E+01
(PID.TID 0000.0001) %MON dynstat_salt_mean            =   3.5000000000000E+01
(PID.TID 0000.0001) %MON dynstat_salt_sd              =   1.4210854715202E-14
(PID.TID 0000.0001) %MON dynstat_salt_del2            =   0.0000000000000E+00
(PID.TID 0000.0001) %MON advcfl_uvel_max              =   3.1757557138048E-04
(PID.TID 0000.0001) %MON advcfl_vvel_max              =   0.0000000000000E+00
(PID.TID 0000.0001) %MON advcfl_wvel_max              =   5.6984533954477E-04
(PID.TID 0000.0001) %MON advcfl_W_hf_max              =   5.6984533954477E-04
(PID.TID 0000.0001) %MON ke_max                       =   1.3669038098471E-08
(PID.TID 0000.0001) %MON ke_mean                      =   1.0604481050831E-09
(PID.TID 0000.0001) %MON ke_volint                    =   1.8265604753766E-01
(PID.TID 0000.0001) %MON ke_volmean                   =   9.0152200439600E-10
(PID.TID 0000.0001) %MON ke_vol                       =   2.0260852940581E+08
(PID.TID 0000.0001) // =======================================================
(PID.TID 0000.0001) // End MONITOR dynamic field statistics
(PID.TID 0000.0001) // =======================================================
 cg2d: Sum(rhs),rhsMax =   2.11192935569843E-05  4.34522737064828E-04
(PID.TID 0000.0001)                    cg2d_init_res =    8.70531052623015E-04
(PID.TID 0000.0001)                       cg2d_iters =   187
(PID.TID 0000.0001)                         cg2d_res =    6.12794674553062E-14
 cg3d: Sum(rhs),rhsMax =   2.84772205816353E-14  9.42091882494778E-06
(PID.TID 0000.0001)                    cg3d_init_res =    3.58636217920679E-02
(PID.TID 0000.0001)                       cg3d_iters =    20
(PID.TID 0000.0001)                         cg3d_res =    1.98206432337443E-04
(PID.TID 0000.0001) // =======================================================
(PID.TID 0000.0001) // Begin MONITOR dynamic field statistics
(PID.TID 0000.0001) // =======================================================
(PID.TID 0000.0001) %MON time_tsnumber                =                     3
(PID.TID 0000.0001) %MON time_secondsf                =   6.0000000000000E+01
(PID.TID 0000.0001) %MON dynstat_eta_max              =   2.4088528882611E-05
(PID.TID 0000.0001) %MON dynstat_eta_min              =  -2.0357827953091E-05
(PID.TID 0000.0001) %MON dynstat_eta_mean             =  -7.4743989824423E-09
(PID.TID 0000.0001) %MON dynstat_eta_sd               =   7.6021938272746E-06
(PID.TID 0000.0001) %MON dynstat_eta_del2             =   3.0578474887877E-06
(PID.TID 0000.0001) %MON dynstat_uvel_max             =   2.9794264357204E-04
(PID.TID 0000.0001) %MON dynstat_uvel_min             =  -3.1337910012206E-04
(PID.TID 0000.0001) %MON dynstat_uvel_mean            =   1.7195200105754E-07
(PID.TID 0000.0001) %MON dynstat_uvel_sd              =   6.3771325233942E-05
(PID.TID 0000.0001) %MON dynstat_uvel_del2            =   3.8474890912270E-05
(PID.TID 0000.0001) %MON dynstat_vvel_max             =   0.0000000000000E+00
(PID.TID 0000.0001) %MON dynstat_vvel_min             =   0.0000000000000E+00
(PID.TID 0000.0001) %MON dynstat_vvel_mean            =   0.0000000000000E+00
(PID.TID 0000.0001) %MON dynstat_vvel_sd              =   0.0000000000000E+00
(PID.TID 0000.0001) %MON dynstat_vvel_del2            =   0.0000000000000E+00
(PID.TID 0000.0001) %MON dynstat_wvel_max             =   1.7733827289931E-04
(PID.TID 0000.0001) %MON dynstat_wvel_min             =  -1.8968653183919E-04
(PID.TID 0000.0001) %MON dynstat_wvel_mean            =   4.4396459341585E-11
(PID.TID 0000.0001) %MON dynstat_wvel_sd              =   4.0899847413033E-05
(PID.TID 0000.0001) %MON dynstat_wvel_del2            =   2.5157886264655E-05
(PID.TID 0000.0001) %MON dynstat_theta_max            =   9.9979934933106E-03
(PID.TID 0000.0001) %MON dynstat_theta_min            =  -5.8005560687717E-04
(PID.TID 0000.0001) %MON dynstat_theta_mean           =   5.0649818547743E-03
(PID.TID 0000.0001) %MON dynstat_theta_sd             =   2.8818757010402E-03
(PID.TID 0000.0001) %MON dynstat_theta_del2           =   1.4460926547791E-03
(PID.TID 0000.0001) %MON dynstat_salt_max             =   3.5000000000000E+01
(PID.TID 0000.0001) %MON dynstat_salt_min             =   3.5000000000000E+01
(PID.TID 0000.0001) %MON dynstat_salt_mean            =   3.5000000000000E+01
(PID.TID 0000.0001) %MON dynstat_salt_sd              =   1.4210854715202E-14
(PID.TID 0000.0001) %MON dynstat_salt_del2            =   0.0000000000000E+00
(PID.TID 0000.0001) %MON advcfl_uvel_max              =   4.7003780454896E-04
(PID.TID 0000.0001) %MON advcfl_vvel_max              =   0.0000000000000E+00
(PID.TID 0000.0001) %MON advcfl_wvel_max              =   1.1381191910351E-03
(PID.TID 0000.0001) %MON advcfl_W_hf_max              =   1.1381191910351E-03
(PID.TID 0000.0001) %MON ke_max                       =   3.0301093587432E-08
(PID.TID 0000.0001) %MON ke_mean                      =   2.3745163502295E-09
(PID.TID 0000.0001) %MON ke_volint                    =   4.0982352440466E-01
(PID.TID 0000.0001) %MON ke_volmean                   =   2.0227357930416E-09
(PID.TID 0000.0001) %MON ke_vol                       =   2.0260852940581E+08
(PID.TID 0000.0001) // =======================================================
(PID.TID 0000.0001) // End MONITOR dynamic field statistics
(PID.TID 0000.0001) // =======================================================
 cg2d: Sum(rhs),rhsMax =   8.95950514063909E-05  4.34489997834331E-04
(PID.TID 0000.0001)                    cg2d_init_res =    6.48445381728404E-04
(PID.TID 0000.0001)                       cg2d_iters =   186
(PID.TID 0000.0001)                         cg2d_res =    5.60805037850267E-14
 cg3d: Sum(rhs),rhsMax =  -4.95992136251289E-14  9.41794381117123E-06
(PID.TID 0000.0001)                    cg3d_init_res =    1.14048685498792E-02
(PID.TID 0000.0001)                       cg3d_iters =    20
(PID.TID 0000.0001)                         cg3d_res =    1.54768829839143E-04
(PID.TID 0000.0001) // =======================================================
(PID.TID 0000.0001) // Begin MONITOR dynamic field statistics
(PID.TID 0000.0001) // =======================================================
(PID.TID 0000.0001) %MON time_tsnumber                =                     4
(PID.TID 0000.0001) %MON time_secondsf                =   8.0000000000000E+01
(PID.TID 0000.0001) %MON dynstat_eta_max              =   2.3969194588873E-05
(PID.TID 0000.0001) %MON dynstat_eta_min              =  -2.0068155836280E-05
(PID.TID 0000.0001) %MON dynstat_eta_mean             =  -3.1706491642781E-08
(PID.TID 0000.0001) %MON dynstat_eta_sd               =   7.6142934852218E-06
(PID.TID 0000.0001) %MON dynstat_eta_del2             =   3.0574417638578E-06
(PID.TID 0000.0001) %MON dynstat_uvel_max             =   3.9648963707461E-04
(PID.TID 0000.0001) %MON dynstat_uvel_min             =  -4.1509165585598E-04
(PID.TID 0000.0001) %MON dynstat_uvel_mean            =   1.8138970363494E-07
(PID.TID 0000.0001) %MON dynstat_uvel_sd              =   8.4916800911866E-05
(PID.TID 0000.0001) %MON dynstat_uvel_del2            =   5.1195816496323E-05
(PID.TID 0000.0001) %MON dynstat_vvel_max             =   0.0000000000000E+00
(PID.TID 0000.0001) %MON dynstat_vvel_min             =   0.0000000000000E+00
(PID.TID 0000.0001) %MON dynstat_vvel_mean            =   0.0000000000000E+00
(PID.TID 0000.0001) %MON dynstat_vvel_sd              =   0.0000000000000E+00
(PID.TID 0000.0001) %MON dynstat_vvel_del2            =   0.0000000000000E+00
(PID.TID 0000.0001) %MON dynstat_wvel_max             =   2.6567628586615E-04
(PID.TID 0000.0001) %MON dynstat_wvel_min             =  -2.8416312290277E-04
(PID.TID 0000.0001) %MON dynstat_wvel_mean            =  -5.2549744113379E-11
(PID.TID 0000.0001) %MON dynstat_wvel_sd              =   6.1289028960124E-05
(PID.TID 0000.0001) %MON dynstat_wvel_del2            =   3.7688913362350E-05
(PID.TID 0000.0001) %MON dynstat_theta_max            =   9.9979520401124E-03
(PID.TID 0000.0001) %MON dynstat_theta_min            =  -8.6729211129929E-04
(PID.TID 0000.0001) %MON dynstat_theta_mean           =   5.0643094418107E-03
(PID.TID 0000.0001) %MON dynstat_theta_sd             =   2.8813962153529E-03
(PID.TID 0000.0001) %MON dynstat_theta_del2           =   1.4456469516318E-03
(PID.TID 0000.0001) %MON dynstat_salt_max             =   3.5000000000000E+01
(PID.TID 0000.0001) %MON dynstat_salt_min             =   3.5000000000000E+01
(PID.TID 0000.0001) %MON dynstat_salt_mean            =   3.5000000000000E+01
(PID.TID 0000.0001) %MON dynstat_salt_sd              =   1.4210854715202E-14
(PID.TID 0000.0001) %MON dynstat_salt_del2            =   0.0000000000000E+00
(PID.TID 0000.0001) %MON advcfl_uvel_max              =   6.2259662667084E-04
(PID.TID 0000.0001) %MON advcfl_vvel_max              =   0.0000000000000E+00
(PID.TID 0000.0001) %MON advcfl_wvel_max              =   1.7049787374166E-03
(PID.TID 0000.0001) %MON advcfl_W_hf_max              =   1.7049787374166E-03
(PID.TID 0000.0001) %MON ke_max                       =   5.3137496986799E-08
(PID.TID 0000.0001) %MON ke_mean                      =   4.2057662711930E-09
(PID.TID 0000.0001) %MON ke_volint                    =   7.2666136897013E-01
(PID.TID 0000.0001) %MON ke_volmean                   =   3.5865290128762E-09
(PID.TID 0000.0001) %MON ke_vol                       =   2.0260852940581E+08
(PID.TID 0000.0001) // =======================================================
(PID.TID 0000.0001) // End MONITOR dynamic field statistics
(PID.TID 0000.0001) // =======================================================
 cg2d: Sum(rhs),rhsMax =   2.45977403519601E-04  4.34445987805264E-04
(PID.TID 0000.0001)                    cg2d_init_res =    8.71482273771114E-04
(PID.TID 0000.0001)                       cg2d_iters =   186
(PID.TID 0000.0001)                         cg2d_res =    6.78527488206530E-14
 cg3d: Sum(rhs),rhsMax =   5.23608933988839E-14  9.41390717594779E-06
(PID.TID 0000.0001)                    cg3d_init_res =    1.20251995514284E-02
(PID.TID 0000.0001)                       cg3d_iters =    20
(PID.TID 0000.0001)                         cg3d_res =    8.47531135759721E-05
(PID.TID 0000.0001) // =======================================================
(PID.TID 0000.0001) // Begin MONITOR dynamic field statistics
(PID.TID 0000.0001) // =======================================================
(PID.TID 0000.0001) %MON time_tsnumber                =                     5
(PID.TID 0000.0001) %MON time_secondsf                =   1.0000000000000E+02
(PID.TID 0000.0001) %MON dynstat_eta_max              =   2.3943474906792E-05
(PID.TID 0000.0001) %MON dynstat_eta_min              =  -1.9862036894206E-05
(PID.TID 0000.0001) %MON dynstat_eta_mean             =  -8.7039299471205E-08
(PID.TID 0000.0001) %MON dynstat_eta_sd               =   7.6363632898172E-06
(PID.TID 0000.0001) %MON dynstat_eta_del2             =   3.0570379323807E-06
(PID.TID 0000.0001) %MON dynstat_uvel_max             =   4.9471234319816E-04
(PID.TID 0000.0001) %MON dynstat_uvel_min             =  -5.1566198524710E-04
(PID.TID 0000.0001) %MON dynstat_uvel_mean            =   1.8167134624454E-07
(PID.TID 0000.0001) %MON dynstat_uvel_sd              =   1.0601036535431E-04
(PID.TID 0000.0001) %MON dynstat_uvel_del2            =   6.3868511084329E-05
(PID.TID 0000.0001) %MON dynstat_vvel_max             =   0.0000000000000E+00
(PID.TID 0000.0001) %MON dynstat_vvel_min             =   0.0000000000000E+00
(PID.TID 0000.0001) %MON dynstat_vvel_mean            =   0.0000000000000E+00
(PID.TID 0000.0001) %MON dynstat_vvel_sd              =   0.0000000000000E+00
(PID.TID 0000.0001) %MON dynstat_vvel_del2            =   0.0000000000000E+00
(PID.TID 0000.0001) %MON dynstat_wvel_max             =   3.5378571371145E-04
(PID.TID 0000.0001) %MON dynstat_wvel_min             =  -3.7840255232682E-04
(PID.TID 0000.0001) %MON dynstat_wvel_mean            =  -3.7637517052575E-10
(PID.TID 0000.0001) %MON dynstat_wvel_sd              =   8.1638236922123E-05
(PID.TID 0000.0001) %MON dynstat_wvel_del2            =   5.0184998971531E-05
(PID.TID 0000.0001) %MON dynstat_theta_max            =   9.9978965452630E-03
(PID.TID 0000.0001) %MON dynstat_theta_min            =  -1.1535673068221E-03
(PID.TID 0000.0001) %MON dynstat_theta_mean           =   5.0636370019848E-03
(PID.TID 0000.0001) %MON dynstat_theta_sd             =   2.8807476067345E-03
(PID.TID 0000.0001) %MON dynstat_theta_del2           =   1.4450538854786E-03
(PID.TID 0000.0001) %MON dynstat_salt_max             =   3.5000000000000E+01
(PID.TID 0000.0001) %MON dynstat_salt_min             =   3.5000000000000E+01
(PID.TID 0000.0001) %MON dynstat_salt_mean            =   3.5000000000000E+01
(PID.TID 0000.0001) %MON dynstat_salt_sd              =   1.4210854715202E-14
(PID.TID 0000.0001) %MON dynstat_salt_del2            =   0.0000000000000E+00
(PID.TID 0000.0001) %MON advcfl_uvel_max              =   7.7344222170688E-04
(PID.TID 0000.0001) %MON advcfl_vvel_max              =   0.0000000000000E+00
(PID.TID 0000.0001) %MON advcfl_wvel_max              =   2.2704153139609E-03
(PID.TID 0000.0001) %MON advcfl_W_hf_max              =   2.2704153139609E-03
(PID.TID 0000.0001) %MON ke_max                       =   8.1949309352704E-08
(PID.TID 0000.0001) %MON ke_mean                      =   6.5480365159310E-09
(PID.TID 0000.0001) %MON ke_volint                    =   1.1325066998679E+00
(PID.TID 0000.0001) %MON ke_volmean                   =   5.5896299291503E-09
(PID.TID 0000.0001) %MON ke_vol                       =   2.0260852940581E+08
(PID.TID 0000.0001) // =======================================================
(PID.TID 0000.0001) // End MONITOR dynamic field statistics
(PID.TID 0000.0001) // =======================================================
 cg2d: Sum(rhs),rhsMax =   5.30351192186237E-04  4.34390299424340E-04
(PID.TID 0000.0001)                    cg2d_init_res =    1.10585628652066E-03
(PID.TID 0000.0001)                       cg2d_iters =   186
(PID.TID 0000.0001)                         cg2d_res =    8.32071186468244E-14
 cg3d: Sum(rhs),rhsMax =   7.60086438233998E-14  9.40879106381659E-06
(PID.TID 0000.0001)                    cg3d_init_res =    1.37563630479722E-02
(PID.TID 0000.0001)                       cg3d_iters =    20
(PID.TID 0000.0001)                         cg3d_res =    6.44345680728416E-05
(PID.TID 0000.0001) // =======================================================
(PID.TID 0000.0001) // Begin MONITOR dynamic field statistics
(PID.TID 0000.0001) // =======================================================
(PID.TID 0000.0001) %MON time_tsnumber                =                     6
(PID.TID 0000.0001) %MON time_secondsf                =   1.2000000000000E+02
(PID.TID 0000.0001) %MON dynstat_eta_max              =   2.3971471490018E-05
(PID.TID 0000.0001) %MON dynstat_eta_min              =  -1.9836385684182E-05
(PID.TID 0000.0001) %MON dynstat_eta_mean             =  -1.8764113490573E-07
(PID.TID 0000.0001) %MON dynstat_eta_sd               =   7.6550910928411E-06
(PID.TID 0000.0001) %MON dynstat_eta_del2             =   3.0567827740373E-06
(PID.TID 0000.0001) %MON dynstat_uvel_max             =   5.9259832782059E-04
(PID.TID 0000.0001) %MON dynstat_uvel_min             =  -6.1511600496175E-04
(PID.TID 0000.0001) %MON dynstat_uvel_mean            =   1.7991348723633E-07
(PID.TID 0000.0001) %MON dynstat_uvel_sd              =   1.2705164657696E-04
(PID.TID 0000.0001) %MON dynstat_uvel_del2            =   7.6492791788883E-05
(PID.TID 0000.0001) %MON dynstat_vvel_max             =   0.0000000000000E+00
(PID.TID 0000.0001) %MON dynstat_vvel_min             =   0.0000000000000E+00
(PID.TID 0000.0001) %MON dynstat_vvel_mean            =   0.0000000000000E+00
(PID.TID 0000.0001) %MON dynstat_vvel_sd              =   0.0000000000000E+00
(PID.TID 0000.0001) %MON dynstat_vvel_del2            =   0.0000000000000E+00
(PID.TID 0000.0001) %MON dynstat_wvel_max             =   4.4165271890080E-04
(PID.TID 0000.0001) %MON dynstat_wvel_min             =  -4.7239852373138E-04
(PID.TID 0000.0001) %MON dynstat_wvel_mean            =  -9.5932168075744E-10
(PID.TID 0000.0001) %MON dynstat_wvel_sd              =   1.0194671560218E-04
(PID.TID 0000.0001) %MON dynstat_wvel_del2            =   6.2645900935193E-05
(PID.TID 0000.0001) %MON dynstat_theta_max            =   9.9978269053435E-03
(PID.TID 0000.0001) %MON dynstat_theta_min            =  -1.4388863126169E-03
(PID.TID 0000.0001) %MON dynstat_theta_mean           =   5.0629645270415E-03
(PID.TID 0000.0001) %MON dynstat_theta_sd             =   2.8799313763227E-03
(PID.TID 0000.0001) %MON dynstat_theta_del2           =   1.4443151584836E-03
(PID.TID 0000.0001) %MON dynstat_salt_max             =   3.5000000000000E+01
(PID.TID 0000.0001) %MON dynstat_salt_min             =   3.5000000000000E+01
(PID.TID 0000.0001) %MON dynstat_salt_mean            =   3.5000000000000E+01
(PID.TID 0000.0001) %MON dynstat_salt_sd              =   1.4210854715202E-14
(PID.TID 0000.0001) %MON dynstat_salt_del2            =   0.0000000000000E+00
(PID.TID 0000.0001) %MON advcfl_uvel_max              =   9.2261346210560E-04
(PID.TID 0000.0001) %MON advcfl_vvel_max              =   0.0000000000000E+00
(PID.TID 0000.0001) %MON advcfl_wvel_max              =   2.8343911423883E-03
(PID.TID 0000.0001) %MON advcfl_W_hf_max              =   2.8343911423883E-03
(PID.TID 0000.0001) %MON ke_max                       =   1.1651200795905E-07
(PID.TID 0000.0001) %MON ke_mean                      =   9.3960653008578E-09
(PID.TID 0000.0001) %MON ke_volint                    =   1.6266881708720E+00
(PID.TID 0000.0001) %MON ke_volmean                   =   8.0287250277297E-09
(PID.TID 0000.0001) %MON ke_vol                       =   2.0260852940581E+08
(PID.TID 0000.0001) // =======================================================
(PID.TID 0000.0001) // End MONITOR dynamic field statistics
(PID.TID 0000.0001) // =======================================================
 cg2d: Sum(rhs),rhsMax =   9.83963845204786E-04  4.34322983507263E-04
(PID.TID 0000.0001)                    cg2d_init_res =    1.34086473444210E-03
(PID.TID 0000.0001)                       cg2d_iters =   186
(PID.TID 0000.0001)                         cg2d_res =    9.99884180118513E-14
 cg3d: Sum(rhs),rhsMax =   5.63160629241111E-14  9.40260036548714E-06
(PID.TID 0000.0001)                    cg3d_init_res =    1.56945725599756E-02
(PID.TID 0000.0001)                       cg3d_iters =    20
(PID.TID 0000.0001)                         cg3d_res =    3.00339463445966E-05
(PID.TID 0000.0001) // =======================================================
(PID.TID 0000.0001) // Begin MONITOR dynamic field statistics
(PID.TID 0000.0001) // =======================================================
(PID.TID 0000.0001) %MON time_tsnumber                =                     7
(PID.TID 0000.0001) %MON time_secondsf                =   1.4000000000000E+02
(PID.TID 0000.0001) %MON dynstat_eta_max              =   2.3973187935494E-05
(PID.TID 0000.0001) %MON dynstat_eta_min              =  -1.9985361063688E-05
(PID.TID 0000.0001) %MON dynstat_eta_mean             =  -3.4807780874760E-07
(PID.TID 0000.0001) %MON dynstat_eta_sd               =   7.6628590526138E-06
(PID.TID 0000.0001) %MON dynstat_eta_del2             =   3.0567603602089E-06
(PID.TID 0000.0001) %MON dynstat_uvel_max             =   6.9014840891039E-04
(PID.TID 0000.0001) %MON dynstat_uvel_min             =  -7.1345049290078E-04
(PID.TID 0000.0001) %MON dynstat_uvel_mean            =   1.8529527629250E-07
(PID.TID 0000.0001) %MON dynstat_uvel_sd              =   1.4804031847887E-04
(PID.TID 0000.0001) %MON dynstat_uvel_del2            =   8.9068459557309E-05
(PID.TID 0000.0001) %MON dynstat_vvel_max             =   0.0000000000000E+00
(PID.TID 0000.0001) %MON dynstat_vvel_min             =   0.0000000000000E+00
(PID.TID 0000.0001) %MON dynstat_vvel_mean            =   0.0000000000000E+00
(PID.TID 0000.0001) %MON dynstat_vvel_sd              =   0.0000000000000E+00
(PID.TID 0000.0001) %MON dynstat_vvel_del2            =   0.0000000000000E+00
(PID.TID 0000.0001) %MON dynstat_wvel_max             =   5.2926957831253E-04
(PID.TID 0000.0001) %MON dynstat_wvel_min             =  -5.6615262392030E-04
(PID.TID 0000.0001) %MON dynstat_wvel_mean            =  -1.7942389151119E-09
(PID.TID 0000.0001) %MON dynstat_wvel_sd              =   1.2221417575475E-04
(PID.TID 0000.0001) %MON dynstat_wvel_del2            =   7.5071399146102E-05
(PID.TID 0000.0001) %MON dynstat_theta_max            =   9.9977431433315E-03
(PID.TID 0000.0001) %MON dynstat_theta_min            =  -1.7232543706446E-03
(PID.TID 0000.0001) %MON dynstat_theta_mean           =   5.0622920087840E-03
(PID.TID 0000.0001) %MON dynstat_theta_sd             =   2.8789489655603E-03
(PID.TID 0000.0001) %MON dynstat_theta_del2           =   1.4434312844003E-03
(PID.TID 0000.0001) %MON dynstat_salt_max             =   3.5000000000000E+01
(PID.TID 0000.0001) %MON dynstat_salt_min             =   3.5000000000000E+01
(PID.TID 0000.0001) %MON dynstat_salt_mean            =   3.5000000000000E+01
(PID.TID 0000.0001) %MON dynstat_salt_sd              =   1.4210854715202E-14
(PID.TID 0000.0001) %MON dynstat_salt_del2            =   0.0000000000000E+00
(PID.TID 0000.0001) %MON advcfl_uvel_max              =   1.0701055150355E-03
(PID.TID 0000.0001) %MON advcfl_vvel_max              =   0.0000000000000E+00
(PID.TID 0000.0001) %MON advcfl_wvel_max              =   3.3969157435218E-03
(PID.TID 0000.0001) %MON advcfl_W_hf_max              =   3.3969157435218E-03
(PID.TID 0000.0001) %MON ke_max                       =   1.5660253921591E-07
(PID.TID 0000.0001) %MON ke_mean                      =   1.2744622998377E-08
(PID.TID 0000.0001) %MON ke_volint                    =   2.2085312248362E+00
(PID.TID 0000.0001) %MON ke_volmean                   =   1.0900484946577E-08
(PID.TID 0000.0001) %MON ke_vol                       =   2.0260852940581E+08
(PID.TID 0000.0001) // =======================================================
(PID.TID 0000.0001) // End MONITOR dynamic field statistics
(PID.TID 0000.0001) // =======================================================
 cg2d: Sum(rhs),rhsMax =   1.64797419645220E-03  4.34243732898262E-04
(PID.TID 0000.0001)                    cg2d_init_res =    1.57585639813222E-03
(PID.TID 0000.0001)                       cg2d_iters =   187
(PID.TID 0000.0001)                         cg2d_res =    7.33490329697039E-14
 cg3d: Sum(rhs),rhsMax =   3.24462678946702E-14  9.39534380050985E-06
(PID.TID 0000.0001)                    cg3d_init_res =    1.77008613973008E-02
(PID.TID 0000.0001)                       cg3d_iters =    20
(PID.TID 0000.0001)                         cg3d_res =    2.86049600128038E-05
(PID.TID 0000.0001) // =======================================================
(PID.TID 0000.0001) // Begin MONITOR dynamic field statistics
(PID.TID 0000.0001) // =======================================================
(PID.TID 0000.0001) %MON time_tsnumber                =                     8
(PID.TID 0000.0001) %MON time_secondsf                =   1.6000000000000E+02
(PID.TID 0000.0001) %MON dynstat_eta_max              =   2.3877195690233E-05
(PID.TID 0000.0001) %MON dynstat_eta_min              =  -2.0290566099903E-05
(PID.TID 0000.0001) %MON dynstat_eta_mean             =  -5.8286549992521E-07
(PID.TID 0000.0001) %MON dynstat_eta_sd               =   7.6566683334541E-06
(PID.TID 0000.0001) %MON dynstat_eta_del2             =   3.0569619658502E-06
(PID.TID 0000.0001) %MON dynstat_uvel_max             =   7.8737266762256E-04
(PID.TID 0000.0001) %MON dynstat_uvel_min             =  -8.1065063284154E-04
(PID.TID 0000.0001) %MON dynstat_uvel_mean            =   2.0615874900553E-07
(PID.TID 0000.0001) %MON dynstat_uvel_sd              =   1.6897606759480E-04
(PID.TID 0000.0001) %MON dynstat_uvel_del2            =   1.0159535740454E-04
(PID.TID 0000.0001) %MON dynstat_vvel_max             =   0.0000000000000E+00
(PID.TID 0000.0001) %MON dynstat_vvel_min             =   0.0000000000000E+00
(PID.TID 0000.0001) %MON dynstat_vvel_mean            =   0.0000000000000E+00
(PID.TID 0000.0001) %MON dynstat_vvel_sd              =   0.0000000000000E+00
(PID.TID 0000.0001) %MON dynstat_vvel_del2            =   0.0000000000000E+00
(PID.TID 0000.0001) %MON dynstat_wvel_max             =   6.1662805589276E-04
(PID.TID 0000.0001) %MON dynstat_wvel_min             =  -6.5966426250803E-04
(PID.TID 0000.0001) %MON dynstat_wvel_mean            =  -2.8670554040852E-09
(PID.TID 0000.0001) %MON dynstat_wvel_sd              =   1.4244031316825E-04
(PID.TID 0000.0001) %MON dynstat_wvel_del2            =   8.7461264582803E-05
(PID.TID 0000.0001) %MON dynstat_theta_max            =   9.9976453619895E-03
(PID.TID 0000.0001) %MON dynstat_theta_min            =  -2.0066770725964E-03
(PID.TID 0000.0001) %MON dynstat_theta_mean           =   5.0616194391295E-03
(PID.TID 0000.0001) %MON dynstat_theta_sd             =   2.8778024082171E-03
(PID.TID 0000.0001) %MON dynstat_theta_del2           =   1.4424028861177E-03
(PID.TID 0000.0001) %MON dynstat_salt_max             =   3.5000000000000E+01
(PID.TID 0000.0001) %MON dynstat_salt_min             =   3.5000000000000E+01
(PID.TID 0000.0001) %MON dynstat_salt_mean            =   3.5000000000000E+01
(PID.TID 0000.0001) %MON dynstat_salt_sd              =   1.4210854715202E-14
(PID.TID 0000.0001) %MON dynstat_salt_del2            =   0.0000000000000E+00
(PID.TID 0000.0001) %MON advcfl_uvel_max              =   1.2158961576208E-03
(PID.TID 0000.0001) %MON advcfl_vvel_max              =   0.0000000000000E+00
(PID.TID 0000.0001) %MON advcfl_wvel_max              =   3.9579855750482E-03
(PID.TID 0000.0001) %MON advcfl_W_hf_max              =   3.9579855750482E-03
(PID.TID 0000.0001) %MON ke_max                       =   2.0199919173678E-07
(PID.TID 0000.0001) %MON ke_mean                      =   1.6588504540023E-08
(PID.TID 0000.0001) %MON ke_volint                    =   2.8773579100319E+00
(PID.TID 0000.0001) %MON ke_volmean                   =   1.4201563569265E-08
(PID.TID 0000.0001) %MON ke_vol                       =   2.0260852940581E+08
(PID.TID 0000.0001) // =======================================================
(PID.TID 0000.0001) // End MONITOR dynamic field statistics
(PID.TID 0000.0001) // =======================================================
 cg2d: Sum(rhs),rhsMax =   2.56357711525337E-03  4.34152319713668E-04
(PID.TID 0000.0001)                    cg2d_init_res =    1.81069230839165E-03
(PID.TID 0000.0001)                       cg2d_iters =   187
(PID.TID 0000.0001)                         cg2d_res =    8.29392647201495E-14
 cg3d: Sum(rhs),rhsMax =   1.31145094783847E-14  9.38703057556885E-06
(PID.TID 0000.0001)                    cg3d_init_res =    1.97386361393670E-02
(PID.TID 0000.0001)                       cg3d_iters =    20
(PID.TID 0000.0001)                         cg3d_res =    3.73281219369256E-05
(PID.TID 0000.0001) // =======================================================
(PID.TID 0000.0001) // Begin MONITOR dynamic field statistics
(PID.TID 0000.0001) // =======================================================
(PID.TID 0000.0001) %MON time_tsnumber                =                     9
(PID.TID 0000.0001) %MON time_secondsf                =   1.8000000000000E+02
(PID.TID 0000.0001) %MON dynstat_eta_max              =   2.3638996156225E-05
(PID.TID 0000.0001) %MON dynstat_eta_min              =  -2.0747976957670E-05
(PID.TID 0000.0001) %MON dynstat_eta_mean             =  -9.0651061761705E-07
(PID.TID 0000.0001) %MON dynstat_eta_sd               =   7.6376332467566E-06
(PID.TID 0000.0001) %MON dynstat_eta_del2             =   3.0573457051916E-06
(PID.TID 0000.0001) %MON dynstat_uvel_max             =   8.8428573003281E-04
(PID.TID 0000.0001) %MON dynstat_uvel_min             =  -9.0670243715465E-04
(PID.TID 0000.0001) %MON dynstat_uvel_mean            =   2.4868415806193E-07
(PID.TID 0000.0001) %MON dynstat_uvel_sd              =   1.8985858392727E-04
(PID.TID 0000.0001) %MON dynstat_uvel_del2            =   1.1407326111738E-04
(PID.TID 0000.0001) %MON dynstat_vvel_max             =   0.0000000000000E+00
(PID.TID 0000.0001) %MON dynstat_vvel_min             =   0.0000000000000E+00
(PID.TID 0000.0001) %MON dynstat_vvel_mean            =   0.0000000000000E+00
(PID.TID 0000.0001) %MON dynstat_vvel_sd              =   0.0000000000000E+00
(PID.TID 0000.0001) %MON dynstat_vvel_del2            =   0.0000000000000E+00
(PID.TID 0000.0001) %MON dynstat_wvel_max             =   7.0372203182655E-04
(PID.TID 0000.0001) %MON dynstat_wvel_min             =  -7.5293111149258E-04
(PID.TID 0000.0001) %MON dynstat_wvel_mean            =  -4.1611921567586E-09
(PID.TID 0000.0001) %MON dynstat_wvel_sd              =   1.6262478426560E-04
(PID.TID 0000.0001) %MON dynstat_wvel_del2            =   9.9815212982074E-05
(PID.TID 0000.0001) %MON dynstat_theta_max            =   9.9975337015273E-03
(PID.TID 0000.0001) %MON dynstat_theta_min            =  -2.2891604161385E-03
(PID.TID 0000.0001) %MON dynstat_theta_mean           =   5.0609468101129E-03
(PID.TID 0000.0001) %MON dynstat_theta_sd             =   2.8764938979017E-03
(PID.TID 0000.0001) %MON dynstat_theta_del2           =   1.4412334447139E-03
(PID.TID 0000.0001) %MON dynstat_salt_max             =   3.5000000000000E+01
(PID.TID 0000.0001) %MON dynstat_salt_min             =   3.5000000000000E+01
(PID.TID 0000.0001) %MON dynstat_salt_mean            =   3.5000000000000E+01
(PID.TID 0000.0001) %MON dynstat_salt_sd              =   1.4210854715202E-14
(PID.TID 0000.0001) %MON dynstat_salt_del2            =   0.0000000000000E+00
(PID.TID 0000.0001) %MON advcfl_uvel_max              =   1.3599644097943E-03
(PID.TID 0000.0001) %MON advcfl_vvel_max              =   0.0000000000000E+00
(PID.TID 0000.0001) %MON advcfl_wvel_max              =   4.5175866689555E-03
(PID.TID 0000.0001) %MON advcfl_W_hf_max              =   4.5175866689555E-03
(PID.TID 0000.0001) %MON ke_max                       =   2.5248310743900E-07
(PID.TID 0000.0001) %MON ke_mean                      =   2.0922524980679E-08
(PID.TID 0000.0001) %MON ke_volint                    =   3.6324869419408E+00
(PID.TID 0000.0001) %MON ke_volmean                   =   1.7928598329960E-08
(PID.TID 0000.0001) %MON ke_vol                       =   2.0260852940581E+08
(PID.TID 0000.0001) // =======================================================
(PID.TID 0000.0001) // End MONITOR dynamic field statistics
(PID.TID 0000.0001) // =======================================================
 cg2d: Sum(rhs),rhsMax =   3.77159708373950E-03  4.34048584314231E-04
(PID.TID 0000.0001)                    cg2d_init_res =    2.04431707777210E-03
(PID.TID 0000.0001)                       cg2d_iters =   187
(PID.TID 0000.0001)                         cg2d_res =    9.17223680870859E-14
 cg3d: Sum(rhs),rhsMax =   1.11716191852906E-14  9.37766988204665E-06
(PID.TID 0000.0001)                    cg3d_init_res =    2.17894086193843E-02
(PID.TID 0000.0001)                       cg3d_iters =    20
(PID.TID 0000.0001)                         cg3d_res =    4.83795365229430E-05
(PID.TID 0000.0001) // =======================================================
(PID.TID 0000.0001) // Begin MONITOR dynamic field statistics
(PID.TID 0000.0001) // =======================================================
(PID.TID 0000.0001) %MON time_tsnumber                =                    10
(PID.TID 0000.0001) %MON time_secondsf                =   2.0000000000000E+02
(PID.TID 0000.0001) %MON dynstat_eta_max              =   2.3239853991070E-05
(PID.TID 0000.0001) %MON dynstat_eta_min              =  -2.1359062212895E-05
(PID.TID 0000.0001) %MON dynstat_eta_mean             =  -1.3333618305579E-06
(PID.TID 0000.0001) %MON dynstat_eta_sd               =   7.6108454879972E-06
(PID.TID 0000.0001) %MON dynstat_eta_del2             =   3.0578757845364E-06
(PID.TID 0000.0001) %MON dynstat_uvel_max             =   9.8090118271499E-04
(PID.TID 0000.0001) %MON dynstat_uvel_min             =  -1.0015970455852E-03
(PID.TID 0000.0001) %MON dynstat_uvel_mean            =   3.1679428734199E-07
(PID.TID 0000.0001) %MON dynstat_uvel_sd              =   2.1068755339937E-04
(PID.TID 0000.0001) %MON dynstat_uvel_del2            =   1.2650205710461E-04
(PID.TID 0000.0001) %MON dynstat_vvel_max             =   0.0000000000000E+00
(PID.TID 0000.0001) %MON dynstat_vvel_min             =   0.0000000000000E+00
(PID.TID 0000.0001) %MON dynstat_vvel_mean            =   0.0000000000000E+00
(PID.TID 0000.0001) %MON dynstat_vvel_sd              =   0.0000000000000E+00
(PID.TID 0000.0001) %MON dynstat_vvel_del2            =   0.0000000000000E+00
(PID.TID 0000.0001) %MON dynstat_wvel_max             =   7.9054576790424E-04
(PID.TID 0000.0001) %MON dynstat_wvel_min             =  -8.4595017462549E-04
(PID.TID 0000.0001) %MON dynstat_wvel_mean            =  -5.6601247063654E-09
(PID.TID 0000.0001) %MON dynstat_wvel_sd              =   1.8276725821639E-04
(PID.TID 0000.0001) %MON dynstat_wvel_del2            =   1.1213298498780E-04
(PID.TID 0000.0001) %MON dynstat_theta_max            =   9.9974083188497E-03
(PID.TID 0000.0001) %MON dynstat_theta_min            =  -2.5707107614825E-03
(PID.TID 0000.0001) %MON dynstat_theta_mean           =   5.0602741138206E-03
(PID.TID 0000.0001) %MON dynstat_theta_sd             =   2.8750255058057E-03
(PID.TID 0000.0001) %MON dynstat_theta_del2           =   1.4399229821264E-03
(PID.TID 0000.0001) %MON dynstat_salt_max             =   3.5000000000000E+01
(PID.TID 0000.0001) %MON dynstat_salt_min             =   3.5000000000000E+01
(PID.TID 0000.0001) %MON dynstat_salt_mean            =   3.5000000000000E+01
(PID.TID 0000.0001) %MON dynstat_salt_sd              =   1.4210854715202E-14
(PID.TID 0000.0001) %MON dynstat_salt_del2            =   0.0000000000000E+00
(PID.TID 0000.0001) %MON advcfl_uvel_max              =   1.5022969820458E-03
(PID.TID 0000.0001) %MON advcfl_vvel_max              =   0.0000000000000E+00
(PID.TID 0000.0001) %MON advcfl_wvel_max              =   5.0757010477530E-03
(PID.TID 0000.0001) %MON advcfl_W_hf_max              =   5.0757010477530E-03
(PID.TID 0000.0001) %MON ke_max                       =   3.0783950688034E-07
(PID.TID 0000.0001) %MON ke_mean                      =   2.5741515111356E-08
(PID.TID 0000.0001) %MON ke_volint                    =   4.4732336554057E+00
(PID.TID 0000.0001) %MON ke_volmean                   =   2.2078209977262E-08
(PID.TID 0000.0001) %MON ke_vol                       =   2.0260852940581E+08
(PID.TID 0000.0001) // =======================================================
(PID.TID 0000.0001) // End MONITOR dynamic field statistics
(PID.TID 0000.0001) // =======================================================
 cg2d: Sum(rhs),rhsMax =   5.31222568935531E-03  4.33932474748558E-04
(PID.TID 0000.0001)                    cg2d_init_res =    2.28003289468761E-03
(PID.TID 0000.0001)                       cg2d_iters =   188
(PID.TID 0000.0001)                         cg2d_res =    4.79629059030548E-14
 cg3d: Sum(rhs),rhsMax =   1.00530694879808E-13  9.36727209770837E-06
(PID.TID 0000.0001)                    cg3d_init_res =    2.38612737817565E-02
(PID.TID 0000.0001)                       cg3d_iters =    20
(PID.TID 0000.0001)                         cg3d_res =    6.16751052544759E-05
(PID.TID 0000.0001) // =======================================================
(PID.TID 0000.0001) // Begin MONITOR dynamic field statistics
(PID.TID 0000.0001) // =======================================================
(PID.TID 0000.0001) %MON time_tsnumber                =                    11
(PID.TID 0000.0001) %MON time_secondsf                =   2.2000000000000E+02
(PID.TID 0000.0001) %MON dynstat_eta_max              =   2.2678305234504E-05
(PID.TID 0000.0001) %MON dynstat_eta_min              =  -2.2122398230591E-05
(PID.TID 0000.0001) %MON dynstat_eta_mean             =  -1.8775134385618E-06
(PID.TID 0000.0001) %MON dynstat_eta_sd               =   7.5837167625446E-06
(PID.TID 0000.0001) %MON dynstat_eta_del2             =   3.0585332963211E-06
(PID.TID 0000.0001) %MON dynstat_uvel_max             =   1.0772285163115E-03
(PID.TID 0000.0001) %MON dynstat_uvel_min             =  -1.0953315869385E-03
(PID.TID 0000.0001) %MON dynstat_uvel_mean            =   4.1256288949086E-07
(PID.TID 0000.0001) %MON dynstat_uvel_sd              =   2.3146265625290E-04
(PID.TID 0000.0001) %MON dynstat_uvel_del2            =   1.3888149275549E-04
(PID.TID 0000.0001) %MON dynstat_vvel_max             =   0.0000000000000E+00
(PID.TID 0000.0001) %MON dynstat_vvel_min             =   0.0000000000000E+00
(PID.TID 0000.0001) %MON dynstat_vvel_mean            =   0.0000000000000E+00
(PID.TID 0000.0001) %MON dynstat_vvel_sd              =   0.0000000000000E+00
(PID.TID 0000.0001) %MON dynstat_vvel_del2            =   0.0000000000000E+00
(PID.TID 0000.0001) %MON dynstat_wvel_max             =   8.7709383843993E-04
(PID.TID 0000.0001) %MON dynstat_wvel_min             =  -9.3871834182611E-04
(PID.TID 0000.0001) %MON dynstat_wvel_mean            =  -7.3489263955241E-09
(PID.TID 0000.0001) %MON dynstat_wvel_sd              =   2.0286741821901E-04
(PID.TID 0000.0001) %MON dynstat_wvel_del2            =   1.2441433059319E-04
(PID.TID 0000.0001) %MON dynstat_theta_max            =   9.9972693814813E-03
(PID.TID 0000.0001) %MON dynstat_theta_min            =  -2.8513347652732E-03
(PID.TID 0000.0001) %MON dynstat_theta_mean           =   5.0596013423452E-03
(PID.TID 0000.0001) %MON dynstat_theta_sd             =   2.8733987629732E-03
(PID.TID 0000.0001) %MON dynstat_theta_del2           =   1.4384714471268E-03
(PID.TID 0000.0001) %MON dynstat_salt_max             =   3.5000000000000E+01
(PID.TID 0000.0001) %MON dynstat_salt_min             =   3.5000000000000E+01
(PID.TID 0000.0001) %MON dynstat_salt_mean            =   3.5000000000000E+01
(PID.TID 0000.0001) %MON dynstat_salt_sd              =   1.4210854715202E-14
(PID.TID 0000.0001) %MON dynstat_salt_del2            =   0.0000000000000E+00
(PID.TID 0000.0001) %MON advcfl_uvel_max              =   1.6428895678658E-03
(PID.TID 0000.0001) %MON advcfl_vvel_max              =   0.0000000000000E+00
(PID.TID 0000.0001) %MON advcfl_wvel_max              =   5.6323100509567E-03
(PID.TID 0000.0001) %MON advcfl_W_hf_max              =   5.6323100509567E-03
(PID.TID 0000.0001) %MON ke_max                       =   3.6785858163061E-07
(PID.TID 0000.0001) %MON ke_mean                      =   3.1040317992364E-08
(PID.TID 0000.0001) %MON ke_volint                    =   5.3989099929049E+00
(PID.TID 0000.0001) %MON ke_volmean                   =   2.6647002516321E-08
(PID.TID 0000.0001) %MON ke_vol                       =   2.0260852940581E+08
(PID.TID 0000.0001) // =======================================================
(PID.TID 0000.0001) // End MONITOR dynamic field statistics
(PID.TID 0000.0001) // =======================================================
 cg2d: Sum(rhs),rhsMax =   7.22280691631672E-03  4.33804738627723E-04
(PID.TID 0000.0001)                    cg2d_init_res =    2.51240913121895E-03
(PID.TID 0000.0001)                       cg2d_iters =   188
(PID.TID 0000.0001)                         cg2d_res =    5.12896610733801E-14
 cg3d: Sum(rhs),rhsMax =   3.61655150271645E-14  9.35584846912248E-06
(PID.TID 0000.0001)                    cg3d_init_res =    2.59311651486054E-02
(PID.TID 0000.0001)                       cg3d_iters =    20
(PID.TID 0000.0001)                         cg3d_res =    7.66162688783493E-05
(PID.TID 0000.0001) // =======================================================
(PID.TID 0000.0001) // Begin MONITOR dynamic field statistics
(PID.TID 0000.0001) // =======================================================
(PID.TID 0000.0001) %MON time_tsnumber                =                    12
(PID.TID 0000.0001) %MON time_secondsf                =   2.4000000000000E+02
(PID.TID 0000.0001) %MON dynstat_eta_max              =   2.1961411175560E-05
(PID.TID 0000.0001) %MON dynstat_eta_min              =  -2.3031995339894E-05
(PID.TID 0000.0001) %MON dynstat_eta_mean             =  -2.5520235647586E-06
(PID.TID 0000.0001) %MON dynstat_eta_sd               =   7.5632060164004E-06
(PID.TID 0000.0001) %MON dynstat_eta_del2             =   3.0593087313098E-06
(PID.TID 0000.0001) %MON dynstat_uvel_max             =   1.1732721750899E-03
(PID.TID 0000.0001) %MON dynstat_uvel_min             =  -1.1879105279881E-03
(PID.TID 0000.0001) %MON dynstat_uvel_mean            =   5.3637392283572E-07
(PID.TID 0000.0001) %MON dynstat_uvel_sd              =   2.5218357223457E-04
(PID.TID 0000.0001) %MON dynstat_uvel_del2            =   1.5121152159949E-04
(PID.TID 0000.0001) %MON dynstat_vvel_max             =   0.0000000000000E+00
(PID.TID 0000.0001) %MON dynstat_vvel_min             =   0.0000000000000E+00
(PID.TID 0000.0001) %MON dynstat_vvel_mean            =   0.0000000000000E+00
(PID.TID 0000.0001) %MON dynstat_vvel_sd              =   0.0000000000000E+00
(PID.TID 0000.0001) %MON dynstat_vvel_del2            =   0.0000000000000E+00
(PID.TID 0000.0001) %MON dynstat_wvel_max             =   9.6336060103242E-04
(PID.TID 0000.0001) %MON dynstat_wvel_min             =  -1.0312327214775E-03
(PID.TID 0000.0001) %MON dynstat_wvel_mean            =  -9.2151216373227E-09
(PID.TID 0000.0001) %MON dynstat_wvel_sd              =   2.2292494514490E-04
(PID.TID 0000.0001) %MON dynstat_wvel_del2            =   1.3665899872535E-04
(PID.TID 0000.0001) %MON dynstat_theta_max            =   9.9971170673334E-03
(PID.TID 0000.0001) %MON dynstat_theta_min            =  -3.1310393025983E-03
(PID.TID 0000.0001) %MON dynstat_theta_mean           =   5.0589284877626E-03
(PID.TID 0000.0001) %MON dynstat_theta_sd             =   2.8716156276561E-03
(PID.TID 0000.0001) %MON dynstat_theta_del2           =   1.4368813706113E-03
(PID.TID 0000.0001) %MON dynstat_salt_max             =   3.5000000000000E+01
(PID.TID 0000.0001) %MON dynstat_salt_min             =   3.5000000000000E+01
(PID.TID 0000.0001) %MON dynstat_salt_mean            =   3.5000000000000E+01
(PID.TID 0000.0001) %MON dynstat_salt_sd              =   1.4210854715202E-14
(PID.TID 0000.0001) %MON dynstat_salt_del2            =   0.0000000000000E+00
(PID.TID 0000.0001) %MON advcfl_uvel_max              =   1.7817488669750E-03
(PID.TID 0000.0001) %MON advcfl_vvel_max              =   0.0000000000000E+00
(PID.TID 0000.0001) %MON advcfl_wvel_max              =   6.1873963288648E-03
(PID.TID 0000.0001) %MON advcfl_W_hf_max              =   6.1873963288648E-03
(PID.TID 0000.0001) %MON ke_max                       =   4.3233667952982E-07
(PID.TID 0000.0001) %MON ke_mean                      =   3.6813788686316E-08
(PID.TID 0000.0001) %MON ke_volint                    =   6.4088246812142E+00
(PID.TID 0000.0001) %MON ke_volmean                   =   3.1631564080788E-08
(PID.TID 0000.0001) %MON ke_vol                       =   2.0260852940581E+08
(PID.TID 0000.0001) // =======================================================
(PID.TID 0000.0001) // End MONITOR dynamic field statistics
(PID.TID 0000.0001) // =======================================================
 cg2d: Sum(rhs),rhsMax =   9.53794387904124E-03  4.33664404890194E-04
(PID.TID 0000.0001)                    cg2d_init_res =    2.75966450478659E-03
(PID.TID 0000.0001)                       cg2d_iters =   188
(PID.TID 0000.0001)                         cg2d_res =    5.41614162544815E-14
 cg3d: Sum(rhs),rhsMax =  -1.11577413974828E-14  9.34341050975269E-06
(PID.TID 0000.0001)                    cg3d_init_res =    2.80477823965983E-02
(PID.TID 0000.0001)                       cg3d_iters =    20
(PID.TID 0000.0001)                         cg3d_res =    9.44874616059863E-05
(PID.TID 0000.0001) // =======================================================
(PID.TID 0000.0001) // Begin MONITOR dynamic field statistics
(PID.TID 0000.0001) // =======================================================
(PID.TID 0000.0001) %MON time_tsnumber                =                    13
(PID.TID 0000.0001) %MON time_secondsf                =   2.6000000000000E+02
(PID.TID 0000.0001) %MON dynstat_eta_max              =   2.1097587095336E-05
(PID.TID 0000.0001) %MON dynstat_eta_min              =  -2.4079255382279E-05
(PID.TID 0000.0001) %MON dynstat_eta_mean             =  -3.3689372575015E-06
(PID.TID 0000.0001) %MON dynstat_eta_sd               =   7.5531881088941E-06
(PID.TID 0000.0001) %MON dynstat_eta_del2             =   3.0601911232356E-06
(PID.TID 0000.0001) %MON dynstat_uvel_max             =   1.2690319454928E-03
(PID.TID 0000.0001) %MON dynstat_uvel_min             =  -1.2793458392350E-03
(PID.TID 0000.0001) %MON dynstat_uvel_mean            =   6.8710952721727E-07
(PID.TID 0000.0001) %MON dynstat_uvel_sd              =   2.7284997005031E-04
(PID.TID 0000.0001) %MON dynstat_uvel_del2            =   1.6349195311392E-04
(PID.TID 0000.0001) %MON dynstat_vvel_max             =   0.0000000000000E+00
(PID.TID 0000.0001) %MON dynstat_vvel_min             =   0.0000000000000E+00
(PID.TID 0000.0001) %MON dynstat_vvel_mean            =   0.0000000000000E+00
(PID.TID 0000.0001) %MON dynstat_vvel_sd              =   0.0000000000000E+00
(PID.TID 0000.0001) %MON dynstat_vvel_del2            =   0.0000000000000E+00
(PID.TID 0000.0001) %MON dynstat_wvel_max             =   1.0493401197927E-03
(PID.TID 0000.0001) %MON dynstat_wvel_min             =  -1.1234906651791E-03
(PID.TID 0000.0001) %MON dynstat_wvel_mean            =  -1.1248670374321E-08
(PID.TID 0000.0001) %MON dynstat_wvel_sd              =   2.4293952812846E-04
(PID.TID 0000.0001) %MON dynstat_wvel_del2            =   1.4886678086266E-04
(PID.TID 0000.0001) %MON dynstat_theta_max            =   9.9969515652256E-03
(PID.TID 0000.0001) %MON dynstat_theta_min            =  -3.4098313732858E-03
(PID.TID 0000.0001) %MON dynstat_theta_mean           =   5.0582555421422E-03
(PID.TID 0000.0001) %MON dynstat_theta_sd             =   2.8696811445821E-03
(PID.TID 0000.0001) %MON dynstat_theta_del2           =   1.4351560501094E-03
(PID.TID 0000.0001) %MON dynstat_salt_max             =   3.5000000000000E+01
(PID.TID 0000.0001) %MON dynstat_salt_min             =   3.5000000000000E+01
(PID.TID 0000.0001) %MON dynstat_salt_mean            =   3.5000000000000E+01
(PID.TID 0000.0001) %MON dynstat_salt_sd              =   1.4210854715202E-14
(PID.TID 0000.0001) %MON dynstat_salt_del2            =   0.0000000000000E+00
(PID.TID 0000.0001) %MON advcfl_uvel_max              =   1.9188928339466E-03
(PID.TID 0000.0001) %MON advcfl_vvel_max              =   0.0000000000000E+00
(PID.TID 0000.0001) %MON advcfl_wvel_max              =   6.7409439910744E-03
(PID.TID 0000.0001) %MON advcfl_W_hf_max              =   6.7409439910744E-03
(PID.TID 0000.0001) %MON ke_max                       =   5.0107726389198E-07
(PID.TID 0000.0001) %MON ke_mean                      =   4.3056788398844E-08
(PID.TID 0000.0001) %MON ke_volint                    =   7.5022825598355E+00
(PID.TID 0000.0001) %MON ke_volmean                   =   3.7028463618177E-08
(PID.TID 0000.0001) %MON ke_vol                       =   2.0260852940581E+08
(PID.TID 0000.0001) // =======================================================
(PID.TID 0000.0001) // End MONITOR dynamic field statistics
(PID.TID 0000.0001) // =======================================================
 cg2d: Sum(rhs),rhsMax =   1.22898945567603E-02  4.33511661801640E-04
(PID.TID 0000.0001)                    cg2d_init_res =    2.98302170375678E-03
(PID.TID 0000.0001)                       cg2d_iters =   188
(PID.TID 0000.0001)                         cg2d_res =    5.70782351848418E-14
 cg3d: Sum(rhs),rhsMax =  -2.75057754350883E-14  9.32996968600136E-06
(PID.TID 0000.0001)                    cg3d_init_res =    3.01032373515851E-02
(PID.TID 0000.0001)                       cg3d_iters =    20
(PID.TID 0000.0001)                         cg3d_res =    1.20159597584631E-04
(PID.TID 0000.0001) // =======================================================
(PID.TID 0000.0001) // Begin MONITOR dynamic field statistics
(PID.TID 0000.0001) // =======================================================
(PID.TID 0000.0001) %MON time_tsnumber                =                    14
(PID.TID 0000.0001) %MON time_secondsf                =   2.8000000000000E+02
(PID.TID 0000.0001) %MON dynstat_eta_max              =   2.0091559489801E-05
(PID.TID 0000.0001) %MON dynstat_eta_min              =  -2.5255990010905E-05
(PID.TID 0000.0001) %MON dynstat_eta_mean             =  -4.3394363733876E-06
(PID.TID 0000.0001) %MON dynstat_eta_sd               =   7.5537101582923E-06
(PID.TID 0000.0001) %MON dynstat_eta_del2             =   3.0611862854554E-06
(PID.TID 0000.0001) %MON dynstat_uvel_max             =   1.3645037516333E-03
(PID.TID 0000.0001) %MON dynstat_uvel_min             =  -1.3696566780605E-03
(PID.TID 0000.0001) %MON dynstat_uvel_mean            =   8.6226456972438E-07
(PID.TID 0000.0001) %MON dynstat_uvel_sd              =   2.9346154272670E-04
(PID.TID 0000.0001) %MON dynstat_uvel_del2            =   1.7572250199121E-04
(PID.TID 0000.0001) %MON dynstat_vvel_max             =   0.0000000000000E+00
(PID.TID 0000.0001) %MON dynstat_vvel_min             =   0.0000000000000E+00
(PID.TID 0000.0001) %MON dynstat_vvel_mean            =   0.0000000000000E+00
(PID.TID 0000.0001) %MON dynstat_vvel_sd              =   0.0000000000000E+00
(PID.TID 0000.0001) %MON dynstat_vvel_del2            =   0.0000000000000E+00
(PID.TID 0000.0001) %MON dynstat_wvel_max             =   1.1350261637502E-03
(PID.TID 0000.0001) %MON dynstat_wvel_min             =  -1.2154857181239E-03
(PID.TID 0000.0001) %MON dynstat_wvel_mean            =  -1.3442297971904E-08
(PID.TID 0000.0001) %MON dynstat_wvel_sd              =   2.6291082824220E-04
(PID.TID 0000.0001) %MON dynstat_wvel_del2            =   1.6103744887955E-04
(PID.TID 0000.0001) %MON dynstat_theta_max            =   9.9967730744711E-03
(PID.TID 0000.0001) %MON dynstat_theta_min            =  -3.6877179967978E-03
(PID.TID 0000.0001) %MON dynstat_theta_mean           =   5.0575824975673E-03
(PID.TID 0000.0001) %MON dynstat_theta_sd             =   2.8675978200845E-03
(PID.TID 0000.0001) %MON dynstat_theta_del2           =   1.4332934326102E-03
(PID.TID 0000.0001) %MON dynstat_salt_max             =   3.5000000000000E+01
(PID.TID 0000.0001) %MON dynstat_salt_min             =   3.5000000000000E+01
(PID.TID 0000.0001) %MON dynstat_salt_mean            =   3.5000000000000E+01
(PID.TID 0000.0001) %MON dynstat_salt_sd              =   1.4210854715202E-14
(PID.TID 0000.0001) %MON dynstat_salt_del2            =   0.0000000000000E+00
(PID.TID 0000.0001) %MON advcfl_uvel_max              =   2.0543502029671E-03
(PID.TID 0000.0001) %MON advcfl_vvel_max              =   0.0000000000000E+00
(PID.TID 0000.0001) %MON advcfl_wvel_max              =   7.2929143087436E-03
(PID.TID 0000.0001) %MON advcfl_W_hf_max              =   7.2929143087436E-03
(PID.TID 0000.0001) %MON ke_max                       =   5.7389166078699E-07
(PID.TID 0000.0001) %MON ke_mean                      =   4.9764192024594E-08
(PID.TID 0000.0001) %MON ke_volint                    =   8.6785862505293E+00
(PID.TID 0000.0001) %MON ke_volmean                   =   4.2834259130061E-08
(PID.TID 0000.0001) %MON ke_vol                       =   2.0260852940581E+08
(PID.TID 0000.0001) // =======================================================
(PID.TID 0000.0001) // End MONITOR dynamic field statistics
(PID.TID 0000.0001) // =======================================================
 cg2d: Sum(rhs),rhsMax =   1.55091569366724E-02  4.33346438185905E-04
(PID.TID 0000.0001)                    cg2d_init_res =    3.21439442102285E-03
(PID.TID 0000.0001)                       cg2d_iters =   188
(PID.TID 0000.0001)                         cg2d_res =    6.06126123803088E-14
 cg3d: Sum(rhs),rhsMax =   5.09314812546791E-14  9.31553761731321E-06
(PID.TID 0000.0001)                    cg3d_init_res =    3.21790413519273E-02
(PID.TID 0000.0001)                       cg3d_iters =    20
(PID.TID 0000.0001)                         cg3d_res =    1.62967090916769E-04
(PID.TID 0000.0001) // =======================================================
(PID.TID 0000.0001) // Begin MONITOR dynamic field statistics
(PID.TID 0000.0001) // =======================================================
(PID.TID 0000.0001) %MON time_tsnumber                =                    15
(PID.TID 0000.0001) %MON time_secondsf                =   3.0000000000000E+02
(PID.TID 0000.0001) %MON dynstat_eta_max              =   1.8941835431559E-05
(PID.TID 0000.0001) %MON dynstat_eta_min              =  -2.6557161348269E-05
(PID.TID 0000.0001) %MON dynstat_eta_mean             =  -5.4740379664785E-06
(PID.TID 0000.0001) %MON dynstat_eta_sd               =   7.5620794980180E-06
(PID.TID 0000.0001) %MON dynstat_eta_del2             =   3.0622980793749E-06
(PID.TID 0000.0001) %MON dynstat_uvel_max             =   1.4596810258378E-03
(PID.TID 0000.0001) %MON dynstat_uvel_min             =  -1.4588669141025E-03
(PID.TID 0000.0001) %MON dynstat_uvel_mean            =   1.0581096860313E-06
(PID.TID 0000.0001) %MON dynstat_uvel_sd              =   3.1401796872140E-04
(PID.TID 0000.0001) %MON dynstat_uvel_del2            =   1.8790292828718E-04
(PID.TID 0000.0001) %MON dynstat_vvel_max             =   0.0000000000000E+00
(PID.TID 0000.0001) %MON dynstat_vvel_min             =   0.0000000000000E+00
(PID.TID 0000.0001) %MON dynstat_vvel_mean            =   0.0000000000000E+00
(PID.TID 0000.0001) %MON dynstat_vvel_sd              =   0.0000000000000E+00
(PID.TID 0000.0001) %MON dynstat_vvel_del2            =   0.0000000000000E+00
(PID.TID 0000.0001) %MON dynstat_wvel_max             =   1.2204123286400E-03
(PID.TID 0000.0001) %MON dynstat_wvel_min             =  -1.3072165711754E-03
(PID.TID 0000.0001) %MON dynstat_wvel_mean            =  -1.5791350935569E-08
(PID.TID 0000.0001) %MON dynstat_wvel_sd              =   2.8283853932951E-04
(PID.TID 0000.0001) %MON dynstat_wvel_del2            =   1.7317071678886E-04
(PID.TID 0000.0001) %MON dynstat_theta_max            =   9.9965818030140E-03
(PID.TID 0000.0001) %MON dynstat_theta_min            =  -3.9647061274356E-03
(PID.TID 0000.0001) %MON dynstat_theta_mean           =   5.0569093461622E-03
(PID.TID 0000.0001) %MON dynstat_theta_sd             =   2.8653681985459E-03
(PID.TID 0000.0001) %MON dynstat_theta_del2           =   1.4312976574050E-03
(PID.TID 0000.0001) %MON dynstat_salt_max             =   3.5000000000000E+01
(PID.TID 0000.0001) %MON dynstat_salt_min             =   3.5000000000000E+01
(PID.TID 0000.0001) %MON dynstat_salt_mean            =   3.5000000000000E+01
(PID.TID 0000.0001) %MON dynstat_salt_sd              =   1.4210854715202E-14
(PID.TID 0000.0001) %MON dynstat_salt_del2            =   0.0000000000000E+00
(PID.TID 0000.0001) %MON advcfl_uvel_max              =   2.1881567761436E-03
(PID.TID 0000.0001) %MON advcfl_vvel_max              =   0.0000000000000E+00
(PID.TID 0000.0001) %MON advcfl_wvel_max              =   7.8432994270525E-03
(PID.TID 0000.0001) %MON advcfl_W_hf_max              =   7.8432994270525E-03
(PID.TID 0000.0001) %MON ke_max                       =   6.5059887784167E-07
(PID.TID 0000.0001) %MON ke_mean                      =   5.6930870466237E-08
(PID.TID 0000.0001) %MON ke_volint                    =   9.9370339342811E+00
(PID.TID 0000.0001) %MON ke_volmean                   =   4.9045486700008E-08
(PID.TID 0000.0001) %MON ke_vol                       =   2.0260852940581E+08
(PID.TID 0000.0001) // =======================================================
(PID.TID 0000.0001) // End MONITOR dynamic field statistics
(PID.TID 0000.0001) // =======================================================
 cg2d: Sum(rhs),rhsMax =   1.92254565692147E-02  4.33168633512255E-04
(PID.TID 0000.0001)                    cg2d_init_res =    3.46542957987602E-03
(PID.TID 0000.0001)                       cg2d_iters =   188
(PID.TID 0000.0001)                         cg2d_res =    6.18155899996806E-14
 cg3d: Sum(rhs),rhsMax =  -1.15976672709905E-13  9.30012604153748E-06
(PID.TID 0000.0001)                    cg3d_init_res =    3.43015789961367E-02
(PID.TID 0000.0001)                       cg3d_iters =    20
(PID.TID 0000.0001)                         cg3d_res =    2.80058039601134E-04
(PID.TID 0000.0001) // =======================================================
(PID.TID 0000.0001) // Begin MONITOR dynamic field statistics
(PID.TID 0000.0001) // =======================================================
(PID.TID 0000.0001) %MON time_tsnumber                =                    16
(PID.TID 0000.0001) %MON time_secondsf                =   3.2000000000000E+02
(PID.TID 0000.0001) %MON dynstat_eta_max              =   1.7640415584101E-05
(PID.TID 0000.0001) %MON dynstat_eta_min              =  -2.7982909882229E-05
(PID.TID 0000.0001) %MON dynstat_eta_mean             =  -6.7829411128443E-06
(PID.TID 0000.0001) %MON dynstat_eta_sd               =   7.5748599946597E-06
(PID.TID 0000.0001) %MON dynstat_eta_del2             =   3.0635193937611E-06
(PID.TID 0000.0001) %MON dynstat_uvel_max             =   1.5545549447531E-03
(PID.TID 0000.0001) %MON dynstat_uvel_min             =  -1.5470018355782E-03
(PID.TID 0000.0001) %MON dynstat_uvel_mean            =   1.2699310565613E-06
(PID.TID 0000.0001) %MON dynstat_uvel_sd              =   3.3451893963741E-04
(PID.TID 0000.0001) %MON dynstat_uvel_del2            =   2.0003306302114E-04
(PID.TID 0000.0001) %MON dynstat_vvel_max             =   0.0000000000000E+00
(PID.TID 0000.0001) %MON dynstat_vvel_min             =   0.0000000000000E+00
(PID.TID 0000.0001) %MON dynstat_vvel_mean            =   0.0000000000000E+00
(PID.TID 0000.0001) %MON dynstat_vvel_sd              =   0.0000000000000E+00
(PID.TID 0000.0001) %MON dynstat_vvel_del2            =   0.0000000000000E+00
(PID.TID 0000.0001) %MON dynstat_wvel_max             =   1.3054920600002E-03
(PID.TID 0000.0001) %MON dynstat_wvel_min             =  -1.3986805361942E-03
(PID.TID 0000.0001) %MON dynstat_wvel_mean            =  -1.8293437275577E-08
(PID.TID 0000.0001) %MON dynstat_wvel_sd              =   3.0272234246679E-04
(PID.TID 0000.0001) %MON dynstat_wvel_del2            =   1.8526629629689E-04
(PID.TID 0000.0001) %MON dynstat_theta_max            =   9.9963779643172E-03
(PID.TID 0000.0001) %MON dynstat_theta_min            =  -4.2408025853826E-03
(PID.TID 0000.0001) %MON dynstat_theta_mean           =   5.0562360801172E-03
(PID.TID 0000.0001) %MON dynstat_theta_sd             =   2.8629956761980E-03
(PID.TID 0000.0001) %MON dynstat_theta_del2           =   1.4291680439152E-03
(PID.TID 0000.0001) %MON dynstat_salt_max             =   3.5000000000000E+01
(PID.TID 0000.0001) %MON dynstat_salt_min             =   3.5000000000000E+01
(PID.TID 0000.0001) %MON dynstat_salt_mean            =   3.5000000000000E+01
(PID.TID 0000.0001) %MON dynstat_salt_sd              =   1.4210854715202E-14
(PID.TID 0000.0001) %MON dynstat_salt_del2            =   0.0000000000000E+00
(PID.TID 0000.0001) %MON advcfl_uvel_max              =   2.3203504833130E-03
(PID.TID 0000.0001) %MON advcfl_vvel_max              =   0.0000000000000E+00
(PID.TID 0000.0001) %MON advcfl_wvel_max              =   8.3920832171653E-03
(PID.TID 0000.0001) %MON advcfl_W_hf_max              =   8.3920832171653E-03
(PID.TID 0000.0001) %MON ke_max                       =   7.3102464723073E-07
(PID.TID 0000.0001) %MON ke_mean                      =   6.4551704349020E-08
(PID.TID 0000.0001) %MON ke_volint                    =   1.1276920633198E+01
(PID.TID 0000.0001) %MON ke_volmean                   =   5.5658666820540E-08
(PID.TID 0000.0001) %MON ke_vol                       =   2.0260852940581E+08
(PID.TID 0000.0001) // =======================================================
(PID.TID 0000.0001) // End MONITOR dynamic field statistics
(PID.TID 0000.0001) // =======================================================
 cg2d: Sum(rhs),rhsMax =   2.34737953975070E-02  4.32978086365058E-04
(PID.TID 0000.0001)                    cg2d_init_res =    3.64521032665144E-03
(PID.TID 0000.0001)                       cg2d_iters =   188
(PID.TID 0000.0001)                         cg2d_res =    6.77063009230766E-14
 cg3d: Sum(rhs),rhsMax =  -9.75608482889356E-15  9.28435963967901E-06
(PID.TID 0000.0001)                    cg3d_init_res =    3.63557342372272E-02
(PID.TID 0000.0001)                       cg3d_iters =    20
(PID.TID 0000.0001)                         cg3d_res =    5.96275068871568E-05
(PID.TID 0000.0001) // =======================================================
(PID.TID 0000.0001) // Begin MONITOR dynamic field statistics
(PID.TID 0000.0001) // =======================================================
(PID.TID 0000.0001) %MON time_tsnumber                =                    17
(PID.TID 0000.0001) %MON time_secondsf                =   3.4000000000000E+02
(PID.TID 0000.0001) %MON dynstat_eta_max              =   1.6172522642261E-05
(PID.TID 0000.0001) %MON dynstat_eta_min              =  -2.9540826889724E-05
(PID.TID 0000.0001) %MON dynstat_eta_mean             =  -8.2781561620946E-06
(PID.TID 0000.0001) %MON dynstat_eta_sd               =   7.5896248739818E-06
(PID.TID 0000.0001) %MON dynstat_eta_del2             =   3.0648540405895E-06
(PID.TID 0000.0001) %MON dynstat_uvel_max             =   1.6491001920698E-03
(PID.TID 0000.0001) %MON dynstat_uvel_min             =  -1.6340868199100E-03
(PID.TID 0000.0001) %MON dynstat_uvel_mean            =   1.4928985836547E-06
(PID.TID 0000.0001) %MON dynstat_uvel_sd              =   3.5496414036134E-04
(PID.TID 0000.0001) %MON dynstat_uvel_del2            =   2.1211279389065E-04
(PID.TID 0000.0001) %MON dynstat_vvel_max             =   0.0000000000000E+00
(PID.TID 0000.0001) %MON dynstat_vvel_min             =   0.0000000000000E+00
(PID.TID 0000.0001) %MON dynstat_vvel_mean            =   0.0000000000000E+00
(PID.TID 0000.0001) %MON dynstat_vvel_sd              =   0.0000000000000E+00
(PID.TID 0000.0001) %MON dynstat_vvel_del2            =   0.0000000000000E+00
(PID.TID 0000.0001) %MON dynstat_wvel_max             =   1.3902595661259E-03
(PID.TID 0000.0001) %MON dynstat_wvel_min             =  -1.4898684898544E-03
(PID.TID 0000.0001) %MON dynstat_wvel_mean            =  -2.1023093375988E-08
(PID.TID 0000.0001) %MON dynstat_wvel_sd              =   3.2256187528021E-04
(PID.TID 0000.0001) %MON dynstat_wvel_del2            =   1.9732406060699E-04
(PID.TID 0000.0001) %MON dynstat_theta_max            =   9.9961617734419E-03
(PID.TID 0000.0001) %MON dynstat_theta_min            =  -4.5354047629423E-03
(PID.TID 0000.0001) %MON dynstat_theta_mean           =   5.0555626917100E-03
(PID.TID 0000.0001) %MON dynstat_theta_sd             =   2.8604804541179E-03
(PID.TID 0000.0001) %MON dynstat_theta_del2           =   1.4269063659225E-03
(PID.TID 0000.0001) %MON dynstat_salt_max             =   3.5000000000000E+01
(PID.TID 0000.0001) %MON dynstat_salt_min             =   3.5000000000000E+01
(PID.TID 0000.0001) %MON dynstat_salt_mean            =   3.5000000000000E+01
(PID.TID 0000.0001) %MON dynstat_salt_sd              =   1.4210854715202E-14
(PID.TID 0000.0001) %MON dynstat_salt_del2            =   0.0000000000000E+00
(PID.TID 0000.0001) %MON advcfl_uvel_max              =   2.4509693881109E-03
(PID.TID 0000.0001) %MON advcfl_vvel_max              =   0.0000000000000E+00
(PID.TID 0000.0001) %MON advcfl_wvel_max              =   8.9392109391265E-03
(PID.TID 0000.0001) %MON advcfl_W_hf_max              =   8.9392109391265E-03
(PID.TID 0000.0001) %MON ke_max                       =   8.1702681846621E-07
(PID.TID 0000.0001) %MON ke_mean                      =   7.2621563187736E-08
(PID.TID 0000.0001) %MON ke_volint                    =   1.2697536993609E+01
(PID.TID 0000.0001) %MON ke_volmean                   =   6.2670298386975E-08
(PID.TID 0000.0001) %MON ke_vol                       =   2.0260852940581E+08
(PID.TID 0000.0001) // =======================================================
(PID.TID 0000.0001) // End MONITOR dynamic field statistics
(PID.TID 0000.0001) // =======================================================
 cg2d: Sum(rhs),rhsMax =   2.82704817772093E-02  4.32774952064191E-04
(PID.TID 0000.0001)                    cg2d_init_res =    3.88483585756301E-03
(PID.TID 0000.0001)                       cg2d_iters =   188
(PID.TID 0000.0001)                         cg2d_res =    7.04609516789813E-14
 cg3d: Sum(rhs),rhsMax =  -4.39925873507718E-15  9.26751027106603E-06
(PID.TID 0000.0001)                    cg3d_init_res =    3.84531863772776E-02
(PID.TID 0000.0001)                       cg3d_iters =    20
(PID.TID 0000.0001)                         cg3d_res =    1.04046921823295E-04
(PID.TID 0000.0001) // =======================================================
(PID.TID 0000.0001) // Begin MONITOR dynamic field statistics
(PID.TID 0000.0001) // =======================================================
(PID.TID 0000.0001) %MON time_tsnumber                =                    18
(PID.TID 0000.0001) %MON time_secondsf                =   3.6000000000000E+02
(PID.TID 0000.0001) %MON dynstat_eta_max              =   1.4527115068559E-05
(PID.TID 0000.0001) %MON dynstat_eta_min              =  -3.1242011305412E-05
(PID.TID 0000.0001) %MON dynstat_eta_mean             =  -9.9650552269693E-06
(PID.TID 0000.0001) %MON dynstat_eta_sd               =   7.6059836747470E-06
(PID.TID 0000.0001) %MON dynstat_eta_del2             =   3.0663192805407E-06
(PID.TID 0000.0001) %MON dynstat_uvel_max             =   1.7433148185460E-03
(PID.TID 0000.0001) %MON dynstat_uvel_min             =  -1.7201419703830E-03
(PID.TID 0000.0001) %MON dynstat_uvel_mean            =   1.7223609069325E-06
(PID.TID 0000.0001) %MON dynstat_uvel_sd              =   3.7535324524553E-04
(PID.TID 0000.0001) %MON dynstat_uvel_del2            =   2.2414226621302E-04
(PID.TID 0000.0001) %MON dynstat_vvel_max             =   0.0000000000000E+00
(PID.TID 0000.0001) %MON dynstat_vvel_min             =   0.0000000000000E+00
(PID.TID 0000.0001) %MON dynstat_vvel_mean            =   0.0000000000000E+00
(PID.TID 0000.0001) %MON dynstat_vvel_sd              =   0.0000000000000E+00
(PID.TID 0000.0001) %MON dynstat_vvel_del2            =   0.0000000000000E+00
(PID.TID 0000.0001) %MON dynstat_wvel_max             =   1.4747088957139E-03
(PID.TID 0000.0001) %MON dynstat_wvel_min             =  -1.5807792862081E-03
(PID.TID 0000.0001) %MON dynstat_wvel_mean            =  -2.3984460260233E-08
(PID.TID 0000.0001) %MON dynstat_wvel_sd              =   3.4235701329651E-04
(PID.TID 0000.0001) %MON dynstat_wvel_del2            =   2.0934389896082E-04
(PID.TID 0000.0001) %MON dynstat_theta_max            =   9.9959334457486E-03
(PID.TID 0000.0001) %MON dynstat_theta_min            =  -4.8311305736942E-03
(PID.TID 0000.0001) %MON dynstat_theta_mean           =   5.0548891732141E-03
(PID.TID 0000.0001) %MON dynstat_theta_sd             =   2.8578306294361E-03
(PID.TID 0000.0001) %MON dynstat_theta_del2           =   1.4245153353536E-03
(PID.TID 0000.0001) %MON dynstat_salt_max             =   3.5000000000000E+01
(PID.TID 0000.0001) %MON dynstat_salt_min             =   3.5000000000000E+01
(PID.TID 0000.0001) %MON dynstat_salt_mean            =   3.5000000000000E+01
(PID.TID 0000.0001) %MON dynstat_salt_sd              =   1.4210854715202E-14
(PID.TID 0000.0001) %MON dynstat_salt_del2            =   0.0000000000000E+00
(PID.TID 0000.0001) %MON advcfl_uvel_max              =   2.5800436434863E-03
(PID.TID 0000.0001) %MON advcfl_vvel_max              =   0.0000000000000E+00
(PID.TID 0000.0001) %MON advcfl_wvel_max              =   9.4846757172485E-03
(PID.TID 0000.0001) %MON advcfl_W_hf_max              =   9.4846757172485E-03
(PID.TID 0000.0001) %MON ke_max                       =   9.1046353419660E-07
(PID.TID 0000.0001) %MON ke_mean                      =   8.1135309223446E-08
(PID.TID 0000.0001) %MON ke_volint                    =   1.4198168839936E+01
(PID.TID 0000.0001) %MON ke_volmean                   =   7.0076856495503E-08
(PID.TID 0000.0001) %MON ke_vol                       =   2.0260852940581E+08
(PID.TID 0000.0001) // =======================================================
(PID.TID 0000.0001) // End MONITOR dynamic field statistics
(PID.TID 0000.0001) // =======================================================
 cg2d: Sum(rhs),rhsMax =   3.36424220787338E-02  4.32558814788702E-04
(PID.TID 0000.0001)                    cg2d_init_res =    4.11938979765768E-03
(PID.TID 0000.0001)                       cg2d_iters =   188
(PID.TID 0000.0001)                         cg2d_res =    7.53968242868249E-14
 cg3d: Sum(rhs),rhsMax =  -1.13298259662997E-13  9.24975717040379E-06
(PID.TID 0000.0001)                    cg3d_init_res =    4.05235294429818E-02
(PID.TID 0000.0001)                       cg3d_iters =    20
(PID.TID 0000.0001)                         cg3d_res =    1.95366688012866E-04
(PID.TID 0000.0001) // =======================================================
(PID.TID 0000.0001) // Begin MONITOR dynamic field statistics
(PID.TID 0000.0001) // =======================================================
(PID.TID 0000.0001) %MON time_tsnumber                =                    19
(PID.TID 0000.0001) %MON time_secondsf                =   3.8000000000000E+02
(PID.TID 0000.0001) %MON dynstat_eta_max              =   1.2687928317208E-05
(PID.TID 0000.0001) %MON dynstat_eta_min              =  -3.3104494206190E-05
(PID.TID 0000.0001) %MON dynstat_eta_mean             =  -1.1852686704981E-05
(PID.TID 0000.0001) %MON dynstat_eta_sd               =   7.6251052659852E-06
(PID.TID 0000.0001) %MON dynstat_eta_del2             =   3.0679402027764E-06
(PID.TID 0000.0001) %MON dynstat_uvel_max             =   1.8371926733988E-03
(PID.TID 0000.0001) %MON dynstat_uvel_min             =  -1.8051845134627E-03
(PID.TID 0000.0001) %MON dynstat_uvel_mean            =   1.9543714952485E-06
(PID.TID 0000.0001) %MON dynstat_uvel_sd              =   3.9568594962253E-04
(PID.TID 0000.0001) %MON dynstat_uvel_del2            =   2.3612068480857E-04
(PID.TID 0000.0001) %MON dynstat_vvel_max             =   0.0000000000000E+00
(PID.TID 0000.0001) %MON dynstat_vvel_min             =   0.0000000000000E+00
(PID.TID 0000.0001) %MON dynstat_vvel_mean            =   0.0000000000000E+00
(PID.TID 0000.0001) %MON dynstat_vvel_sd              =   0.0000000000000E+00
(PID.TID 0000.0001) %MON dynstat_vvel_del2            =   0.0000000000000E+00
(PID.TID 0000.0001) %MON dynstat_wvel_max             =   1.5588335325622E-03
(PID.TID 0000.0001) %MON dynstat_wvel_min             =  -1.6714103013920E-03
(PID.TID 0000.0001) %MON dynstat_wvel_mean            =  -2.7180003024704E-08
(PID.TID 0000.0001) %MON dynstat_wvel_sd              =   3.6210730419337E-04
(PID.TID 0000.0001) %MON dynstat_wvel_del2            =   2.2132535016213E-04
(PID.TID 0000.0001) %MON dynstat_theta_max            =   9.9956931950995E-03
(PID.TID 0000.0001) %MON dynstat_theta_min            =  -5.1265830286740E-03
(PID.TID 0000.0001) %MON dynstat_theta_mean           =   5.0542155170940E-03
(PID.TID 0000.0001) %MON dynstat_theta_sd             =   2.8550518381296E-03
(PID.TID 0000.0001) %MON dynstat_theta_del2           =   1.4219980533606E-03
(PID.TID 0000.0001) %MON dynstat_salt_max             =   3.5000000000000E+01
(PID.TID 0000.0001) %MON dynstat_salt_min             =   3.5000000000000E+01
(PID.TID 0000.0001) %MON dynstat_salt_mean            =   3.5000000000000E+01
(PID.TID 0000.0001) %MON dynstat_salt_sd              =   1.4210854715202E-14
(PID.TID 0000.0001) %MON dynstat_salt_del2            =   0.0000000000000E+00
(PID.TID 0000.0001) %MON advcfl_uvel_max              =   2.7081505190971E-03
(PID.TID 0000.0001) %MON advcfl_vvel_max              =   0.0000000000000E+00
(PID.TID 0000.0001) %MON advcfl_wvel_max              =   1.0028461808352E-02
(PID.TID 0000.0001) %MON advcfl_W_hf_max              =   1.0028461808352E-02
(PID.TID 0000.0001) %MON ke_max                       =   1.0082039204531E-06
(PID.TID 0000.0001) %MON ke_mean                      =   9.0087816885791E-08
(PID.TID 0000.0001) %MON ke_volint                    =   1.5778099671436E+01
(PID.TID 0000.0001) %MON ke_volmean                   =   7.7874804766157E-08
(PID.TID 0000.0001) %MON ke_vol                       =   2.0260852940581E+08
(PID.TID 0000.0001) // =======================================================
(PID.TID 0000.0001) // End MONITOR dynamic field statistics
(PID.TID 0000.0001) // =======================================================
 cg2d: Sum(rhs),rhsMax =   3.96182947658130E-02  4.32329652765610E-04
(PID.TID 0000.0001)                    cg2d_init_res =    4.34798081803902E-03
(PID.TID 0000.0001)                       cg2d_iters =   188
(PID.TID 0000.0001)                         cg2d_res =    7.77264654870592E-14
 cg3d: Sum(rhs),rhsMax =  -5.66768854071142E-14  9.23109889175391E-06
(PID.TID 0000.0001)                    cg3d_init_res =    4.25856847631843E-02
(PID.TID 0000.0001)                       cg3d_iters =    20
(PID.TID 0000.0001)                         cg3d_res =    1.32373202142934E-04
(PID.TID 0000.0001) // =======================================================
(PID.TID 0000.0001) // Begin MONITOR dynamic field statistics
(PID.TID 0000.0001) // =======================================================
(PID.TID 0000.0001) %MON time_tsnumber                =                    20
(PID.TID 0000.0001) %MON time_secondsf                =   4.0000000000000E+02
(PID.TID 0000.0001) %MON dynstat_eta_max              =   1.0639606651460E-05
(PID.TID 0000.0001) %MON dynstat_eta_min              =  -3.5150726597744E-05
(PID.TID 0000.0001) %MON dynstat_eta_mean             =  -1.3950673873564E-05
(PID.TID 0000.0001) %MON dynstat_eta_sd               =   7.6491144672095E-06
(PID.TID 0000.0001) %MON dynstat_eta_del2             =   3.0697626944732E-06
(PID.TID 0000.0001) %MON dynstat_uvel_max             =   1.9307312178026E-03
(PID.TID 0000.0001) %MON dynstat_uvel_min             =  -1.8892294022006E-03
(PID.TID 0000.0001) %MON dynstat_uvel_mean            =   2.1862436537056E-06
(PID.TID 0000.0001) %MON dynstat_uvel_sd              =   4.1596196907308E-04
(PID.TID 0000.0001) %MON dynstat_uvel_del2            =   2.4804776624007E-04
(PID.TID 0000.0001) %MON dynstat_vvel_max             =   0.0000000000000E+00
(PID.TID 0000.0001) %MON dynstat_vvel_min             =   0.0000000000000E+00
(PID.TID 0000.0001) %MON dynstat_vvel_mean            =   0.0000000000000E+00
(PID.TID 0000.0001) %MON dynstat_vvel_sd              =   0.0000000000000E+00
(PID.TID 0000.0001) %MON dynstat_vvel_del2            =   0.0000000000000E+00
(PID.TID 0000.0001) %MON dynstat_wvel_max             =   1.6426270150108E-03
(PID.TID 0000.0001) %MON dynstat_wvel_min             =  -1.7617579677184E-03
(PID.TID 0000.0001) %MON dynstat_wvel_mean            =  -3.0610239117018E-08
(PID.TID 0000.0001) %MON dynstat_wvel_sd              =   3.8181240786336E-04
(PID.TID 0000.0001) %MON dynstat_wvel_del2            =   2.3326807262811E-04
(PID.TID 0000.0001) %MON dynstat_theta_max            =   9.9954412346595E-03
(PID.TID 0000.0001) %MON dynstat_theta_min            =  -5.4217620477516E-03
(PID.TID 0000.0001) %MON dynstat_theta_mean           =   5.0535417158145E-03
(PID.TID 0000.0001) %MON dynstat_theta_sd             =   2.8521478109659E-03
(PID.TID 0000.0001) %MON dynstat_theta_del2           =   1.4193589412038E-03
(PID.TID 0000.0001) %MON dynstat_salt_max             =   3.5000000000000E+01
(PID.TID 0000.0001) %MON dynstat_salt_min             =   3.5000000000000E+01
(PID.TID 0000.0001) %MON dynstat_salt_mean            =   3.5000000000000E+01
(PID.TID 0000.0001) %MON dynstat_salt_sd              =   1.4210854715202E-14
(PID.TID 0000.0001) %MON dynstat_salt_del2            =   0.0000000000000E+00
(PID.TID 0000.0001) %MON advcfl_uvel_max              =   2.8460328769197E-03
(PID.TID 0000.0001) %MON advcfl_vvel_max              =   0.0000000000000E+00
(PID.TID 0000.0001) %MON advcfl_wvel_max              =   1.0570547806310E-02
(PID.TID 0000.0001) %MON advcfl_W_hf_max              =   1.0570547806310E-02
(PID.TID 0000.0001) %MON ke_max                       =   1.1101168609693E-06
(PID.TID 0000.0001) %MON ke_mean                      =   9.9473970123182E-08
(PID.TID 0000.0001) %MON ke_volint                    =   1.7436611435172E+01
(PID.TID 0000.0001) %MON ke_volmean                   =   8.6060599157933E-08
(PID.TID 0000.0001) %MON ke_vol                       =   2.0260852940581E+08
(PID.TID 0000.0001) // =======================================================
(PID.TID 0000.0001) // End MONITOR dynamic field statistics
(PID.TID 0000.0001) // =======================================================
(PID.TID 0000.0001)   Seconds in section "ALL                [THE_MODEL_MAIN]":
(PID.TID 0000.0001)           User time:  58.4600012
(PID.TID 0000.0001)         System time:  0.569999993
(PID.TID 0000.0001)     Wall clock time:  59.625653
(PID.TID 0000.0001)          No. starts: 1
(PID.TID 0000.0001)           No. stops: 1
(PID.TID 0000.0001)   Seconds in section "INITIALISE_FIXED   [THE_MODEL_MAIN]":
(PID.TID 0000.0001)           User time:  0.73000001
(PID.TID 0000.0001)         System time:  0.0799999982
(PID.TID 0000.0001)     Wall clock time:  0.840109944
(PID.TID 0000.0001)          No. starts: 1
(PID.TID 0000.0001)           No. stops: 1
(PID.TID 0000.0001)   Seconds in section "THE_MAIN_LOOP      [THE_MODEL_MAIN]":
(PID.TID 0000.0001)           User time:  56.8799989
(PID.TID 0000.0001)         System time:  0.309999987
(PID.TID 0000.0001)     Wall clock time:  57.2966239
(PID.TID 0000.0001)          No. starts: 1
(PID.TID 0000.0001)           No. stops: 1
(PID.TID 0000.0001)   Seconds in section "INITIALISE_VARIA    [THE_MAIN_LOOP]":
(PID.TID 0000.0001)           User time:  0.299999952
(PID.TID 0000.0001)         System time:  0.150000006
(PID.TID 0000.0001)     Wall clock time:  0.459943056
(PID.TID 0000.0001)          No. starts: 1
(PID.TID 0000.0001)           No. stops: 1
(PID.TID 0000.0001)   Seconds in section "WRITE_STATE         [THE_MAIN_LOOP]":
(PID.TID 0000.0001)           User time:  0.0199999809
(PID.TID 0000.0001)         System time:  0.0199999958
(PID.TID 0000.0001)     Wall clock time:  0.0806689262
(PID.TID 0000.0001)          No. starts: 1
(PID.TID 0000.0001)           No. stops: 1
(PID.TID 0000.0001)   Seconds in section "MONITOR             [THE_MAIN_LOOP]":
(PID.TID 0000.0001)           User time:  0.060000062
(PID.TID 0000.0001)         System time:  0.
(PID.TID 0000.0001)     Wall clock time:  0.0581229925
(PID.TID 0000.0001)          No. starts: 1
(PID.TID 0000.0001)           No. stops: 1
(PID.TID 0000.0001)   Seconds in section "MAIN LOOP           [THE_MAIN_LOOP]":
(PID.TID 0000.0001)           User time:  56.4999989
(PID.TID 0000.0001)         System time:  0.139999986
(PID.TID 0000.0001)     Wall clock time:  56.6974089
(PID.TID 0000.0001)          No. starts: 1
(PID.TID 0000.0001)           No. stops: 1
(PID.TID 0000.0001)   Seconds in section "FORWARD_STEP        [THE_MAIN_LOOP]":
(PID.TID 0000.0001)           User time:  56.4999989
(PID.TID 0000.0001)         System time:  0.139999986
(PID.TID 0000.0001)     Wall clock time:  56.695845
(PID.TID 0000.0001)          No. starts: 20
(PID.TID 0000.0001)           No. stops: 20
(PID.TID 0000.0001)   Seconds in section "EXTERNAL_FIELDS_LOAD[THE_MAIN_LOOP]":
(PID.TID 0000.0001)           User time:  0.
(PID.TID 0000.0001)         System time:  0.
(PID.TID 0000.0001)     Wall clock time:  0.00142335892
(PID.TID 0000.0001)          No. starts: 20
(PID.TID 0000.0001)           No. stops: 20
(PID.TID 0000.0001)   Seconds in section "THERMODYNAMICS      [THE_MAIN_LOOP]":
(PID.TID 0000.0001)           User time:  17.2200009
(PID.TID 0000.0001)         System time:  0.0600000024
(PID.TID 0000.0001)     Wall clock time:  17.2671843
(PID.TID 0000.0001)          No. starts: 20
(PID.TID 0000.0001)           No. stops: 20
(PID.TID 0000.0001)   Seconds in section "DYNAMICS            [THE_MAIN_LOOP]":
(PID.TID 0000.0001)           User time:  16.1400077
(PID.TID 0000.0001)         System time:  0.0699999928
(PID.TID 0000.0001)     Wall clock time:  16.2138435
(PID.TID 0000.0001)          No. starts: 20
(PID.TID 0000.0001)           No. stops: 20
(PID.TID 0000.0001)   Seconds in section "CALC_GW          [THE_MAIN_LOOP]":
(PID.TID 0000.0001)           User time:  0.84999752
(PID.TID 0000.0001)         System time:  0.
(PID.TID 0000.0001)     Wall clock time:  0.856591225
(PID.TID 0000.0001)          No. starts: 20
(PID.TID 0000.0001)           No. stops: 20
(PID.TID 0000.0001)   Seconds in section "SOLVE_FOR_PRESSURE  [THE_MAIN_LOOP]":
(PID.TID 0000.0001)           User time:  17.8200009
(PID.TID 0000.0001)         System time:  0.00999999046
(PID.TID 0000.0001)     Wall clock time:  17.8509939
(PID.TID 0000.0001)          No. starts: 20
(PID.TID 0000.0001)           No. stops: 20
(PID.TID 0000.0001)   Seconds in section "THE_CORRECTION_STEP [THE_MAIN_LOOP]":
(PID.TID 0000.0001)           User time:  1.11999559
(PID.TID 0000.0001)         System time:  0.
(PID.TID 0000.0001)     Wall clock time:  1.09359097
(PID.TID 0000.0001)          No. starts: 20
(PID.TID 0000.0001)           No. stops: 20
(PID.TID 0000.0001)   Seconds in section "BLOCKING_EXCHANGES  [THE_MAIN_LOOP]":
(PID.TID 0000.0001)           User time:  1.98000145
(PID.TID 0000.0001)         System time:  0.
(PID.TID 0000.0001)     Wall clock time:  1.97531486
(PID.TID 0000.0001)          No. starts: 20
(PID.TID 0000.0001)           No. stops: 20
(PID.TID 0000.0001)   Seconds in section "DO_THE_MODEL_IO     [THE_MAIN_LOOP]":
(PID.TID 0000.0001)           User time:  0.0299987793
(PID.TID 0000.0001)         System time:  0.
(PID.TID 0000.0001)     Wall clock time:  0.091873765
(PID.TID 0000.0001)          No. starts: 20
(PID.TID 0000.0001)           No. stops: 20
(PID.TID 0000.0001)   Seconds in section "WRITE_CHECKPOINT    [THE_MAIN_LOOP]":
(PID.TID 0000.0001)           User time:  0.0100002289
(PID.TID 0000.0001)         System time:  0.
(PID.TID 0000.0001)     Wall clock time:  0.00146389008
(PID.TID 0000.0001)          No. starts: 20
(PID.TID 0000.0001)           No. stops: 20
(PID.TID 0000.0001)   Seconds in section "WRITE_CHECKPOINT   [THE_MODEL_MAIN]":
(PID.TID 0000.0001)           User time:  0.850002289
(PID.TID 0000.0001)         System time:  0.180000007
(PID.TID 0000.0001)     Wall clock time:  1.48853302
(PID.TID 0000.0001)          No. starts: 1
(PID.TID 0000.0001)           No. stops: 1
(PID.TID 0000.0001) // ======================================================
(PID.TID 0000.0001) // Tile <-> Tile communication statistics
(PID.TID 0000.0001) // ======================================================
(PID.TID 0000.0001) // o Tile number: 000001
(PID.TID 0000.0001) //         No. X exchanges =              0
(PID.TID 0000.0001) //            Max. X spins =              0
(PID.TID 0000.0001) //            Min. X spins =     1000000000
(PID.TID 0000.0001) //          Total. X spins =              0
(PID.TID 0000.0001) //            Avg. X spins =       0.00E+00
(PID.TID 0000.0001) //         No. Y exchanges =              0
(PID.TID 0000.0001) //            Max. Y spins =              0
(PID.TID 0000.0001) //            Min. Y spins =     1000000000
(PID.TID 0000.0001) //          Total. Y spins =              0
(PID.TID 0000.0001) //            Avg. Y spins =       0.00E+00
(PID.TID 0000.0001) // o Thread number: 000001
(PID.TID 0000.0001) //            No. barriers =          55764
(PID.TID 0000.0001) //      Max. barrier spins =              1
(PID.TID 0000.0001) //      Min. barrier spins =              1
(PID.TID 0000.0001) //     Total barrier spins =          55764
(PID.TID 0000.0001) //      Avg. barrier spins =       1.00E+00
