(PID.TID 0000.0001) 
(PID.TID 0000.0001) // ======================================================
(PID.TID 0000.0001) //                      MITgcm UV
(PID.TID 0000.0001) //                      =========
(PID.TID 0000.0001) // ======================================================
(PID.TID 0000.0001) // execution environment starting up...
(PID.TID 0000.0001) // Run starting Wed Apr  1 14:19:48 1998
(PID.TID 0000.0001) // on melville.lcs.mit.edu
(PID.TID 0000.0001) // account cnh
(PID.TID 0000.0001) // MITgcm UV Release: $Name:  $
(PID.TID 0000.0001) 
(PID.TID 0000.0001) // =======================================================
(PID.TID 0000.0001) // Execution Environment parameter file "eedata"
(PID.TID 0000.0001) // =======================================================
(PID.TID 0000.0001) ># Example "eedata" file
(PID.TID 0000.0001) ># Lines beginning "#" are comments
(PID.TID 0000.0001) ># nTx - No. threads per process in X
(PID.TID 0000.0001) ># nTy - No. threads per process in Y
(PID.TID 0000.0001) > &EEPARMS
(PID.TID 0000.0001) > &
(PID.TID 0000.0001) ># Note: Some systems use & as the
(PID.TID 0000.0001) ># namelist terminator. Other systems
(PID.TID 0000.0001) ># use a / character (as shown here).
(PID.TID 0000.0001) 
(PID.TID 0000.0001) // =======================================================
(PID.TID 0000.0001) // Computational Grid Specification ( see files "SIZE.h" )
(PID.TID 0000.0001) //                                  ( and "eedata"       )
(PID.TID 0000.0001) // =======================================================
(PID.TID 0000.0001)      nPx =    1 ; /* No. processes in X */
(PID.TID 0000.0001)      nPy =    1 ; /* No. processes in Y */
(PID.TID 0000.0001)      nSx =    1 ; /* No. tiles in X per process */
(PID.TID 0000.0001)      nSy =    1 ; /* No. tiles in Y per process */
(PID.TID 0000.0001)      sNx =  128 ; /* Tile size in X */
(PID.TID 0000.0001)      sNy =   64 ; /* Tile size in Y */
(PID.TID 0000.0001)      OLx =    2 ; /* Tile overlap distance in X */
(PID.TID 0000.0001)      OLy =    2 ; /* Tile overlap distance in Y */
(PID.TID 0000.0001)      nTx =    1 ; /* No. threads in X per process */
(PID.TID 0000.0001)      nTy =    1 ; /* No. threads in Y per process */
(PID.TID 0000.0001)       Nr =    5 ; /* No. levels in the vertical   */
(PID.TID 0000.0001)       nX =  128 ; /* Total domain size in X ( = nPx*nSx*sNx ) */
(PID.TID 0000.0001)       nY =   64 ; /* Total domain size in Y ( = nPy*nSy*sNy ) */
(PID.TID 0000.0001)   nTiles =    1 ; /* Total no. tiles per process ( = nSx*nSy ) */
(PID.TID 0000.0001)   nProcs =    1 ; /* Total no. processes ( = nPx*nPy ) */
(PID.TID 0000.0001) nThreads =    1 ; /* Total no. threads per process ( = nTx*nTy ) */
(PID.TID 0000.0001) usingMPI =    F ; /* Flag used to control whether MPI is in use */
(PID.TID 0000.0001)                   /*  note: To execute a program with MPI calls */
(PID.TID 0000.0001)                   /*  it must be launched appropriately e.g     */
(PID.TID 0000.0001)                   /*  "mpirun -np 64 ......"                    */
(PID.TID 0000.0001) 
(PID.TID 0000.0001) // ======================================================
(PID.TID 0000.0001) // Mapping of tiles to threads
(PID.TID 0000.0001) // ======================================================
(PID.TID 0000.0001) // -o- Thread   1, tiles (   1:   1,   1:   1)
(PID.TID 0000.0001) 
(PID.TID 0000.0001) // ======================================================
(PID.TID 0000.0001) // Tile <-> Tile connectvity table
(PID.TID 0000.0001) // ======================================================
(PID.TID 0000.0001) // Tile number: 000001 (process no. = 000001)
(PID.TID 0000.0001) //        WEST: Tile = 000001, Process = 000001, Comm = put
(PID.TID 0000.0001) //                bi = 000001, bj = 000001
(PID.TID 0000.0001) //        EAST: Tile = 000001, Process = 000001, Comm = put
(PID.TID 0000.0001) //                bi = 000001, bj = 000001
(PID.TID 0000.0001) //       SOUTH: Tile = 000001, Process = 000001, Comm = put
(PID.TID 0000.0001) //                bi = 000001, bj = 000001
(PID.TID 0000.0001) //       NORTH: Tile = 000001, Process = 000001, Comm = put
(PID.TID 0000.0001) //                bi = 000001, bj = 000001
(PID.TID 0000.0001) 
(PID.TID 0000.0001) // =======================================================
(PID.TID 0000.0001) // Model parameter file "data"
(PID.TID 0000.0001) // =======================================================
(PID.TID 0000.0001) ># ====================
(PID.TID 0000.0001) ># | Model parameters |
(PID.TID 0000.0001) ># ====================
(PID.TID 0000.0001) >#
(PID.TID 0000.0001) ># Continuous equation parameters
(PID.TID 0000.0001) > &PARM01
(PID.TID 0000.0001) > tRef=281.089, 289.321, 307.191, 331.377, 432.413,
(PID.TID 0000.0001) > sRef=5*0.,
(PID.TID 0000.0001) > viscAr=0.E1,
(PID.TID 0000.0001) > viscAh=0.E6,
(PID.TID 0000.0001) > viscA4=0.E17,
(PID.TID 0000.0001) > no_slip_sides=.FALSE.,
(PID.TID 0000.0001) > no_slip_bottom=.FALSE.,
(PID.TID 0000.0001) > diffKhT=0.E3,
(PID.TID 0000.0001) > diffKrT=0.,
(PID.TID 0000.0001) > diffK4T=0.E17,
(PID.TID 0000.0001) > diffKrS=0.E2,
(PID.TID 0000.0001) > diffKhS=0.E3,
(PID.TID 0000.0001) > diffK4S=0.E17,
(PID.TID 0000.0001) > buoyancyRelation='ATMOSPHERIC',
(PID.TID 0000.0001) > eosType='IDEALGAS',
(PID.TID 0000.0001) > gravity=9.81,
(PID.TID 0000.0001) > rhonil=1.0,
(PID.TID 0000.0001) > rhoConst=1.0,
(PID.TID 0000.0001) > rigidLid=.FALSE.,
(PID.TID 0000.0001) > implicitFreeSurface=.TRUE.,
(PID.TID 0000.0001) > exactConserv=.TRUE.,
(PID.TID 0000.0001) >#uniformLin_PhiSurf=.FALSE.,
(PID.TID 0000.0001) > staggerTimeStep=.TRUE.,
(PID.TID 0000.0001) > readBinaryPrec=64,
(PID.TID 0000.0001) > writeBinaryPrec=64,
(PID.TID 0000.0001) > hFacMin=1.0,
(PID.TID 0000.0001) > &
(PID.TID 0000.0001) >
(PID.TID 0000.0001) ># Elliptic solver parameters
(PID.TID 0000.0001) > &PARM02
(PID.TID 0000.0001) > cg2dMaxIters=200,
(PID.TID 0000.0001) > cg2dTargetResWunit=1.E-17,
(PID.TID 0000.0001) > &
(PID.TID 0000.0001) >
(PID.TID 0000.0001) ># Time stepping parameters
(PID.TID 0000.0001) > &PARM03
(PID.TID 0000.0001) > niter0=0,
(PID.TID 0000.0001) > nTimeSteps=10,
(PID.TID 0000.0001) >#endTime=31104000.,
(PID.TID 0000.0001) > deltaT=450.0,
(PID.TID 0000.0001) > abEps=0.1,
(PID.TID 0000.0001) > cAdjFreq=0.,
(PID.TID 0000.0001) > chkptFreq=0.0,
(PID.TID 0000.0001) > pChkptFreq=2592000.0,
(PID.TID 0000.0001) > dumpFreq=2592000.0,
(PID.TID 0000.0001) >#taveFreq=2592000.0.,
(PID.TID 0000.0001) >#monitorFreq=86400.,
(PID.TID 0000.0001) > monitorFreq=1.,
(PID.TID 0000.0001) > &
(PID.TID 0000.0001) >
(PID.TID 0000.0001) ># Gridding parameters
(PID.TID 0000.0001) > &PARM04
(PID.TID 0000.0001) > usingCartesianGrid=.FALSE.,
(PID.TID 0000.0001) > usingSphericalPolarGrid=.TRUE.,
(PID.TID 0000.0001) > delX=128*2.8125,
(PID.TID 0000.0001) > delY=64*2.8125,
(PID.TID 0000.0001) > delR=1.E4, 2.5E4, 3.E4, 2.E4, 1.5E4,
(PID.TID 0000.0001) > Ro_SeaLevel=1.E5,
(PID.TID 0000.0001) > groundAtK1=.TRUE.,
(PID.TID 0000.0001) > phiMin=-90.,
(PID.TID 0000.0001) > rSphere=6370.E3,
(PID.TID 0000.0001) > &
(PID.TID 0000.0001) >
(PID.TID 0000.0001) ># Input datasets
(PID.TID 0000.0001) > &PARM05
(PID.TID 0000.0001) > &
(PID.TID 0000.0001) 
(PID.TID 0000.0001) S/R INI_PARMS ; read PARM01 : OK
(PID.TID 0000.0001) S/R INI_PARMS ; read PARM02 : OK
(PID.TID 0000.0001) S/R INI_PARMS ; read PARM03 : OK
(PID.TID 0000.0001) S/R INI_PARMS ; read PARM04 : OK
(PID.TID 0000.0001) S/R INI_PARMS ; read PARM05 : OK
(PID.TID 0000.0001) %MON XC_max                       =   3.5859375000000E+02
(PID.TID 0000.0001) %MON XC_min                       =   1.4062500000000E+00
(PID.TID 0000.0001) %MON XC_mean                      =   1.8000000000000E+02
(PID.TID 0000.0001) %MON XC_sd                        =   1.0391987692599E+02
(PID.TID 0000.0001) %MON XG_max                       =   3.5718750000000E+02
(PID.TID 0000.0001) %MON XG_min                       =   2.8125000000000E+00
(PID.TID 0000.0001) %MON XG_mean                      =   1.8000000000000E+02
(PID.TID 0000.0001) %MON XG_sd                        =   1.0310795313651E+02
(PID.TID 0000.0001) %MON DXC_max                      =   3.1259246843155E+05
(PID.TID 0000.0001) %MON DXC_min                      =   7.6737143816223E+03
(PID.TID 0000.0001) %MON DXC_mean                     =   1.9908248704234E+05
(PID.TID 0000.0001) %MON DXC_sd                       =   9.6190602240068E+04
(PID.TID 0000.0001) %MON DXF_max                      =   3.1259246843155E+05
(PID.TID 0000.0001) %MON DXF_min                      =   7.6737143816223E+03
(PID.TID 0000.0001) %MON DXF_mean                     =   1.9908248704234E+05
(PID.TID 0000.0001) %MON DXF_sd                       =   9.6190602240068E+04
(PID.TID 0000.0001) %MON DXG_max                      =   3.1268664380261E+05
(PID.TID 0000.0001) %MON DXG_min                      =   1.5342806404640E+04
(PID.TID 0000.0001) %MON DXG_mean                     =   2.0218161485138E+05
(PID.TID 0000.0001) %MON DXG_sd                       =   9.3728538420912E+04
(PID.TID 0000.0001) %MON DXV_max                      =   3.1268664380261E+05
(PID.TID 0000.0001) %MON DXV_min                      =   1.5342806404640E+04
(PID.TID 0000.0001) %MON DXV_mean                     =   2.0218161485138E+05
(PID.TID 0000.0001) %MON DXV_sd                       =   9.3728538420912E+04
(PID.TID 0000.0001) %MON YC_max                       =   8.8593750000000E+01
(PID.TID 0000.0001) %MON YC_min                       =  -8.8593750000000E+01
(PID.TID 0000.0001) %MON YC_mean                      =   0.0000000000000E+00
(PID.TID 0000.0001) %MON YC_sd                        =   5.1955180880375E+01
(PID.TID 0000.0001) %MON YG_max                       =   8.7187500000000E+01
(PID.TID 0000.0001) %MON YG_min                       =  -9.0000000000000E+01
(PID.TID 0000.0001) %MON YG_mean                      =  -1.4285714285714E+00
(PID.TID 0000.0001) %MON YG_sd                        =   5.2365595692639E+01
(PID.TID 0000.0001) %MON DYC_max                      =   3.1268664380261E+05
(PID.TID 0000.0001) %MON DYC_min                      =   3.1268664380261E+05
(PID.TID 0000.0001) %MON DYC_mean                     =   3.1268664380263E+05
(PID.TID 0000.0001) %MON DYC_sd                       =   2.4156179279089E-08
(PID.TID 0000.0001) %MON DYF_max                      =   3.1268664380261E+05
(PID.TID 0000.0001) %MON DYF_min                      =   3.1268664380261E+05
(PID.TID 0000.0001) %MON DYF_mean                     =   3.1268664380263E+05
(PID.TID 0000.0001) %MON DYF_sd                       =   2.4156179279089E-08
(PID.TID 0000.0001) %MON DYG_max                      =   3.1268664380261E+05
(PID.TID 0000.0001) %MON DYG_min                      =   3.1268664380261E+05
(PID.TID 0000.0001) %MON DYG_mean                     =   3.1268664380263E+05
(PID.TID 0000.0001) %MON DYG_sd                       =   2.4156179279089E-08
(PID.TID 0000.0001) %MON DYU_max                      =   3.1268664380261E+05
(PID.TID 0000.0001) %MON DYU_min                      =   3.1268664380261E+05
(PID.TID 0000.0001) %MON DYU_mean                     =   3.1268664380263E+05
(PID.TID 0000.0001) %MON DYU_sd                       =   2.4156179279089E-08
(PID.TID 0000.0001) %MON RA_max                       =   9.7733676797555E+10
(PID.TID 0000.0001) %MON RA_min                       =   2.3992270990191E+09
(PID.TID 0000.0001) %MON RA_mean                      =   6.2244185031957E+10
(PID.TID 0000.0001) %MON RA_sd                        =   3.0074496923945E+10
(PID.TID 0000.0001) %MON RAW_max                      =   9.7733676797555E+10
(PID.TID 0000.0001) %MON RAW_min                      =   2.3992270990191E+09
(PID.TID 0000.0001) %MON RAW_mean                     =   6.2244185031957E+10
(PID.TID 0000.0001) %MON RAW_sd                       =   3.0074496923945E+10
(PID.TID 0000.0001) %MON RAS_max                      =   9.7763121221868E+10
(PID.TID 0000.0001) %MON RAS_min                      =   4.7970089933465E+09
(PID.TID 0000.0001) %MON RAS_mean                     =   6.3213143616158E+10
(PID.TID 0000.0001) %MON RAS_sd                       =   2.9304719741649E+10
(PID.TID 0000.0001) %MON RAZ_max                      =   9.7763121221868E+10
(PID.TID 0000.0001) %MON RAZ_min                      =   4.7970089933465E+09
(PID.TID 0000.0001) %MON RAZ_mean                     =   6.3213143616158E+10
(PID.TID 0000.0001) %MON RAZ_sd                       =   2.9304719741649E+10
(PID.TID 0000.0001) // =======================================================
(PID.TID 0000.0001) // Field Model R_low (ini_masks_etc) at iteration          1
(PID.TID 0000.0001) // CMIN =          1.000000000000000E+32
(PID.TID 0000.0001) // CMAX =         -1.000000000000000E+32
(PID.TID 0000.0001) // CINT =          0.000000000000000E+00
(PID.TID 0000.0001) // SYMBOLS (CMIN->CMAX): -abcdefghijklmnopqrstuvwxyz+
(PID.TID 0000.0001) //                  0.0: .
(PID.TID 0000.0001) // RANGE I (Lo:Hi:Step):(  -1: 130:   1)
(PID.TID 0000.0001) // RANGE J (Lo:Hi:Step):(  66:  -1:  -1)
(PID.TID 0000.0001) // RANGE K (Lo:Hi:Step):(   1:   1:   1)
(PID.TID 0000.0001) // =======================================================
(PID.TID 0000.0001) K =   1
(PID.TID 0000.0001) //                I=8       I=18      I=28      I=38      I=48      I=58      I=68      I=78      I=88      I=98      I=108     I=118     I=128
(PID.TID 0000.0001) // |--J--|*01234567|901234567|901234567|901234567|901234567|901234567|901234567|901234567|901234567|901234567|901234567|901234567|901234567|90
(PID.TID 0000.0001) //     66 ....................................................................................................................................
(PID.TID 0000.0001) //     65 ....................................................................................................................................
(PID.TID 0000.0001) //     64 ....................................................................................................................................
(PID.TID 0000.0001) //     63 ....................................................................................................................................
(PID.TID 0000.0001) //     62 ....................................................................................................................................
(PID.TID 0000.0001) //     61 ....................................................................................................................................
(PID.TID 0000.0001) //     60 ....................................................................................................................................
(PID.TID 0000.0001) //     59 ....................................................................................................................................
(PID.TID 0000.0001) //     58 ....................................................................................................................................
(PID.TID 0000.0001) //     57 ....................................................................................................................................
(PID.TID 0000.0001) //     56 ....................................................................................................................................
(PID.TID 0000.0001) //     55 ....................................................................................................................................
(PID.TID 0000.0001) //     54 ....................................................................................................................................
(PID.TID 0000.0001) //     53 ....................................................................................................................................
(PID.TID 0000.0001) //     52 ....................................................................................................................................
(PID.TID 0000.0001) //     51 ....................................................................................................................................
(PID.TID 0000.0001) //     50 ....................................................................................................................................
(PID.TID 0000.0001) //     49 ....................................................................................................................................
(PID.TID 0000.0001) //     48 ....................................................................................................................................
(PID.TID 0000.0001) //     47 ....................................................................................................................................
(PID.TID 0000.0001) //     46 ....................................................................................................................................
(PID.TID 0000.0001) //     45 ....................................................................................................................................
(PID.TID 0000.0001) //     44 ....................................................................................................................................
(PID.TID 0000.0001) //     43 ....................................................................................................................................
(PID.TID 0000.0001) //     42 ....................................................................................................................................
(PID.TID 0000.0001) //     41 ....................................................................................................................................
(PID.TID 0000.0001) //     40 ....................................................................................................................................
(PID.TID 0000.0001) //     39 ....................................................................................................................................
(PID.TID 0000.0001) //     38 ....................................................................................................................................
(PID.TID 0000.0001) //     37 ....................................................................................................................................
(PID.TID 0000.0001) //     36 ....................................................................................................................................
(PID.TID 0000.0001) //     35 ....................................................................................................................................
(PID.TID 0000.0001) //     34 ....................................................................................................................................
(PID.TID 0000.0001) //     33 ....................................................................................................................................
(PID.TID 0000.0001) //     32 ....................................................................................................................................
(PID.TID 0000.0001) //     31 ....................................................................................................................................
(PID.TID 0000.0001) //     30 ....................................................................................................................................
(PID.TID 0000.0001) //     29 ....................................................................................................................................
(PID.TID 0000.0001) //     28 ....................................................................................................................................
(PID.TID 0000.0001) //     27 ....................................................................................................................................
(PID.TID 0000.0001) //     26 ....................................................................................................................................
(PID.TID 0000.0001) //     25 ....................................................................................................................................
(PID.TID 0000.0001) //     24 ....................................................................................................................................
(PID.TID 0000.0001) //     23 ....................................................................................................................................
(PID.TID 0000.0001) //     22 ....................................................................................................................................
(PID.TID 0000.0001) //     21 ....................................................................................................................................
(PID.TID 0000.0001) //     20 ....................................................................................................................................
(PID.TID 0000.0001) //     19 ....................................................................................................................................
(PID.TID 0000.0001) //     18 ....................................................................................................................................
(PID.TID 0000.0001) //     17 ....................................................................................................................................
(PID.TID 0000.0001) //     16 ....................................................................................................................................
(PID.TID 0000.0001) //     15 ....................................................................................................................................
(PID.TID 0000.0001) //     14 ....................................................................................................................................
(PID.TID 0000.0001) //     13 ....................................................................................................................................
(PID.TID 0000.0001) //     12 ....................................................................................................................................
(PID.TID 0000.0001) //     11 ....................................................................................................................................
(PID.TID 0000.0001) //     10 ....................................................................................................................................
(PID.TID 0000.0001) //      9 ....................................................................................................................................
(PID.TID 0000.0001) //      8 ....................................................................................................................................
(PID.TID 0000.0001) //      7 ....................................................................................................................................
(PID.TID 0000.0001) //      6 ....................................................................................................................................
(PID.TID 0000.0001) //      5 ....................................................................................................................................
(PID.TID 0000.0001) //      4 ....................................................................................................................................
(PID.TID 0000.0001) //      3 ....................................................................................................................................
(PID.TID 0000.0001) //      2 ....................................................................................................................................
(PID.TID 0000.0001) //      1 ....................................................................................................................................
(PID.TID 0000.0001) //      0 ....................................................................................................................................
(PID.TID 0000.0001) //     -1 ....................................................................................................................................
(PID.TID 0000.0001) // =======================================================
(PID.TID 0000.0001) // END OF FIELD                                          =
(PID.TID 0000.0001) // =======================================================
(PID.TID 0000.0001) 
(PID.TID 0000.0001) // =======================================================
(PID.TID 0000.0001) // Field Model Ro_surf (ini_masks_etc) at iteration          1
(PID.TID 0000.0001) // CMIN =          1.000000000000000E+05
(PID.TID 0000.0001) // CMAX =          1.000000000000000E+05
(PID.TID 0000.0001) // CINT =          0.000000000000000E+00
(PID.TID 0000.0001) // SYMBOLS (CMIN->CMAX): -abcdefghijklmnopqrstuvwxyz+
(PID.TID 0000.0001) //                  0.0: .
(PID.TID 0000.0001) // RANGE I (Lo:Hi:Step):(  -1: 130:   1)
(PID.TID 0000.0001) // RANGE J (Lo:Hi:Step):(  66:  -1:  -1)
(PID.TID 0000.0001) // RANGE K (Lo:Hi:Step):(   1:   1:   1)
(PID.TID 0000.0001) // =======================================================
(PID.TID 0000.0001) K =   1
(PID.TID 0000.0001) //                I=8       I=18      I=28      I=38      I=48      I=58      I=68      I=78      I=88      I=98      I=108     I=118     I=128
(PID.TID 0000.0001) // |--J--|*01234567|901234567|901234567|901234567|901234567|901234567|901234567|901234567|901234567|901234567|901234567|901234567|901234567|90
(PID.TID 0000.0001) //     66 ....................................................................................................................................
(PID.TID 0000.0001) //     65 ....................................................................................................................................
(PID.TID 0000.0001) //     64 ------------------------------------------------------------------------------------------------------------------------------------
(PID.TID 0000.0001) //     63 ------------------------------------------------------------------------------------------------------------------------------------
(PID.TID 0000.0001) //     62 ------------------------------------------------------------------------------------------------------------------------------------
(PID.TID 0000.0001) //     61 ------------------------------------------------------------------------------------------------------------------------------------
(PID.TID 0000.0001) //     60 ------------------------------------------------------------------------------------------------------------------------------------
(PID.TID 0000.0001) //     59 ------------------------------------------------------------------------------------------------------------------------------------
(PID.TID 0000.0001) //     58 ------------------------------------------------------------------------------------------------------------------------------------
(PID.TID 0000.0001) //     57 ------------------------------------------------------------------------------------------------------------------------------------
(PID.TID 0000.0001) //     56 ------------------------------------------------------------------------------------------------------------------------------------
(PID.TID 0000.0001) //     55 ------------------------------------------------------------------------------------------------------------------------------------
(PID.TID 0000.0001) //     54 ------------------------------------------------------------------------------------------------------------------------------------
(PID.TID 0000.0001) //     53 ------------------------------------------------------------------------------------------------------------------------------------
(PID.TID 0000.0001) //     52 ------------------------------------------------------------------------------------------------------------------------------------
(PID.TID 0000.0001) //     51 ------------------------------------------------------------------------------------------------------------------------------------
(PID.TID 0000.0001) //     50 ------------------------------------------------------------------------------------------------------------------------------------
(PID.TID 0000.0001) //     49 ------------------------------------------------------------------------------------------------------------------------------------
(PID.TID 0000.0001) //     48 ------------------------------------------------------------------------------------------------------------------------------------
(PID.TID 0000.0001) //     47 ------------------------------------------------------------------------------------------------------------------------------------
(PID.TID 0000.0001) //     46 ------------------------------------------------------------------------------------------------------------------------------------
(PID.TID 0000.0001) //     45 ------------------------------------------------------------------------------------------------------------------------------------
(PID.TID 0000.0001) //     44 ------------------------------------------------------------------------------------------------------------------------------------
(PID.TID 0000.0001) //     43 ------------------------------------------------------------------------------------------------------------------------------------
(PID.TID 0000.0001) //     42 ------------------------------------------------------------------------------------------------------------------------------------
(PID.TID 0000.0001) //     41 ------------------------------------------------------------------------------------------------------------------------------------
(PID.TID 0000.0001) //     40 ------------------------------------------------------------------------------------------------------------------------------------
(PID.TID 0000.0001) //     39 ------------------------------------------------------------------------------------------------------------------------------------
(PID.TID 0000.0001) //     38 ------------------------------------------------------------------------------------------------------------------------------------
(PID.TID 0000.0001) //     37 ------------------------------------------------------------------------------------------------------------------------------------
(PID.TID 0000.0001) //     36 ------------------------------------------------------------------------------------------------------------------------------------
(PID.TID 0000.0001) //     35 ------------------------------------------------------------------------------------------------------------------------------------
(PID.TID 0000.0001) //     34 ------------------------------------------------------------------------------------------------------------------------------------
(PID.TID 0000.0001) //     33 ------------------------------------------------------------------------------------------------------------------------------------
(PID.TID 0000.0001) //     32 ------------------------------------------------------------------------------------------------------------------------------------
(PID.TID 0000.0001) //     31 ------------------------------------------------------------------------------------------------------------------------------------
(PID.TID 0000.0001) //     30 ------------------------------------------------------------------------------------------------------------------------------------
(PID.TID 0000.0001) //     29 ------------------------------------------------------------------------------------------------------------------------------------
(PID.TID 0000.0001) //     28 ------------------------------------------------------------------------------------------------------------------------------------
(PID.TID 0000.0001) //     27 ------------------------------------------------------------------------------------------------------------------------------------
(PID.TID 0000.0001) //     26 ------------------------------------------------------------------------------------------------------------------------------------
(PID.TID 0000.0001) //     25 ------------------------------------------------------------------------------------------------------------------------------------
(PID.TID 0000.0001) //     24 ------------------------------------------------------------------------------------------------------------------------------------
(PID.TID 0000.0001) //     23 ------------------------------------------------------------------------------------------------------------------------------------
(PID.TID 0000.0001) //     22 ------------------------------------------------------------------------------------------------------------------------------------
(PID.TID 0000.0001) //     21 ------------------------------------------------------------------------------------------------------------------------------------
(PID.TID 0000.0001) //     20 ------------------------------------------------------------------------------------------------------------------------------------
(PID.TID 0000.0001) //     19 ------------------------------------------------------------------------------------------------------------------------------------
(PID.TID 0000.0001) //     18 ------------------------------------------------------------------------------------------------------------------------------------
(PID.TID 0000.0001) //     17 ------------------------------------------------------------------------------------------------------------------------------------
(PID.TID 0000.0001) //     16 ------------------------------------------------------------------------------------------------------------------------------------
(PID.TID 0000.0001) //     15 ------------------------------------------------------------------------------------------------------------------------------------
(PID.TID 0000.0001) //     14 ------------------------------------------------------------------------------------------------------------------------------------
(PID.TID 0000.0001) //     13 ------------------------------------------------------------------------------------------------------------------------------------
(PID.TID 0000.0001) //     12 ------------------------------------------------------------------------------------------------------------------------------------
(PID.TID 0000.0001) //     11 ------------------------------------------------------------------------------------------------------------------------------------
(PID.TID 0000.0001) //     10 ------------------------------------------------------------------------------------------------------------------------------------
(PID.TID 0000.0001) //      9 ------------------------------------------------------------------------------------------------------------------------------------
(PID.TID 0000.0001) //      8 ------------------------------------------------------------------------------------------------------------------------------------
(PID.TID 0000.0001) //      7 ------------------------------------------------------------------------------------------------------------------------------------
(PID.TID 0000.0001) //      6 ------------------------------------------------------------------------------------------------------------------------------------
(PID.TID 0000.0001) //      5 ------------------------------------------------------------------------------------------------------------------------------------
(PID.TID 0000.0001) //      4 ------------------------------------------------------------------------------------------------------------------------------------
(PID.TID 0000.0001) //      3 ------------------------------------------------------------------------------------------------------------------------------------
(PID.TID 0000.0001) //      2 ------------------------------------------------------------------------------------------------------------------------------------
(PID.TID 0000.0001) //      1 ------------------------------------------------------------------------------------------------------------------------------------
(PID.TID 0000.0001) //      0 ....................................................................................................................................
(PID.TID 0000.0001) //     -1 ....................................................................................................................................
(PID.TID 0000.0001) // =======================================================
(PID.TID 0000.0001) // END OF FIELD                                          =
(PID.TID 0000.0001) // =======================================================
(PID.TID 0000.0001) 
(PID.TID 0000.0001) // =======================================================
(PID.TID 0000.0001) // Field hFacC at iteration          1
(PID.TID 0000.0001) // CMIN =          1.000000000000000E+00
(PID.TID 0000.0001) // CMAX =          1.000000000000000E+00
(PID.TID 0000.0001) // CINT =          0.000000000000000E+00
(PID.TID 0000.0001) // SYMBOLS (CMIN->CMAX): -abcdefghijklmnopqrstuvwxyz+
(PID.TID 0000.0001) //                  0.0: .
(PID.TID 0000.0001) // RANGE I (Lo:Hi:Step):(  -1: 130:   1)
(PID.TID 0000.0001) // RANGE J (Lo:Hi:Step):(  66:  -1:  -1)
(PID.TID 0000.0001) // RANGE K (Lo:Hi:Step):(   1:   1:   1)
(PID.TID 0000.0001) // =======================================================
(PID.TID 0000.0001) K =   1
(PID.TID 0000.0001) //                I=8       I=18      I=28      I=38      I=48      I=58      I=68      I=78      I=88      I=98      I=108     I=118     I=128
(PID.TID 0000.0001) // |--J--|*01234567|901234567|901234567|901234567|901234567|901234567|901234567|901234567|901234567|901234567|901234567|901234567|901234567|90
(PID.TID 0000.0001) //     66 ....................................................................................................................................
(PID.TID 0000.0001) //     65 ....................................................................................................................................
(PID.TID 0000.0001) //     64 ------------------------------------------------------------------------------------------------------------------------------------
(PID.TID 0000.0001) //     63 ------------------------------------------------------------------------------------------------------------------------------------
(PID.TID 0000.0001) //     62 ------------------------------------------------------------------------------------------------------------------------------------
(PID.TID 0000.0001) //     61 ------------------------------------------------------------------------------------------------------------------------------------
(PID.TID 0000.0001) //     60 ------------------------------------------------------------------------------------------------------------------------------------
(PID.TID 0000.0001) //     59 ------------------------------------------------------------------------------------------------------------------------------------
(PID.TID 0000.0001) //     58 ------------------------------------------------------------------------------------------------------------------------------------
(PID.TID 0000.0001) //     57 ------------------------------------------------------------------------------------------------------------------------------------
(PID.TID 0000.0001) //     56 ------------------------------------------------------------------------------------------------------------------------------------
(PID.TID 0000.0001) //     55 ------------------------------------------------------------------------------------------------------------------------------------
(PID.TID 0000.0001) //     54 ------------------------------------------------------------------------------------------------------------------------------------
(PID.TID 0000.0001) //     53 ------------------------------------------------------------------------------------------------------------------------------------
(PID.TID 0000.0001) //     52 ------------------------------------------------------------------------------------------------------------------------------------
(PID.TID 0000.0001) //     51 ------------------------------------------------------------------------------------------------------------------------------------
(PID.TID 0000.0001) //     50 ------------------------------------------------------------------------------------------------------------------------------------
(PID.TID 0000.0001) //     49 ------------------------------------------------------------------------------------------------------------------------------------
(PID.TID 0000.0001) //     48 ------------------------------------------------------------------------------------------------------------------------------------
(PID.TID 0000.0001) //     47 ------------------------------------------------------------------------------------------------------------------------------------
(PID.TID 0000.0001) //     46 ------------------------------------------------------------------------------------------------------------------------------------
(PID.TID 0000.0001) //     45 ------------------------------------------------------------------------------------------------------------------------------------
(PID.TID 0000.0001) //     44 ------------------------------------------------------------------------------------------------------------------------------------
(PID.TID 0000.0001) //     43 ------------------------------------------------------------------------------------------------------------------------------------
(PID.TID 0000.0001) //     42 ------------------------------------------------------------------------------------------------------------------------------------
(PID.TID 0000.0001) //     41 ------------------------------------------------------------------------------------------------------------------------------------
(PID.TID 0000.0001) //     40 ------------------------------------------------------------------------------------------------------------------------------------
(PID.TID 0000.0001) //     39 ------------------------------------------------------------------------------------------------------------------------------------
(PID.TID 0000.0001) //     38 ------------------------------------------------------------------------------------------------------------------------------------
(PID.TID 0000.0001) //     37 ------------------------------------------------------------------------------------------------------------------------------------
(PID.TID 0000.0001) //     36 ------------------------------------------------------------------------------------------------------------------------------------
(PID.TID 0000.0001) //     35 ------------------------------------------------------------------------------------------------------------------------------------
(PID.TID 0000.0001) //     34 ------------------------------------------------------------------------------------------------------------------------------------
(PID.TID 0000.0001) //     33 ------------------------------------------------------------------------------------------------------------------------------------
(PID.TID 0000.0001) //     32 ------------------------------------------------------------------------------------------------------------------------------------
(PID.TID 0000.0001) //     31 ------------------------------------------------------------------------------------------------------------------------------------
(PID.TID 0000.0001) //     30 ------------------------------------------------------------------------------------------------------------------------------------
(PID.TID 0000.0001) //     29 ------------------------------------------------------------------------------------------------------------------------------------
(PID.TID 0000.0001) //     28 ------------------------------------------------------------------------------------------------------------------------------------
(PID.TID 0000.0001) //     27 ------------------------------------------------------------------------------------------------------------------------------------
(PID.TID 0000.0001) //     26 ------------------------------------------------------------------------------------------------------------------------------------
(PID.TID 0000.0001) //     25 ------------------------------------------------------------------------------------------------------------------------------------
(PID.TID 0000.0001) //     24 ------------------------------------------------------------------------------------------------------------------------------------
(PID.TID 0000.0001) //     23 ------------------------------------------------------------------------------------------------------------------------------------
(PID.TID 0000.0001) //     22 ------------------------------------------------------------------------------------------------------------------------------------
(PID.TID 0000.0001) //     21 ------------------------------------------------------------------------------------------------------------------------------------
(PID.TID 0000.0001) //     20 ------------------------------------------------------------------------------------------------------------------------------------
(PID.TID 0000.0001) //     19 ------------------------------------------------------------------------------------------------------------------------------------
(PID.TID 0000.0001) //     18 ------------------------------------------------------------------------------------------------------------------------------------
(PID.TID 0000.0001) //     17 ------------------------------------------------------------------------------------------------------------------------------------
(PID.TID 0000.0001) //     16 ------------------------------------------------------------------------------------------------------------------------------------
(PID.TID 0000.0001) //     15 ------------------------------------------------------------------------------------------------------------------------------------
(PID.TID 0000.0001) //     14 ------------------------------------------------------------------------------------------------------------------------------------
(PID.TID 0000.0001) //     13 ------------------------------------------------------------------------------------------------------------------------------------
(PID.TID 0000.0001) //     12 ------------------------------------------------------------------------------------------------------------------------------------
(PID.TID 0000.0001) //     11 ------------------------------------------------------------------------------------------------------------------------------------
(PID.TID 0000.0001) //     10 ------------------------------------------------------------------------------------------------------------------------------------
(PID.TID 0000.0001) //      9 ------------------------------------------------------------------------------------------------------------------------------------
(PID.TID 0000.0001) //      8 ------------------------------------------------------------------------------------------------------------------------------------
(PID.TID 0000.0001) //      7 ------------------------------------------------------------------------------------------------------------------------------------
(PID.TID 0000.0001) //      6 ------------------------------------------------------------------------------------------------------------------------------------
(PID.TID 0000.0001) //      5 ------------------------------------------------------------------------------------------------------------------------------------
(PID.TID 0000.0001) //      4 ------------------------------------------------------------------------------------------------------------------------------------
(PID.TID 0000.0001) //      3 ------------------------------------------------------------------------------------------------------------------------------------
(PID.TID 0000.0001) //      2 ------------------------------------------------------------------------------------------------------------------------------------
(PID.TID 0000.0001) //      1 ------------------------------------------------------------------------------------------------------------------------------------
(PID.TID 0000.0001) //      0 ....................................................................................................................................
(PID.TID 0000.0001) //     -1 ....................................................................................................................................
(PID.TID 0000.0001) // =======================================================
(PID.TID 0000.0001) // END OF FIELD                                          =
(PID.TID 0000.0001) // =======================================================
(PID.TID 0000.0001) 
(PID.TID 0000.0001) // =======================================================
(PID.TID 0000.0001) // Field hFacW at iteration          1
(PID.TID 0000.0001) // CMIN =          1.000000000000000E+00
(PID.TID 0000.0001) // CMAX =          1.000000000000000E+00
(PID.TID 0000.0001) // CINT =          0.000000000000000E+00
(PID.TID 0000.0001) // SYMBOLS (CMIN->CMAX): -abcdefghijklmnopqrstuvwxyz+
(PID.TID 0000.0001) //                  0.0: .
(PID.TID 0000.0001) // RANGE I (Lo:Hi:Step):(  -1: 130:   1)
(PID.TID 0000.0001) // RANGE J (Lo:Hi:Step):(  66:  -1:  -1)
(PID.TID 0000.0001) // RANGE K (Lo:Hi:Step):(   1:   1:   1)
(PID.TID 0000.0001) // =======================================================
(PID.TID 0000.0001) K =   1
(PID.TID 0000.0001) //                I=8       I=18      I=28      I=38      I=48      I=58      I=68      I=78      I=88      I=98      I=108     I=118     I=128
(PID.TID 0000.0001) // |--J--|*01234567|901234567|901234567|901234567|901234567|901234567|901234567|901234567|901234567|901234567|901234567|901234567|901234567|90
(PID.TID 0000.0001) //     66 ------------------------------------------------------------------------------------------------------------------------------------
(PID.TID 0000.0001) //     65 ------------------------------------------------------------------------------------------------------------------------------------
(PID.TID 0000.0001) //     64 ------------------------------------------------------------------------------------------------------------------------------------
(PID.TID 0000.0001) //     63 ------------------------------------------------------------------------------------------------------------------------------------
(PID.TID 0000.0001) //     62 ------------------------------------------------------------------------------------------------------------------------------------
(PID.TID 0000.0001) //     61 ------------------------------------------------------------------------------------------------------------------------------------
(PID.TID 0000.0001) //     60 ------------------------------------------------------------------------------------------------------------------------------------
(PID.TID 0000.0001) //     59 ------------------------------------------------------------------------------------------------------------------------------------
(PID.TID 0000.0001) //     58 ------------------------------------------------------------------------------------------------------------------------------------
(PID.TID 0000.0001) //     57 ------------------------------------------------------------------------------------------------------------------------------------
(PID.TID 0000.0001) //     56 ------------------------------------------------------------------------------------------------------------------------------------
(PID.TID 0000.0001) //     55 ------------------------------------------------------------------------------------------------------------------------------------
(PID.TID 0000.0001) //     54 ------------------------------------------------------------------------------------------------------------------------------------
(PID.TID 0000.0001) //     53 ------------------------------------------------------------------------------------------------------------------------------------
(PID.TID 0000.0001) //     52 ------------------------------------------------------------------------------------------------------------------------------------
(PID.TID 0000.0001) //     51 ------------------------------------------------------------------------------------------------------------------------------------
(PID.TID 0000.0001) //     50 ------------------------------------------------------------------------------------------------------------------------------------
(PID.TID 0000.0001) //     49 ------------------------------------------------------------------------------------------------------------------------------------
(PID.TID 0000.0001) //     48 ------------------------------------------------------------------------------------------------------------------------------------
(PID.TID 0000.0001) //     47 ------------------------------------------------------------------------------------------------------------------------------------
(PID.TID 0000.0001) //     46 ------------------------------------------------------------------------------------------------------------------------------------
(PID.TID 0000.0001) //     45 ------------------------------------------------------------------------------------------------------------------------------------
(PID.TID 0000.0001) //     44 ------------------------------------------------------------------------------------------------------------------------------------
(PID.TID 0000.0001) //     43 ------------------------------------------------------------------------------------------------------------------------------------
(PID.TID 0000.0001) //     42 ------------------------------------------------------------------------------------------------------------------------------------
(PID.TID 0000.0001) //     41 ------------------------------------------------------------------------------------------------------------------------------------
(PID.TID 0000.0001) //     40 ------------------------------------------------------------------------------------------------------------------------------------
(PID.TID 0000.0001) //     39 ------------------------------------------------------------------------------------------------------------------------------------
(PID.TID 0000.0001) //     38 ------------------------------------------------------------------------------------------------------------------------------------
(PID.TID 0000.0001) //     37 ------------------------------------------------------------------------------------------------------------------------------------
(PID.TID 0000.0001) //     36 ------------------------------------------------------------------------------------------------------------------------------------
(PID.TID 0000.0001) //     35 ------------------------------------------------------------------------------------------------------------------------------------
(PID.TID 0000.0001) //     34 ------------------------------------------------------------------------------------------------------------------------------------
(PID.TID 0000.0001) //     33 ------------------------------------------------------------------------------------------------------------------------------------
(PID.TID 0000.0001) //     32 ------------------------------------------------------------------------------------------------------------------------------------
(PID.TID 0000.0001) //     31 ------------------------------------------------------------------------------------------------------------------------------------
(PID.TID 0000.0001) //     30 ------------------------------------------------------------------------------------------------------------------------------------
(PID.TID 0000.0001) //     29 ------------------------------------------------------------------------------------------------------------------------------------
(PID.TID 0000.0001) //     28 ------------------------------------------------------------------------------------------------------------------------------------
(PID.TID 0000.0001) //     27 ------------------------------------------------------------------------------------------------------------------------------------
(PID.TID 0000.0001) //     26 ------------------------------------------------------------------------------------------------------------------------------------
(PID.TID 0000.0001) //     25 ------------------------------------------------------------------------------------------------------------------------------------
(PID.TID 0000.0001) //     24 ------------------------------------------------------------------------------------------------------------------------------------
(PID.TID 0000.0001) //     23 ------------------------------------------------------------------------------------------------------------------------------------
(PID.TID 0000.0001) //     22 ------------------------------------------------------------------------------------------------------------------------------------
(PID.TID 0000.0001) //     21 ------------------------------------------------------------------------------------------------------------------------------------
(PID.TID 0000.0001) //     20 ------------------------------------------------------------------------------------------------------------------------------------
(PID.TID 0000.0001) //     19 ------------------------------------------------------------------------------------------------------------------------------------
(PID.TID 0000.0001) //     18 ------------------------------------------------------------------------------------------------------------------------------------
(PID.TID 0000.0001) //     17 ------------------------------------------------------------------------------------------------------------------------------------
(PID.TID 0000.0001) //     16 ------------------------------------------------------------------------------------------------------------------------------------
(PID.TID 0000.0001) //     15 ------------------------------------------------------------------------------------------------------------------------------------
(PID.TID 0000.0001) //     14 ------------------------------------------------------------------------------------------------------------------------------------
(PID.TID 0000.0001) //     13 ------------------------------------------------------------------------------------------------------------------------------------
(PID.TID 0000.0001) //     12 ------------------------------------------------------------------------------------------------------------------------------------
(PID.TID 0000.0001) //     11 ------------------------------------------------------------------------------------------------------------------------------------
(PID.TID 0000.0001) //     10 ------------------------------------------------------------------------------------------------------------------------------------
(PID.TID 0000.0001) //      9 ------------------------------------------------------------------------------------------------------------------------------------
(PID.TID 0000.0001) //      8 ------------------------------------------------------------------------------------------------------------------------------------
(PID.TID 0000.0001) //      7 ------------------------------------------------------------------------------------------------------------------------------------
(PID.TID 0000.0001) //      6 ------------------------------------------------------------------------------------------------------------------------------------
(PID.TID 0000.0001) //      5 ------------------------------------------------------------------------------------------------------------------------------------
(PID.TID 0000.0001) //      4 ------------------------------------------------------------------------------------------------------------------------------------
(PID.TID 0000.0001) //      3 ------------------------------------------------------------------------------------------------------------------------------------
(PID.TID 0000.0001) //      2 ------------------------------------------------------------------------------------------------------------------------------------
(PID.TID 0000.0001) //      1 ------------------------------------------------------------------------------------------------------------------------------------
(PID.TID 0000.0001) //      0 ------------------------------------------------------------------------------------------------------------------------------------
(PID.TID 0000.0001) //     -1 ------------------------------------------------------------------------------------------------------------------------------------
(PID.TID 0000.0001) // =======================================================
(PID.TID 0000.0001) // END OF FIELD                                          =
(PID.TID 0000.0001) // =======================================================
(PID.TID 0000.0001) 
(PID.TID 0000.0001) // =======================================================
(PID.TID 0000.0001) // Field hFacS at iteration          1
(PID.TID 0000.0001) // CMIN =          1.000000000000000E+00
(PID.TID 0000.0001) // CMAX =          1.000000000000000E+00
(PID.TID 0000.0001) // CINT =          0.000000000000000E+00
(PID.TID 0000.0001) // SYMBOLS (CMIN->CMAX): -abcdefghijklmnopqrstuvwxyz+
(PID.TID 0000.0001) //                  0.0: .
(PID.TID 0000.0001) // RANGE I (Lo:Hi:Step):(  -1: 130:   1)
(PID.TID 0000.0001) // RANGE J (Lo:Hi:Step):(  66:  -1:  -1)
(PID.TID 0000.0001) // RANGE K (Lo:Hi:Step):(   1:   1:   1)
(PID.TID 0000.0001) // =======================================================
(PID.TID 0000.0001) K =   1
(PID.TID 0000.0001) //                I=8       I=18      I=28      I=38      I=48      I=58      I=68      I=78      I=88      I=98      I=108     I=118     I=128
(PID.TID 0000.0001) // |--J--|*01234567|901234567|901234567|901234567|901234567|901234567|901234567|901234567|901234567|901234567|901234567|901234567|901234567|90
(PID.TID 0000.0001) //     66 ....................................................................................................................................
(PID.TID 0000.0001) //     65 ....................................................................................................................................
(PID.TID 0000.0001) //     64 ------------------------------------------------------------------------------------------------------------------------------------
(PID.TID 0000.0001) //     63 ------------------------------------------------------------------------------------------------------------------------------------
(PID.TID 0000.0001) //     62 ------------------------------------------------------------------------------------------------------------------------------------
(PID.TID 0000.0001) //     61 ------------------------------------------------------------------------------------------------------------------------------------
(PID.TID 0000.0001) //     60 ------------------------------------------------------------------------------------------------------------------------------------
(PID.TID 0000.0001) //     59 ------------------------------------------------------------------------------------------------------------------------------------
(PID.TID 0000.0001) //     58 ------------------------------------------------------------------------------------------------------------------------------------
(PID.TID 0000.0001) //     57 ------------------------------------------------------------------------------------------------------------------------------------
(PID.TID 0000.0001) //     56 ------------------------------------------------------------------------------------------------------------------------------------
(PID.TID 0000.0001) //     55 ------------------------------------------------------------------------------------------------------------------------------------
(PID.TID 0000.0001) //     54 ------------------------------------------------------------------------------------------------------------------------------------
(PID.TID 0000.0001) //     53 ------------------------------------------------------------------------------------------------------------------------------------
(PID.TID 0000.0001) //     52 ------------------------------------------------------------------------------------------------------------------------------------
(PID.TID 0000.0001) //     51 ------------------------------------------------------------------------------------------------------------------------------------
(PID.TID 0000.0001) //     50 ------------------------------------------------------------------------------------------------------------------------------------
(PID.TID 0000.0001) //     49 ------------------------------------------------------------------------------------------------------------------------------------
(PID.TID 0000.0001) //     48 ------------------------------------------------------------------------------------------------------------------------------------
(PID.TID 0000.0001) //     47 ------------------------------------------------------------------------------------------------------------------------------------
(PID.TID 0000.0001) //     46 ------------------------------------------------------------------------------------------------------------------------------------
(PID.TID 0000.0001) //     45 ------------------------------------------------------------------------------------------------------------------------------------
(PID.TID 0000.0001) //     44 ------------------------------------------------------------------------------------------------------------------------------------
(PID.TID 0000.0001) //     43 ------------------------------------------------------------------------------------------------------------------------------------
(PID.TID 0000.0001) //     42 ------------------------------------------------------------------------------------------------------------------------------------
(PID.TID 0000.0001) //     41 ------------------------------------------------------------------------------------------------------------------------------------
(PID.TID 0000.0001) //     40 ------------------------------------------------------------------------------------------------------------------------------------
(PID.TID 0000.0001) //     39 ------------------------------------------------------------------------------------------------------------------------------------
(PID.TID 0000.0001) //     38 ------------------------------------------------------------------------------------------------------------------------------------
(PID.TID 0000.0001) //     37 ------------------------------------------------------------------------------------------------------------------------------------
(PID.TID 0000.0001) //     36 ------------------------------------------------------------------------------------------------------------------------------------
(PID.TID 0000.0001) //     35 ------------------------------------------------------------------------------------------------------------------------------------
(PID.TID 0000.0001) //     34 ------------------------------------------------------------------------------------------------------------------------------------
(PID.TID 0000.0001) //     33 ------------------------------------------------------------------------------------------------------------------------------------
(PID.TID 0000.0001) //     32 ------------------------------------------------------------------------------------------------------------------------------------
(PID.TID 0000.0001) //     31 ------------------------------------------------------------------------------------------------------------------------------------
(PID.TID 0000.0001) //     30 ------------------------------------------------------------------------------------------------------------------------------------
(PID.TID 0000.0001) //     29 ------------------------------------------------------------------------------------------------------------------------------------
(PID.TID 0000.0001) //     28 ------------------------------------------------------------------------------------------------------------------------------------
(PID.TID 0000.0001) //     27 ------------------------------------------------------------------------------------------------------------------------------------
(PID.TID 0000.0001) //     26 ------------------------------------------------------------------------------------------------------------------------------------
(PID.TID 0000.0001) //     25 ------------------------------------------------------------------------------------------------------------------------------------
(PID.TID 0000.0001) //     24 ------------------------------------------------------------------------------------------------------------------------------------
(PID.TID 0000.0001) //     23 ------------------------------------------------------------------------------------------------------------------------------------
(PID.TID 0000.0001) //     22 ------------------------------------------------------------------------------------------------------------------------------------
(PID.TID 0000.0001) //     21 ------------------------------------------------------------------------------------------------------------------------------------
(PID.TID 0000.0001) //     20 ------------------------------------------------------------------------------------------------------------------------------------
(PID.TID 0000.0001) //     19 ------------------------------------------------------------------------------------------------------------------------------------
(PID.TID 0000.0001) //     18 ------------------------------------------------------------------------------------------------------------------------------------
(PID.TID 0000.0001) //     17 ------------------------------------------------------------------------------------------------------------------------------------
(PID.TID 0000.0001) //     16 ------------------------------------------------------------------------------------------------------------------------------------
(PID.TID 0000.0001) //     15 ------------------------------------------------------------------------------------------------------------------------------------
(PID.TID 0000.0001) //     14 ------------------------------------------------------------------------------------------------------------------------------------
(PID.TID 0000.0001) //     13 ------------------------------------------------------------------------------------------------------------------------------------
(PID.TID 0000.0001) //     12 ------------------------------------------------------------------------------------------------------------------------------------
(PID.TID 0000.0001) //     11 ------------------------------------------------------------------------------------------------------------------------------------
(PID.TID 0000.0001) //     10 ------------------------------------------------------------------------------------------------------------------------------------
(PID.TID 0000.0001) //      9 ------------------------------------------------------------------------------------------------------------------------------------
(PID.TID 0000.0001) //      8 ------------------------------------------------------------------------------------------------------------------------------------
(PID.TID 0000.0001) //      7 ------------------------------------------------------------------------------------------------------------------------------------
(PID.TID 0000.0001) //      6 ------------------------------------------------------------------------------------------------------------------------------------
(PID.TID 0000.0001) //      5 ------------------------------------------------------------------------------------------------------------------------------------
(PID.TID 0000.0001) //      4 ------------------------------------------------------------------------------------------------------------------------------------
(PID.TID 0000.0001) //      3 ------------------------------------------------------------------------------------------------------------------------------------
(PID.TID 0000.0001) //      2 ------------------------------------------------------------------------------------------------------------------------------------
(PID.TID 0000.0001) //      1 ....................................................................................................................................
(PID.TID 0000.0001) //      0 ....................................................................................................................................
(PID.TID 0000.0001) //     -1 ....................................................................................................................................
(PID.TID 0000.0001) // =======================================================
(PID.TID 0000.0001) // END OF FIELD                                          =
(PID.TID 0000.0001) // =======================================================
(PID.TID 0000.0001) 
(PID.TID 0000.0001)  PACKAGES_BOOT: opening data.pkg
(PID.TID 0000.0001)  OPEN_COPY_DATA_FILE: opening file data.pkg
(PID.TID 0000.0001) // =======================================================
(PID.TID 0000.0001) // Parameter file "data.pkg"
(PID.TID 0000.0001) // =======================================================
(PID.TID 0000.0001) ># Packages
(PID.TID 0000.0001) > &PACKAGES
(PID.TID 0000.0001) > useSHAP_FILT=.TRUE.,
(PID.TID 0000.0001) > useZONAL_FILT=.TRUE.,
(PID.TID 0000.0001) > &
(PID.TID 0000.0001) 
(PID.TID 0000.0001)  PACKAGES_BOOT: finished reading data.pkg
(PID.TID 0000.0001)  SHAP_FILT_READPARMS: opening data.shap
(PID.TID 0000.0001)  OPEN_COPY_DATA_FILE: opening file data.shap
(PID.TID 0000.0001) // =======================================================
(PID.TID 0000.0001) // Parameter file "data.shap"
(PID.TID 0000.0001) // =======================================================
(PID.TID 0000.0001) ># Shapiro Filter parameters
(PID.TID 0000.0001) > &SHAP_PARM01
(PID.TID 0000.0001) > shap_filt_uvStar=.FALSE.,
(PID.TID 0000.0001) > shap_filt_TrStagg=.TRUE.,
(PID.TID 0000.0001) > Shap_funct=2,
(PID.TID 0000.0001) > nShapT=4,
(PID.TID 0000.0001) > nShapUV=4,
(PID.TID 0000.0001) > nShapTrPhys=0,
(PID.TID 0000.0001) > nShapUVPhys=0,
(PID.TID 0000.0001) >#Shap_TrLength=115000.,
(PID.TID 0000.0001) >#Shap_uvLength=110000.,
(PID.TID 0000.0001) > Shap_Trtau=5400.,
(PID.TID 0000.0001) > Shap_uvtau=5400.,
(PID.TID 0000.0001) > &
(PID.TID 0000.0001) >
(PID.TID 0000.0001) 
(PID.TID 0000.0001)  SHAP_FILT_READPARMS: finished reading data.shap
(PID.TID 0000.0001) Shap_funct =   /* select Shapiro filter function */
(PID.TID 0000.0001)                       2
(PID.TID 0000.0001)     ;
(PID.TID 0000.0001) nShapTr =   /* power of Shapiro filter for Tracers */
(PID.TID 0000.0001)                       4
(PID.TID 0000.0001)     ;
(PID.TID 0000.0001) nShapUV =   /* power of Shapiro filter for momentum */
(PID.TID 0000.0001)                       4
(PID.TID 0000.0001)     ;
(PID.TID 0000.0001) nShapTrPhys =   /* power of physical-space filter (Tracer) */
(PID.TID 0000.0001)                       0
(PID.TID 0000.0001)     ;
(PID.TID 0000.0001) nShapUVPhys =   /* power of physical-space filter (Momentum) */
(PID.TID 0000.0001)                       0
(PID.TID 0000.0001)     ;
(PID.TID 0000.0001) Shap_Trtau =   /* time scale of Shapiro filter (Tracer) */
(PID.TID 0000.0001)                 5.400000000000000E+03
(PID.TID 0000.0001)     ;
(PID.TID 0000.0001) Shap_TrLength =   /* Length scale of Shapiro filter (Tracer) */
(PID.TID 0000.0001)                 0.000000000000000E+00
(PID.TID 0000.0001)     ;
(PID.TID 0000.0001) Shap_uvtau =   /* time scale of Shapiro filter (Momentum) */
(PID.TID 0000.0001)                 5.400000000000000E+03
(PID.TID 0000.0001)     ;
(PID.TID 0000.0001) Shap_uvLength =   /* Length scale of Shapiro filter (Momentum) */
(PID.TID 0000.0001)                 0.000000000000000E+00
(PID.TID 0000.0001)     ;
(PID.TID 0000.0001) Shap_noSlip =  /* No-slip parameter (0=Free-slip ; 1=No-slip)*/
(PID.TID 0000.0001)                 0.000000000000000E+00
(PID.TID 0000.0001)     ;
(PID.TID 0000.0001) Shap_diagFreq =   /* Frequency^-1 for diagnostic output (s)*/
(PID.TID 0000.0001)                 0.000000000000000E+00
(PID.TID 0000.0001)     ;
(PID.TID 0000.0001)  ZONAL_FILT_READPARMS: opening data.zonfilt
(PID.TID 0000.0001)  OPEN_COPY_DATA_FILE: opening file data.zonfilt
(PID.TID 0000.0001) // =======================================================
(PID.TID 0000.0001) // Parameter file "data.zonfilt"
(PID.TID 0000.0001) // =======================================================
(PID.TID 0000.0001) ># Zonal Filter parameters
(PID.TID 0000.0001) > &ZONFILT_PARM01
(PID.TID 0000.0001) > zonal_filt_uvStar =.FALSE.,
(PID.TID 0000.0001) > zonal_filt_TrStagg=.TRUE.,
(PID.TID 0000.0001) > zonal_filt_lat=45.,
(PID.TID 0000.0001) > zonal_filt_sinpow=2,
(PID.TID 0000.0001) > zonal_filt_cospow=2,
(PID.TID 0000.0001) > zonal_filt_mode2dx=0,
(PID.TID 0000.0001) > &
(PID.TID 0000.0001) >
(PID.TID 0000.0001) 
(PID.TID 0000.0001)  ZONAL_FILT_READPARMS: finished reading data.zonfilt
(PID.TID 0000.0001) 
(PID.TID 0000.0001) // ===================================
(PID.TID 0000.0001) // GAD parameters :
(PID.TID 0000.0001) // ===================================
(PID.TID 0000.0001) tempAdvScheme =   /* Temp. advection scheme selector */
(PID.TID 0000.0001)                       2
(PID.TID 0000.0001)     ;
(PID.TID 0000.0001) tempMultiDimAdvec =   /* use Muti-Dim Advec method for Temp */
(PID.TID 0000.0001)                   F
(PID.TID 0000.0001)     ;
(PID.TID 0000.0001) tempAdamsBashforth =   /* use Adams-Bashforth time-stepping for Temp */
(PID.TID 0000.0001)                   T
(PID.TID 0000.0001)     ;
(PID.TID 0000.0001) saltAdvScheme =   /* Salt. advection scheme selector */
(PID.TID 0000.0001)                       2
(PID.TID 0000.0001)     ;
(PID.TID 0000.0001) saltMultiDimAdvec =   /* use Muti-Dim Advec method for Salt */
(PID.TID 0000.0001)                   F
(PID.TID 0000.0001)     ;
(PID.TID 0000.0001) saltAdamsBashforth =   /* use Adams-Bashforth time-stepping for Salt */
(PID.TID 0000.0001)                   T
(PID.TID 0000.0001)     ;
(PID.TID 0000.0001) // ===================================
(PID.TID 0000.0001) %MON fCori_max                    =   1.4540029928789E-04
(PID.TID 0000.0001) %MON fCori_min                    =  -1.4540029928789E-04
(PID.TID 0000.0001) %MON fCori_mean                   =  -2.2565487110447E-21
(PID.TID 0000.0001) %MON fCori_sd                     =   1.0284451245737E-04
(PID.TID 0000.0001) %MON fCoriG_max                   =   1.4526891053949E-04
(PID.TID 0000.0001) %MON fCoriG_min                   =  -1.4544410433286E-04
(PID.TID 0000.0001) %MON fCoriG_mean                  =  -2.3086365767121E-06
(PID.TID 0000.0001) %MON fCoriG_sd                    =   1.0363181330709E-04
(PID.TID 0000.0001) %MON fCoriCos_max                 =   1.4540029928789E-04
(PID.TID 0000.0001) %MON fCoriCos_min                 =   3.5693770017430E-06
(PID.TID 0000.0001) %MON fCoriCos_mean                =   9.2601889431868E-05
(PID.TID 0000.0001) %MON fCoriCos_sd                  =   4.4742416298653E-05
(PID.TID 0000.0001) // CG2D normalisation factor =          0.2454122852291226263129944E-06
(PID.TID 0000.0001) 
 ini_cg2d: sumArea,cg2dTolerance =  5.09904363781794E+14  2.78081767031093E-12
(PID.TID 0000.0001) CONFIG_CHECK: OK
(PID.TID 0000.0001) // =======================================================
(PID.TID 0000.0001) // Model configuration
(PID.TID 0000.0001) // =======================================================
(PID.TID 0000.0001) //
(PID.TID 0000.0001) // "Physical" paramters ( PARM01 in namelist )
(PID.TID 0000.0001) //
(PID.TID 0000.0001) buoyancyRelation = ATMOSPHERIC
(PID.TID 0000.0001) tRef =   /* Reference temperature profile ( oC or oK ) */
(PID.TID 0000.0001)                 2.810890000000000E+02,      /* K =  1 */
(PID.TID 0000.0001)                 2.893210000000000E+02,      /* K =  2 */
(PID.TID 0000.0001)                 3.071910000000000E+02,      /* K =  3 */
(PID.TID 0000.0001)                 3.313770000000000E+02,      /* K =  4 */
(PID.TID 0000.0001)                 4.324130000000000E+02       /* K =  5 */
(PID.TID 0000.0001)     ;
(PID.TID 0000.0001) sRef =   /* Reference salinity profile ( ppt ) */
(PID.TID 0000.0001)     5 @  0.000000000000000E+00              /* K =  1:  5 */
(PID.TID 0000.0001)     ;
(PID.TID 0000.0001) viscAh =   /* Lateral eddy viscosity ( m^2/s ) */
(PID.TID 0000.0001)                 0.000000000000000E+00
(PID.TID 0000.0001)     ;
(PID.TID 0000.0001) viscAh =   /* Lateral biharmonic viscosity ( m^4/s ) */
(PID.TID 0000.0001)                 0.000000000000000E+00
(PID.TID 0000.0001)     ;
(PID.TID 0000.0001) no_slip_sides =  /* Viscous BCs: No-slip sides */
(PID.TID 0000.0001)                   F
(PID.TID 0000.0001)     ;
(PID.TID 0000.0001) viscAr =   /* Vertical eddy viscosity ( units of r^2/s ) */
(PID.TID 0000.0001)                 0.000000000000000E+00
(PID.TID 0000.0001)     ;
(PID.TID 0000.0001) diffKhT =   /* Laplacian diffusion of heat laterally ( m^2/s ) */
(PID.TID 0000.0001)                 0.000000000000000E+00
(PID.TID 0000.0001)     ;
(PID.TID 0000.0001) diffK4T =   /* Bihaarmonic diffusion of heat laterally ( m^4/s ) */
(PID.TID 0000.0001)                 0.000000000000000E+00
(PID.TID 0000.0001)     ;
(PID.TID 0000.0001) diffKzT =   /* Laplacian diffusion of heat vertically ( m^2/s ) */
(PID.TID 0000.0001)                 1.234567000000000E+05
(PID.TID 0000.0001)     ;
(PID.TID 0000.0001) diffKrT =   /* Laplacian diffusion of heat vertically ( m^2/s ) */
(PID.TID 0000.0001)                 0.000000000000000E+00
(PID.TID 0000.0001)     ;
(PID.TID 0000.0001) diffKhS =   /* Laplacian diffusion of salt laterally ( m^2/s ) */
(PID.TID 0000.0001)                 0.000000000000000E+00
(PID.TID 0000.0001)     ;
(PID.TID 0000.0001) diffK4S =   /* Bihaarmonic diffusion of salt laterally ( m^4/s ) */
(PID.TID 0000.0001)                 0.000000000000000E+00
(PID.TID 0000.0001)     ;
(PID.TID 0000.0001) diffKzS =   /* Laplacian diffusion of salt vertically ( m^2/s ) */
(PID.TID 0000.0001)                 1.234567000000000E+05
(PID.TID 0000.0001)     ;
(PID.TID 0000.0001) diffKrS =   /* Laplacian diffusion of salt vertically ( m^2/s ) */
(PID.TID 0000.0001)                 0.000000000000000E+00
(PID.TID 0000.0001)     ;
(PID.TID 0000.0001)  Equation of State : eosType = IDEALG
(PID.TID 0000.0001) tAlpha =   /* Linear EOS thermal expansion coefficient ( 1/degree ) */
(PID.TID 0000.0001)                 1.234567000000000E+05
(PID.TID 0000.0001)     ;
(PID.TID 0000.0001) sBeta =   /* Linear EOS haline contraction coefficient ( 1/ppt ) */
(PID.TID 0000.0001)                 1.234567000000000E+05
(PID.TID 0000.0001)     ;
(PID.TID 0000.0001) atm_Rd =  /* gas constant for dry air ( J/kg/K ) */
(PID.TID 0000.0001)                 2.868571428571428E+02
(PID.TID 0000.0001)     ;
(PID.TID 0000.0001) atm_Cp =  /* specific heat (Cp) of dry air ( J/kg/K ) */
(PID.TID 0000.0001)                 1.004000000000000E+03
(PID.TID 0000.0001)     ;
(PID.TID 0000.0001) atm_kappa =  /* kappa (=Rd/Cp ) of dry air */
(PID.TID 0000.0001)                 2.857142857142857E-01
(PID.TID 0000.0001)     ;
(PID.TID 0000.0001) atm_Rq = /* water vap. specific vol. anomaly relative to dry air */
(PID.TID 0000.0001)                 0.000000000000000E+00
(PID.TID 0000.0001)     ;
(PID.TID 0000.0001) atm_Po =  /* standard reference pressure ( Pa ) */
(PID.TID 0000.0001)                 1.000000000000000E+05
(PID.TID 0000.0001)     ;
(PID.TID 0000.0001) integr_GeoPot =  /* select how the geopotential is integrated */
(PID.TID 0000.0001)                       2
(PID.TID 0000.0001)     ;
(PID.TID 0000.0001) selectFindRoSurf=  /* select how Surf.Ref. pressure is defined */
(PID.TID 0000.0001)                       0
(PID.TID 0000.0001)     ;
(PID.TID 0000.0001) rhonil =   /* Reference density ( kg/m^3 ) */
(PID.TID 0000.0001)                 1.000000000000000E+00
(PID.TID 0000.0001)     ;
(PID.TID 0000.0001) rhoConst =   /* Reference density ( kg/m^3 ) */
(PID.TID 0000.0001)                 1.000000000000000E+00
(PID.TID 0000.0001)     ;
(PID.TID 0000.0001) rhoConstFresh =   /* Reference density ( kg/m^3 ) */
(PID.TID 0000.0001)                 9.998000000000000E+02
(PID.TID 0000.0001)     ;
(PID.TID 0000.0001) gravity =   /* Gravitational acceleration ( m/s^2 ) */
(PID.TID 0000.0001)                 9.810000000000000E+00
(PID.TID 0000.0001)     ;
(PID.TID 0000.0001) gBaro =   /* Barotropic gravity ( m/s^2 ) */
(PID.TID 0000.0001)                 9.810000000000000E+00
(PID.TID 0000.0001)     ;
(PID.TID 0000.0001) rotationPeriod =   /* Rotation Period ( s ) */
(PID.TID 0000.0001)                 8.640000000000000E+04
(PID.TID 0000.0001)     ;
(PID.TID 0000.0001) omega =   /* Angular velocity ( rad/s ) */
(PID.TID 0000.0001)                 7.272205216643040E-05
(PID.TID 0000.0001)     ;
(PID.TID 0000.0001) f0 =   /* Reference coriolis parameter ( 1/s ) */
(PID.TID 0000.0001)                 1.000000000000000E-04
(PID.TID 0000.0001)     ;
(PID.TID 0000.0001) beta =   /* Beta ( 1/(m.s) ) */
(PID.TID 0000.0001)                 9.999999999999999E-12
(PID.TID 0000.0001)     ;
(PID.TID 0000.0001) freeSurfFac =   /* Implicit free surface factor */
(PID.TID 0000.0001)                 1.000000000000000E+00
(PID.TID 0000.0001)     ;
(PID.TID 0000.0001) implicitFreeSurface =   /* Implicit free surface on/off flag */
(PID.TID 0000.0001)                   T
(PID.TID 0000.0001)     ;
(PID.TID 0000.0001) rigidLid =   /* Rigid lid on/off flag */
(PID.TID 0000.0001)                   F
(PID.TID 0000.0001)     ;
(PID.TID 0000.0001) implicSurfPress =   /* Surface Pressure implicit factor (0-1)*/
(PID.TID 0000.0001)                 1.000000000000000E+00
(PID.TID 0000.0001)     ;
(PID.TID 0000.0001) implicDiv2Dflow =   /* Barot. Flow Div. implicit factor (0-1)*/
(PID.TID 0000.0001)                 1.000000000000000E+00
(PID.TID 0000.0001)     ;
(PID.TID 0000.0001) exactConserv =   /* Exact Volume Conservation on/off flag*/
(PID.TID 0000.0001)                   T
(PID.TID 0000.0001)     ;
(PID.TID 0000.0001) uniformLin_PhiSurf =   /* use uniform Bo_surf on/off flag*/
(PID.TID 0000.0001)                   T
(PID.TID 0000.0001)     ;
(PID.TID 0000.0001) nonlinFreeSurf =   /* Non-linear Free Surf. options (-1,0,1,2,3)*/
(PID.TID 0000.0001)                       0
(PID.TID 0000.0001)     ;
(PID.TID 0000.0001)      -1,0= Off ; 1,2,3= On, 2=+rescale gU,gV, 3=+update cg2d solv.
(PID.TID 0000.0001) hFacInf =   /* lower threshold for hFac (nonlinFreeSurf only)*/
(PID.TID 0000.0001)                 2.000000000000000E-01
(PID.TID 0000.0001)     ;
(PID.TID 0000.0001) hFacSup =   /* upper threshold for hFac (nonlinFreeSurf only)*/
(PID.TID 0000.0001)                 2.000000000000000E+00
(PID.TID 0000.0001)     ;
(PID.TID 0000.0001) select_rStar =   /* r* Coordinate options (not yet implemented)*/
(PID.TID 0000.0001)                       0
(PID.TID 0000.0001)     ;
(PID.TID 0000.0001) useRealFreshWaterFlux =   /* Real Fresh Water Flux on/off flag*/
(PID.TID 0000.0001)                   F
(PID.TID 0000.0001)     ;
(PID.TID 0000.0001) convertFW2Salt = /* convert F.W. Flux to Salt Flux (-1=use local S)(ppt)*/
(PID.TID 0000.0001)                 3.500000000000000E+01
(PID.TID 0000.0001)     ;
(PID.TID 0000.0001) multiDimAdvection =   /* enable/disable Multi-Dim Advection */
(PID.TID 0000.0001)                   T
(PID.TID 0000.0001)     ;
(PID.TID 0000.0001) staggerTimeStep =   /* Stagger time stepping on/off flag */
(PID.TID 0000.0001)                   T
(PID.TID 0000.0001)     ;
(PID.TID 0000.0001) momStepping =  /* Momentum equation on/off flag */
(PID.TID 0000.0001)                   T
(PID.TID 0000.0001)     ;
(PID.TID 0000.0001) momAdvection =  /* Momentum advection on/off flag */
(PID.TID 0000.0001)                   T
(PID.TID 0000.0001)     ;
(PID.TID 0000.0001) momViscosity =  /* Momentum viscosity on/off flag */
(PID.TID 0000.0001)                   T
(PID.TID 0000.0001)     ;
(PID.TID 0000.0001) useCoriolis =  /* Coriolis on/off flag */
(PID.TID 0000.0001)                   T
(PID.TID 0000.0001)     ;
(PID.TID 0000.0001) momForcing =  /* Momentum forcing on/off flag */
(PID.TID 0000.0001)                   T
(PID.TID 0000.0001)     ;
(PID.TID 0000.0001) momPressureForcing =  /* Momentum pressure term on/off flag */
(PID.TID 0000.0001)                   T
(PID.TID 0000.0001)     ;
(PID.TID 0000.0001) tempStepping =  /* Temperature equation on/off flag */
(PID.TID 0000.0001)                   T
(PID.TID 0000.0001)     ;
(PID.TID 0000.0001) tempAdvection=  /* Temperature advection on/off flag */
(PID.TID 0000.0001)                   T
(PID.TID 0000.0001)     ;
(PID.TID 0000.0001) tempForcing  =  /* Temperature forcing on/off flag */
(PID.TID 0000.0001)                   T
(PID.TID 0000.0001)     ;
(PID.TID 0000.0001) saltStepping =  /* Salinity equation on/off flag */
(PID.TID 0000.0001)                   T
(PID.TID 0000.0001)     ;
(PID.TID 0000.0001) saltAdvection=  /* Salinity advection on/off flag */
(PID.TID 0000.0001)                   T
(PID.TID 0000.0001)     ;
(PID.TID 0000.0001) saltForcing  =  /* Salinity forcing on/off flag */
(PID.TID 0000.0001)                   T
(PID.TID 0000.0001)     ;
(PID.TID 0000.0001) nonHydrostatic =  /* Non-Hydrostatic on/off flag */
(PID.TID 0000.0001)                   F
(PID.TID 0000.0001)     ;
(PID.TID 0000.0001) useCDscheme =  /* CD scheme on/off flag */
(PID.TID 0000.0001)                   F
(PID.TID 0000.0001)     ;
(PID.TID 0000.0001) useJamartWetPoints= /* Coriolis WetPoints method flag */
(PID.TID 0000.0001)                   F
(PID.TID 0000.0001)     ;
(PID.TID 0000.0001) //
(PID.TID 0000.0001) // Elliptic solver(s) paramters ( PARM02 in namelist )
(PID.TID 0000.0001) //
(PID.TID 0000.0001) cg2dMaxIters =   /* Upper limit on 2d con. grad iterations  */
(PID.TID 0000.0001)                     200
(PID.TID 0000.0001)     ;
(PID.TID 0000.0001) cg2dChkResFreq =   /* 2d con. grad convergence test frequency */
(PID.TID 0000.0001)                       1
(PID.TID 0000.0001)     ;
(PID.TID 0000.0001) cg2dTargetResidual =   /* 2d con. grad target residual  */
(PID.TID 0000.0001)                 1.000000000000000E-07
(PID.TID 0000.0001)     ;
(PID.TID 0000.0001) //
(PID.TID 0000.0001) // Time stepping paramters ( PARM03 in namelist )
(PID.TID 0000.0001) //
(PID.TID 0000.0001) nIter0 =   /* Base timestep number  */
(PID.TID 0000.0001)                       0
(PID.TID 0000.0001)     ;
(PID.TID 0000.0001) nTimeSteps =   /* Number of timesteps */
(PID.TID 0000.0001)                      10
(PID.TID 0000.0001)     ;
(PID.TID 0000.0001) deltatTmom =   /* Momentum equation timestep ( s ) */
(PID.TID 0000.0001)                 4.500000000000000E+02
(PID.TID 0000.0001)     ;
(PID.TID 0000.0001) deltaTfreesurf =   /* FreeSurface equation timestep ( s ) */
(PID.TID 0000.0001)                 4.500000000000000E+02
(PID.TID 0000.0001)     ;
(PID.TID 0000.0001) deltatTtracer =   /* Tracer equation timestep ( s ) */
(PID.TID 0000.0001)                 4.500000000000000E+02
(PID.TID 0000.0001)     ;
(PID.TID 0000.0001) deltatTClock  =   /* Model clock timestep ( s ) */
(PID.TID 0000.0001)                 4.500000000000000E+02
(PID.TID 0000.0001)     ;
(PID.TID 0000.0001) cAdjFreq =   /* Convective adjustment interval ( s ) */
(PID.TID 0000.0001)                 0.000000000000000E+00
(PID.TID 0000.0001)     ;
(PID.TID 0000.0001) forcing_In_AB =   /* put T,S Forcing in Adams-Bash. stepping */
(PID.TID 0000.0001)                   T
(PID.TID 0000.0001)     ;
(PID.TID 0000.0001) abeps =   /* Adams-Bashforth stabilizing weight */
(PID.TID 0000.0001)                 1.000000000000000E-01
(PID.TID 0000.0001)     ;
(PID.TID 0000.0001) startTime =   /* Run start time ( s ). */
(PID.TID 0000.0001)                 0.000000000000000E+00
(PID.TID 0000.0001)     ;
(PID.TID 0000.0001) endTime =   /* Integration ending time ( s ). */
(PID.TID 0000.0001)                 4.500000000000000E+03
(PID.TID 0000.0001)     ;
(PID.TID 0000.0001) pChkPtFreq =   /* Permanent restart/checkpoint file interval ( s ). */
(PID.TID 0000.0001)                 2.592000000000000E+06
(PID.TID 0000.0001)     ;
(PID.TID 0000.0001) chkPtFreq =   /* Rolling restart/checkpoint file interval ( s ). */
(PID.TID 0000.0001)                 0.000000000000000E+00
(PID.TID 0000.0001)     ;
(PID.TID 0000.0001) dumpFreq =   /* Model state write out interval ( s ). */
(PID.TID 0000.0001)                 2.592000000000000E+06
(PID.TID 0000.0001)     ;
(PID.TID 0000.0001) externForcingPeriod =   /* forcing period (s) */
(PID.TID 0000.0001)                 0.000000000000000E+00
(PID.TID 0000.0001)     ;
(PID.TID 0000.0001) externForcingCycle =   /* period of the cyle (s). */
(PID.TID 0000.0001)                 0.000000000000000E+00
(PID.TID 0000.0001)     ;
(PID.TID 0000.0001) tauThetaClimRelax =   /* relaxation time scale (s) */
(PID.TID 0000.0001)                 0.000000000000000E+00
(PID.TID 0000.0001)     ;
(PID.TID 0000.0001) tauSaltClimRelax =   /* relaxation time scale (s) */
(PID.TID 0000.0001)                 0.000000000000000E+00
(PID.TID 0000.0001)     ;
(PID.TID 0000.0001) latBandClimRelax =   /* max. Lat. where relaxation */
(PID.TID 0000.0001)                 1.800000000000000E+02
(PID.TID 0000.0001)     ;
(PID.TID 0000.0001) //
(PID.TID 0000.0001) // Gridding paramters ( PARM04 in namelist )
(PID.TID 0000.0001) //
(PID.TID 0000.0001) usingCartesianGrid =   /* Cartesian coordinates flag ( True / False ) */
(PID.TID 0000.0001)                   F
(PID.TID 0000.0001)     ;
(PID.TID 0000.0001) usingSphericalPolarGrid =   /* Spherical coordinates flag ( True / False ) */
(PID.TID 0000.0001)                   T
(PID.TID 0000.0001)     ;
(PID.TID 0000.0001) groundAtK1 =   /* Lower Boundary (ground) at the surface(k=1) ( T / F ) */
(PID.TID 0000.0001)                   T
(PID.TID 0000.0001)     ;
(PID.TID 0000.0001) Ro_SeaLevel =   /* r(1) ( units of r ) */
(PID.TID 0000.0001)                 1.000000000000000E+05
(PID.TID 0000.0001)     ;
(PID.TID 0000.0001) rkFac =   /* minus Vertical index orientation  */
(PID.TID 0000.0001)                 1.000000000000000E+00
(PID.TID 0000.0001)     ;
(PID.TID 0000.0001) horiVertRatio =   /* Ratio on units : Horiz - Vertical */
(PID.TID 0000.0001)                 9.810000000000000E+00
(PID.TID 0000.0001)     ;
(PID.TID 0000.0001) drC =   /* C spacing ( units of r ) */
(PID.TID 0000.0001)                 5.000000000000000E+03,      /* K =  1 */
(PID.TID 0000.0001)                 1.750000000000000E+04,      /* K =  2 */
(PID.TID 0000.0001)                 2.750000000000000E+04,      /* K =  3 */
(PID.TID 0000.0001)                 2.500000000000000E+04,      /* K =  4 */
(PID.TID 0000.0001)                 1.750000000000000E+04       /* K =  5 */
(PID.TID 0000.0001)     ;
(PID.TID 0000.0001) drF =   /* W spacing ( units of r ) */
(PID.TID 0000.0001)                 1.000000000000000E+04,      /* K =  1 */
(PID.TID 0000.0001)                 2.500000000000000E+04,      /* K =  2 */
(PID.TID 0000.0001)                 3.000000000000000E+04,      /* K =  3 */
(PID.TID 0000.0001)                 2.000000000000000E+04,      /* K =  4 */
(PID.TID 0000.0001)                 1.500000000000000E+04       /* K =  5 */
(PID.TID 0000.0001)     ;
(PID.TID 0000.0001) delX =   /* U spacing ( m - cartesian, degrees - spherical ) */
(PID.TID 0000.0001)   128 @  2.812500000000000E+00              /* I =  1:128 */
(PID.TID 0000.0001)     ;
(PID.TID 0000.0001) delY =   /* V spacing ( m - cartesian, degrees - spherical ) */
(PID.TID 0000.0001)    64 @  2.812500000000000E+00              /* J =  1: 64 */
(PID.TID 0000.0001)     ;
(PID.TID 0000.0001) phiMin =    /* South edge (ignored - cartesian, degrees - spherical ) */
(PID.TID 0000.0001)                -9.000000000000000E+01
(PID.TID 0000.0001)     ;
(PID.TID 0000.0001) thetaMin =    /* West edge ( ignored - cartesian, degrees - spherical ) */
(PID.TID 0000.0001)                 0.000000000000000E+00
(PID.TID 0000.0001)     ;
(PID.TID 0000.0001) rSphere =    /* Radius ( ignored - cartesian, m - spherical ) */
(PID.TID 0000.0001)                 6.370000000000000E+06
(PID.TID 0000.0001)     ;
(PID.TID 0000.0001) xcoord =   /* P-point X coord ( m - cartesian, degrees - spherical ) */
(PID.TID 0000.0001)                 1.406250000000000E+00,      /* I =  1 */
(PID.TID 0000.0001)                 4.218750000000000E+00,      /* I =  2 */
(PID.TID 0000.0001)                 7.031250000000000E+00,      /* I =  3 */
(PID.TID 0000.0001)                 9.843750000000000E+00,      /* I =  4 */
(PID.TID 0000.0001)                 1.265625000000000E+01,      /* I =  5 */
(PID.TID 0000.0001)                 1.546875000000000E+01,      /* I =  6 */
(PID.TID 0000.0001)                 1.828125000000000E+01,      /* I =  7 */
(PID.TID 0000.0001)                 2.109375000000000E+01,      /* I =  8 */
(PID.TID 0000.0001)                 2.390625000000000E+01,      /* I =  9 */
(PID.TID 0000.0001)                 2.671875000000000E+01,      /* I = 10 */
(PID.TID 0000.0001)                 2.953125000000000E+01,      /* I = 11 */
(PID.TID 0000.0001)                 3.234375000000000E+01,      /* I = 12 */
(PID.TID 0000.0001)                 3.515625000000000E+01,      /* I = 13 */
(PID.TID 0000.0001)                 3.796875000000000E+01,      /* I = 14 */
(PID.TID 0000.0001)                 4.078125000000000E+01,      /* I = 15 */
(PID.TID 0000.0001)                 4.359375000000000E+01,      /* I = 16 */
(PID.TID 0000.0001)                 4.640625000000000E+01,      /* I = 17 */
(PID.TID 0000.0001)                 4.921875000000000E+01,      /* I = 18 */
(PID.TID 0000.0001)                 5.203125000000000E+01,      /* I = 19 */
(PID.TID 0000.0001)                 5.484375000000000E+01,      /* I = 20 */
(PID.TID 0000.0001)                 5.765625000000000E+01,      /* I = 21 */
(PID.TID 0000.0001)                 6.046875000000000E+01,      /* I = 22 */
(PID.TID 0000.0001)                 6.328125000000000E+01,      /* I = 23 */
(PID.TID 0000.0001)                 6.609375000000000E+01,      /* I = 24 */
(PID.TID 0000.0001)                 6.890625000000000E+01,      /* I = 25 */
(PID.TID 0000.0001)                 7.171875000000000E+01,      /* I = 26 */
(PID.TID 0000.0001)                 7.453125000000000E+01,      /* I = 27 */
(PID.TID 0000.0001)                 7.734375000000000E+01,      /* I = 28 */
(PID.TID 0000.0001)                 8.015625000000000E+01,      /* I = 29 */
(PID.TID 0000.0001)                 8.296875000000000E+01,      /* I = 30 */
(PID.TID 0000.0001)                 8.578125000000000E+01,      /* I = 31 */
(PID.TID 0000.0001)                 8.859375000000000E+01,      /* I = 32 */
(PID.TID 0000.0001)                 9.140625000000000E+01,      /* I = 33 */
(PID.TID 0000.0001)                 9.421875000000000E+01,      /* I = 34 */
(PID.TID 0000.0001)                 9.703125000000000E+01,      /* I = 35 */
(PID.TID 0000.0001)                 9.984375000000000E+01,      /* I = 36 */
(PID.TID 0000.0001)                 1.026562500000000E+02,      /* I = 37 */
(PID.TID 0000.0001)                 1.054687500000000E+02,      /* I = 38 */
(PID.TID 0000.0001)                 1.082812500000000E+02,      /* I = 39 */
(PID.TID 0000.0001)                 1.110937500000000E+02,      /* I = 40 */
(PID.TID 0000.0001)                 1.139062500000000E+02,      /* I = 41 */
(PID.TID 0000.0001)                 1.167187500000000E+02,      /* I = 42 */
(PID.TID 0000.0001)                 1.195312500000000E+02,      /* I = 43 */
(PID.TID 0000.0001)                 1.223437500000000E+02,      /* I = 44 */
(PID.TID 0000.0001)                 1.251562500000000E+02,      /* I = 45 */
(PID.TID 0000.0001)                 1.279687500000000E+02,      /* I = 46 */
(PID.TID 0000.0001)                 1.307812500000000E+02,      /* I = 47 */
(PID.TID 0000.0001)                 1.335937500000000E+02,      /* I = 48 */
(PID.TID 0000.0001)                 1.364062500000000E+02,      /* I = 49 */
(PID.TID 0000.0001)                 1.392187500000000E+02,      /* I = 50 */
(PID.TID 0000.0001)                 1.420312500000000E+02,      /* I = 51 */
(PID.TID 0000.0001)                 1.448437500000000E+02,      /* I = 52 */
(PID.TID 0000.0001)                 1.476562500000000E+02,      /* I = 53 */
(PID.TID 0000.0001)                 1.504687500000000E+02,      /* I = 54 */
(PID.TID 0000.0001)                 1.532812500000000E+02,      /* I = 55 */
(PID.TID 0000.0001)                 1.560937500000000E+02,      /* I = 56 */
(PID.TID 0000.0001)                 1.589062500000000E+02,      /* I = 57 */
(PID.TID 0000.0001)                 1.617187500000000E+02,      /* I = 58 */
(PID.TID 0000.0001)                 1.645312500000000E+02,      /* I = 59 */
(PID.TID 0000.0001)                 1.673437500000000E+02,      /* I = 60 */
(PID.TID 0000.0001)                 1.701562500000000E+02,      /* I = 61 */
(PID.TID 0000.0001)                 1.729687500000000E+02,      /* I = 62 */
(PID.TID 0000.0001)                 1.757812500000000E+02,      /* I = 63 */
(PID.TID 0000.0001)                 1.785937500000000E+02,      /* I = 64 */
(PID.TID 0000.0001)                 1.814062500000000E+02,      /* I = 65 */
(PID.TID 0000.0001)                 1.842187500000000E+02,      /* I = 66 */
(PID.TID 0000.0001)                 1.870312500000000E+02,      /* I = 67 */
(PID.TID 0000.0001)                 1.898437500000000E+02,      /* I = 68 */
(PID.TID 0000.0001)                 1.926562500000000E+02,      /* I = 69 */
(PID.TID 0000.0001)                 1.954687500000000E+02,      /* I = 70 */
(PID.TID 0000.0001)                 1.982812500000000E+02,      /* I = 71 */
(PID.TID 0000.0001)                 2.010937500000000E+02,      /* I = 72 */
(PID.TID 0000.0001)                 2.039062500000000E+02,      /* I = 73 */
(PID.TID 0000.0001)                 2.067187500000000E+02,      /* I = 74 */
(PID.TID 0000.0001)                 2.095312500000000E+02,      /* I = 75 */
(PID.TID 0000.0001)                 2.123437500000000E+02,      /* I = 76 */
(PID.TID 0000.0001)                 2.151562500000000E+02,      /* I = 77 */
(PID.TID 0000.0001)                 2.179687500000000E+02,      /* I = 78 */
(PID.TID 0000.0001)                 2.207812500000000E+02,      /* I = 79 */
(PID.TID 0000.0001)                 2.235937500000000E+02,      /* I = 80 */
(PID.TID 0000.0001)                 2.264062500000000E+02,      /* I = 81 */
(PID.TID 0000.0001)                 2.292187500000000E+02,      /* I = 82 */
(PID.TID 0000.0001)                 2.320312500000000E+02,      /* I = 83 */
(PID.TID 0000.0001)                 2.348437500000000E+02,      /* I = 84 */
(PID.TID 0000.0001)                 2.376562500000000E+02,      /* I = 85 */
(PID.TID 0000.0001)                 2.404687500000000E+02,      /* I = 86 */
(PID.TID 0000.0001)                 2.432812500000000E+02,      /* I = 87 */
(PID.TID 0000.0001)                 2.460937500000000E+02,      /* I = 88 */
(PID.TID 0000.0001)                 2.489062500000000E+02,      /* I = 89 */
(PID.TID 0000.0001)                 2.517187500000000E+02,      /* I = 90 */
(PID.TID 0000.0001)                 2.545312500000000E+02,      /* I = 91 */
(PID.TID 0000.0001)                 2.573437500000000E+02,      /* I = 92 */
(PID.TID 0000.0001)                 2.601562500000000E+02,      /* I = 93 */
(PID.TID 0000.0001)                 2.629687500000000E+02,      /* I = 94 */
(PID.TID 0000.0001)                 2.657812500000000E+02,      /* I = 95 */
(PID.TID 0000.0001)                 2.685937500000000E+02,      /* I = 96 */
(PID.TID 0000.0001)                 2.714062500000000E+02,      /* I = 97 */
(PID.TID 0000.0001)                 2.742187500000000E+02,      /* I = 98 */
(PID.TID 0000.0001)                 2.770312500000000E+02,      /* I = 99 */
(PID.TID 0000.0001)                 2.798437500000000E+02,      /* I =100 */
(PID.TID 0000.0001)                 2.826562500000000E+02,      /* I =101 */
(PID.TID 0000.0001)                 2.854687500000000E+02,      /* I =102 */
(PID.TID 0000.0001)                 2.882812500000000E+02,      /* I =103 */
(PID.TID 0000.0001)                 2.910937500000000E+02,      /* I =104 */
(PID.TID 0000.0001)                 2.939062500000000E+02,      /* I =105 */
(PID.TID 0000.0001)                 2.967187500000000E+02,      /* I =106 */
(PID.TID 0000.0001)                 2.995312500000000E+02,      /* I =107 */
(PID.TID 0000.0001)                 3.023437500000000E+02,      /* I =108 */
(PID.TID 0000.0001)                 3.051562500000000E+02,      /* I =109 */
(PID.TID 0000.0001)                 3.079687500000000E+02,      /* I =110 */
(PID.TID 0000.0001)                 3.107812500000000E+02,      /* I =111 */
(PID.TID 0000.0001)                 3.135937500000000E+02,      /* I =112 */
(PID.TID 0000.0001)                 3.164062500000000E+02,      /* I =113 */
(PID.TID 0000.0001)                 3.192187500000000E+02,      /* I =114 */
(PID.TID 0000.0001)                 3.220312500000000E+02,      /* I =115 */
(PID.TID 0000.0001)                 3.248437500000000E+02,      /* I =116 */
(PID.TID 0000.0001)                 3.276562500000000E+02,      /* I =117 */
(PID.TID 0000.0001)                 3.304687500000000E+02,      /* I =118 */
(PID.TID 0000.0001)                 3.332812500000000E+02,      /* I =119 */
(PID.TID 0000.0001)                 3.360937500000000E+02,      /* I =120 */
(PID.TID 0000.0001)                 3.389062500000000E+02,      /* I =121 */
(PID.TID 0000.0001)                 3.417187500000000E+02,      /* I =122 */
(PID.TID 0000.0001)                 3.445312500000000E+02,      /* I =123 */
(PID.TID 0000.0001)                 3.473437500000000E+02,      /* I =124 */
(PID.TID 0000.0001)                 3.501562500000000E+02,      /* I =125 */
(PID.TID 0000.0001)                 3.529687500000000E+02,      /* I =126 */
(PID.TID 0000.0001)                 3.557812500000000E+02,      /* I =127 */
(PID.TID 0000.0001)                 3.585937500000000E+02       /* I =128 */
(PID.TID 0000.0001)     ;
(PID.TID 0000.0001) ycoord =   /* P-point Y coord ( m - cartesian, degrees - spherical ) */
(PID.TID 0000.0001)                -8.859375000000000E+01,      /* J =  1 */
(PID.TID 0000.0001)                -8.578125000000000E+01,      /* J =  2 */
(PID.TID 0000.0001)                -8.296875000000000E+01,      /* J =  3 */
(PID.TID 0000.0001)                -8.015625000000000E+01,      /* J =  4 */
(PID.TID 0000.0001)                -7.734375000000000E+01,      /* J =  5 */
(PID.TID 0000.0001)                -7.453125000000000E+01,      /* J =  6 */
(PID.TID 0000.0001)                -7.171875000000000E+01,      /* J =  7 */
(PID.TID 0000.0001)                -6.890625000000000E+01,      /* J =  8 */
(PID.TID 0000.0001)                -6.609375000000000E+01,      /* J =  9 */
(PID.TID 0000.0001)                -6.328125000000000E+01,      /* J = 10 */
(PID.TID 0000.0001)                -6.046875000000000E+01,      /* J = 11 */
(PID.TID 0000.0001)                -5.765625000000000E+01,      /* J = 12 */
(PID.TID 0000.0001)                -5.484375000000000E+01,      /* J = 13 */
(PID.TID 0000.0001)                -5.203125000000000E+01,      /* J = 14 */
(PID.TID 0000.0001)                -4.921875000000000E+01,      /* J = 15 */
(PID.TID 0000.0001)                -4.640625000000000E+01,      /* J = 16 */
(PID.TID 0000.0001)                -4.359375000000000E+01,      /* J = 17 */
(PID.TID 0000.0001)                -4.078125000000000E+01,      /* J = 18 */
(PID.TID 0000.0001)                -3.796875000000000E+01,      /* J = 19 */
(PID.TID 0000.0001)                -3.515625000000000E+01,      /* J = 20 */
(PID.TID 0000.0001)                -3.234375000000000E+01,      /* J = 21 */
(PID.TID 0000.0001)                -2.953125000000000E+01,      /* J = 22 */
(PID.TID 0000.0001)                -2.671875000000000E+01,      /* J = 23 */
(PID.TID 0000.0001)                -2.390625000000000E+01,      /* J = 24 */
(PID.TID 0000.0001)                -2.109375000000000E+01,      /* J = 25 */
(PID.TID 0000.0001)                -1.828125000000000E+01,      /* J = 26 */
(PID.TID 0000.0001)                -1.546875000000000E+01,      /* J = 27 */
(PID.TID 0000.0001)                -1.265625000000000E+01,      /* J = 28 */
(PID.TID 0000.0001)                -9.843750000000000E+00,      /* J = 29 */
(PID.TID 0000.0001)                -7.031250000000000E+00,      /* J = 30 */
(PID.TID 0000.0001)                -4.218750000000000E+00,      /* J = 31 */
(PID.TID 0000.0001)                -1.406250000000000E+00,      /* J = 32 */
(PID.TID 0000.0001)                 1.406250000000000E+00,      /* J = 33 */
(PID.TID 0000.0001)                 4.218750000000000E+00,      /* J = 34 */
(PID.TID 0000.0001)                 7.031250000000000E+00,      /* J = 35 */
(PID.TID 0000.0001)                 9.843750000000000E+00,      /* J = 36 */
(PID.TID 0000.0001)                 1.265625000000000E+01,      /* J = 37 */
(PID.TID 0000.0001)                 1.546875000000000E+01,      /* J = 38 */
(PID.TID 0000.0001)                 1.828125000000000E+01,      /* J = 39 */
(PID.TID 0000.0001)                 2.109375000000000E+01,      /* J = 40 */
(PID.TID 0000.0001)                 2.390625000000000E+01,      /* J = 41 */
(PID.TID 0000.0001)                 2.671875000000000E+01,      /* J = 42 */
(PID.TID 0000.0001)                 2.953125000000000E+01,      /* J = 43 */
(PID.TID 0000.0001)                 3.234375000000000E+01,      /* J = 44 */
(PID.TID 0000.0001)                 3.515625000000000E+01,      /* J = 45 */
(PID.TID 0000.0001)                 3.796875000000000E+01,      /* J = 46 */
(PID.TID 0000.0001)                 4.078125000000000E+01,      /* J = 47 */
(PID.TID 0000.0001)                 4.359375000000000E+01,      /* J = 48 */
(PID.TID 0000.0001)                 4.640625000000000E+01,      /* J = 49 */
(PID.TID 0000.0001)                 4.921875000000000E+01,      /* J = 50 */
(PID.TID 0000.0001)                 5.203125000000000E+01,      /* J = 51 */
(PID.TID 0000.0001)                 5.484375000000000E+01,      /* J = 52 */
(PID.TID 0000.0001)                 5.765625000000000E+01,      /* J = 53 */
(PID.TID 0000.0001)                 6.046875000000000E+01,      /* J = 54 */
(PID.TID 0000.0001)                 6.328125000000000E+01,      /* J = 55 */
(PID.TID 0000.0001)                 6.609375000000000E+01,      /* J = 56 */
(PID.TID 0000.0001)                 6.890625000000000E+01,      /* J = 57 */
(PID.TID 0000.0001)                 7.171875000000000E+01,      /* J = 58 */
(PID.TID 0000.0001)                 7.453125000000000E+01,      /* J = 59 */
(PID.TID 0000.0001)                 7.734375000000000E+01,      /* J = 60 */
(PID.TID 0000.0001)                 8.015625000000000E+01,      /* J = 61 */
(PID.TID 0000.0001)                 8.296875000000000E+01,      /* J = 62 */
(PID.TID 0000.0001)                 8.578125000000000E+01,      /* J = 63 */
(PID.TID 0000.0001)                 8.859375000000000E+01       /* J = 64 */
(PID.TID 0000.0001)     ;
(PID.TID 0000.0001) rcoord =   /* P-point R coordinate (  units of r ) */
(PID.TID 0000.0001)                 9.500000000000000E+04,      /* K =  1 */
(PID.TID 0000.0001)                 7.750000000000000E+04,      /* K =  2 */
(PID.TID 0000.0001)                 5.000000000000000E+04,      /* K =  3 */
(PID.TID 0000.0001)                 2.500000000000000E+04,      /* K =  4 */
(PID.TID 0000.0001)                 7.500000000000000E+03       /* K =  5 */
(PID.TID 0000.0001)     ;
(PID.TID 0000.0001) rF =   /* W-Interf. R coordinate (  units of r ) */
(PID.TID 0000.0001)                 1.000000000000000E+05,      /* K =  1 */
(PID.TID 0000.0001)                 9.000000000000000E+04,      /* K =  2 */
(PID.TID 0000.0001)                 6.500000000000000E+04,      /* K =  3 */
(PID.TID 0000.0001)                 3.500000000000000E+04,      /* K =  4 */
(PID.TID 0000.0001)                 1.500000000000000E+04,      /* K =  5 */
(PID.TID 0000.0001)                 0.000000000000000E+00       /* K =  6 */
(PID.TID 0000.0001)     ;
(PID.TID 0000.0001) dxF =  /* dxF(:,1,:,1) ( m - cartesian, degrees - spherical ) */
(PID.TID 0000.0001)   128 @  7.673714381622298E+03              /* I =  1:128 */
(PID.TID 0000.0001)     ;
(PID.TID 0000.0001) dxF =  /* dxF(1,:,1,:) ( m - cartesian, degrees - spherical ) */
(PID.TID 0000.0001)                 7.673714381622298E+03,      /* J =  1 */
(PID.TID 0000.0001)                 2.300265649478360E+04,      /* J =  2 */
(PID.TID 0000.0001)                 3.827618319365421E+04,      /* J =  3 */
(PID.TID 0000.0001)                 5.345749921461356E+04,      /* J =  4 */
(PID.TID 0000.0001)                 6.851003143764105E+04,      /* J =  5 */
(PID.TID 0000.0001)                 8.339751699416523E+04,      /* J =  6 */
(PID.TID 0000.0001)                 9.808409062749070E+04,      /* J =  7 */
(PID.TID 0000.0001)                 1.125343710953429E+05,      /* J =  8 */
(PID.TID 0000.0001)                 1.267135464063795E+05,      /* J =  9 */
(PID.TID 0000.0001)                 1.405874576853274E+05,      /* J = 10 */
(PID.TID 0000.0001)                 1.541226814647045E+05,      /* J = 11 */
(PID.TID 0000.0001)                 1.672866102048804E+05,      /* J = 12 */
(PID.TID 0000.0001)                 1.800475308484964E+05,      /* J = 13 */
(PID.TID 0000.0001)                 1.923747012199971E+05,      /* J = 14 */
(PID.TID 0000.0001)                 2.042384240862251E+05,      /* J = 15 */
(PID.TID 0000.0001)                 2.156101186996563E+05,      /* J = 16 */
(PID.TID 0000.0001)                 2.264623896519241E+05,      /* J = 17 */
(PID.TID 0000.0001)                 2.367690928717576E+05,      /* J = 18 */
(PID.TID 0000.0001)                 2.465053986083400E+05,      /* J = 19 */
(PID.TID 0000.0001)                 2.556478512483520E+05,      /* J = 20 */
(PID.TID 0000.0001)                 2.641744258225996E+05,      /* J = 21 */
(PID.TID 0000.0001)                 2.720645810660936E+05,      /* J = 22 */
(PID.TID 0000.0001)                 2.792993089037566E+05,      /* J = 23 */
(PID.TID 0000.0001)                 2.858611802425402E+05,      /* J = 24 */
(PID.TID 0000.0001)                 2.917343869596373E+05,      /* J = 25 */
(PID.TID 0000.0001)                 2.969047799856343E+05,      /* J = 26 */
(PID.TID 0000.0001)                 3.013599033908587E+05,      /* J = 27 */
(PID.TID 0000.0001)                 3.050890243928044E+05,      /* J = 28 */
(PID.TID 0000.0001)                 3.080831592123453E+05,      /* J = 29 */
(PID.TID 0000.0001)                 3.103350947164461E+05,      /* J = 30 */
(PID.TID 0000.0001)                 3.118394057952310E+05,      /* J = 31 */
(PID.TID 0000.0001)     2 @  3.125924684315491E+05,             /* J = 32: 33 */
(PID.TID 0000.0001)                 3.118394057952310E+05,      /* J = 34 */
(PID.TID 0000.0001)                 3.103350947164461E+05,      /* J = 35 */
(PID.TID 0000.0001)                 3.080831592123453E+05,      /* J = 36 */
(PID.TID 0000.0001)                 3.050890243928044E+05,      /* J = 37 */
(PID.TID 0000.0001)                 3.013599033908587E+05,      /* J = 38 */
(PID.TID 0000.0001)                 2.969047799856343E+05,      /* J = 39 */
(PID.TID 0000.0001)                 2.917343869596373E+05,      /* J = 40 */
(PID.TID 0000.0001)                 2.858611802425402E+05,      /* J = 41 */
(PID.TID 0000.0001)                 2.792993089037566E+05,      /* J = 42 */
(PID.TID 0000.0001)                 2.720645810660936E+05,      /* J = 43 */
(PID.TID 0000.0001)                 2.641744258225996E+05,      /* J = 44 */
(PID.TID 0000.0001)                 2.556478512483520E+05,      /* J = 45 */
(PID.TID 0000.0001)                 2.465053986083400E+05,      /* J = 46 */
(PID.TID 0000.0001)                 2.367690928717576E+05,      /* J = 47 */
(PID.TID 0000.0001)                 2.264623896519241E+05,      /* J = 48 */
(PID.TID 0000.0001)                 2.156101186996563E+05,      /* J = 49 */
(PID.TID 0000.0001)                 2.042384240862251E+05,      /* J = 50 */
(PID.TID 0000.0001)                 1.923747012199971E+05,      /* J = 51 */
(PID.TID 0000.0001)                 1.800475308484964E+05,      /* J = 52 */
(PID.TID 0000.0001)                 1.672866102048804E+05,      /* J = 53 */
(PID.TID 0000.0001)                 1.541226814647045E+05,      /* J = 54 */
(PID.TID 0000.0001)                 1.405874576853274E+05,      /* J = 55 */
(PID.TID 0000.0001)                 1.267135464063795E+05,      /* J = 56 */
(PID.TID 0000.0001)                 1.125343710953429E+05,      /* J = 57 */
(PID.TID 0000.0001)                 9.808409062749070E+04,      /* J = 58 */
(PID.TID 0000.0001)                 8.339751699416523E+04,      /* J = 59 */
(PID.TID 0000.0001)                 6.851003143764105E+04,      /* J = 60 */
(PID.TID 0000.0001)                 5.345749921461356E+04,      /* J = 61 */
(PID.TID 0000.0001)                 3.827618319365421E+04,      /* J = 62 */
(PID.TID 0000.0001)                 2.300265649478360E+04,      /* J = 63 */
(PID.TID 0000.0001)                 7.673714381622298E+03       /* J = 64 */
(PID.TID 0000.0001)     ;
(PID.TID 0000.0001) dyF =  /* dyF(:,1,:,1) ( m - cartesian, degrees - spherical ) */
(PID.TID 0000.0001)   128 @  3.126866438026091E+05              /* I =  1:128 */
(PID.TID 0000.0001)     ;
(PID.TID 0000.0001) dyF =  /* dyF(1,:,1,:) ( m - cartesian, degrees - spherical ) */
(PID.TID 0000.0001)    64 @  3.126866438026091E+05              /* J =  1: 64 */
(PID.TID 0000.0001)     ;
(PID.TID 0000.0001) dxG =  /* dxG(:,1,:,1) ( m - cartesian, degrees - spherical ) */
(PID.TID 0000.0001)   128 @  0.000000000000000E+00              /* I =  1:128 */
(PID.TID 0000.0001)     ;
(PID.TID 0000.0001) dxG =  /* dxG(1,:,1,:) ( m - cartesian, degrees - spherical ) */
(PID.TID 0000.0001)                 0.000000000000000E+00,      /* J =  1 */
(PID.TID 0000.0001)                 1.534280640463982E+04,      /* J =  2 */
(PID.TID 0000.0001)                 3.064865064477965E+04,      /* J =  3 */
(PID.TID 0000.0001)                 4.588065960101153E+04,      /* J =  4 */
(PID.TID 0000.0001)                 6.100213802959342E+04,      /* J =  5 */
(PID.TID 0000.0001)                 7.597665696450579E+04,      /* J =  6 */
(PID.TID 0000.0001)                 9.076814147802140E+04,      /* J =  7 */
(PID.TID 0000.0001)                 1.053409575883663E+05,      /* J =  8 */
(PID.TID 0000.0001)                 1.196599981051027E+05,      /* J =  9 */
(PID.TID 0000.0001)                 1.336907672054259E+05,      /* J = 10 */
(PID.TID 0000.0001)                 1.473994635376230E+05,      /* J = 11 */
(PID.TID 0000.0001)                 1.607530616514898E+05,      /* J = 12 */
(PID.TID 0000.0001)                 1.737193915595329E+05,      /* J = 13 */
(PID.TID 0000.0001)                 1.862672162372875E+05,      /* J = 14 */
(PID.TID 0000.0001)                 1.983663068760452E+05,      /* J = 15 */
(PID.TID 0000.0001)                 2.099875157067021E+05,      /* J = 16 */
(PID.TID 0000.0001)                 2.211028462192875E+05,      /* J = 17 */
(PID.TID 0000.0001)                 2.316855206090085E+05,      /* J = 18 */
(PID.TID 0000.0001)                 2.417100442863275E+05,      /* J = 19 */
(PID.TID 0000.0001)                 2.511522672956614E+05,      /* J = 20 */
(PID.TID 0000.0001)                 2.599894424947395E+05,      /* J = 21 */
(PID.TID 0000.0001)                 2.682002803544621E+05,      /* J = 22 */
(PID.TID 0000.0001)                 2.757650002472408E+05,      /* J = 23 */
(PID.TID 0000.0001)                 2.826653781002625E+05,      /* J = 24 */
(PID.TID 0000.0001)                 2.888847902988777E+05,      /* J = 25 */
(PID.TID 0000.0001)                 2.944082537343438E+05,      /* J = 26 */
(PID.TID 0000.0001)                 2.992224618994464E+05,      /* J = 27 */
(PID.TID 0000.0001)                 3.033158169450409E+05,      /* J = 28 */
(PID.TID 0000.0001)                 3.066784576202870E+05,      /* J = 29 */
(PID.TID 0000.0001)                 3.093022830292655E+05,      /* J = 30 */
(PID.TID 0000.0001)                 3.111809721467461E+05,      /* J = 31 */
(PID.TID 0000.0001)                 3.123099990460912E+05,      /* J = 32 */
(PID.TID 0000.0001)                 3.126866438026091E+05,      /* J = 33 */
(PID.TID 0000.0001)                 3.123099990460912E+05,      /* J = 34 */
(PID.TID 0000.0001)                 3.111809721467461E+05,      /* J = 35 */
(PID.TID 0000.0001)                 3.093022830292655E+05,      /* J = 36 */
(PID.TID 0000.0001)                 3.066784576202870E+05,      /* J = 37 */
(PID.TID 0000.0001)                 3.033158169450409E+05,      /* J = 38 */
(PID.TID 0000.0001)                 2.992224618994464E+05,      /* J = 39 */
(PID.TID 0000.0001)                 2.944082537343438E+05,      /* J = 40 */
(PID.TID 0000.0001)                 2.888847902988777E+05,      /* J = 41 */
(PID.TID 0000.0001)                 2.826653781002625E+05,      /* J = 42 */
(PID.TID 0000.0001)                 2.757650002472408E+05,      /* J = 43 */
(PID.TID 0000.0001)                 2.682002803544621E+05,      /* J = 44 */
(PID.TID 0000.0001)                 2.599894424947395E+05,      /* J = 45 */
(PID.TID 0000.0001)                 2.511522672956614E+05,      /* J = 46 */
(PID.TID 0000.0001)                 2.417100442863275E+05,      /* J = 47 */
(PID.TID 0000.0001)                 2.316855206090085E+05,      /* J = 48 */
(PID.TID 0000.0001)                 2.211028462192875E+05,      /* J = 49 */
(PID.TID 0000.0001)                 2.099875157067021E+05,      /* J = 50 */
(PID.TID 0000.0001)                 1.983663068760452E+05,      /* J = 51 */
(PID.TID 0000.0001)                 1.862672162372875E+05,      /* J = 52 */
(PID.TID 0000.0001)                 1.737193915595329E+05,      /* J = 53 */
(PID.TID 0000.0001)                 1.607530616514898E+05,      /* J = 54 */
(PID.TID 0000.0001)                 1.473994635376230E+05,      /* J = 55 */
(PID.TID 0000.0001)                 1.336907672054259E+05,      /* J = 56 */
(PID.TID 0000.0001)                 1.196599981051027E+05,      /* J = 57 */
(PID.TID 0000.0001)                 1.053409575883663E+05,      /* J = 58 */
(PID.TID 0000.0001)                 9.076814147802140E+04,      /* J = 59 */
(PID.TID 0000.0001)                 7.597665696450579E+04,      /* J = 60 */
(PID.TID 0000.0001)                 6.100213802959342E+04,      /* J = 61 */
(PID.TID 0000.0001)                 4.588065960101153E+04,      /* J = 62 */
(PID.TID 0000.0001)                 3.064865064477965E+04,      /* J = 63 */
(PID.TID 0000.0001)                 1.534280640463982E+04       /* J = 64 */
(PID.TID 0000.0001)     ;
(PID.TID 0000.0001) dyG =  /* dyG(:,1,:,1) ( m - cartesian, degrees - spherical ) */
(PID.TID 0000.0001)   128 @  3.126866438026091E+05              /* I =  1:128 */
(PID.TID 0000.0001)     ;
(PID.TID 0000.0001) dyG =  /* dyG(1,:,1,:) ( m - cartesian, degrees - spherical ) */
(PID.TID 0000.0001)    64 @  3.126866438026091E+05              /* J =  1: 64 */
(PID.TID 0000.0001)     ;
(PID.TID 0000.0001) dxC =  /* dxC(:,1,:,1) ( m - cartesian, degrees - spherical ) */
(PID.TID 0000.0001)   128 @  7.673714381622298E+03              /* I =  1:128 */
(PID.TID 0000.0001)     ;
(PID.TID 0000.0001) dxC =  /* dxC(1,:,1,:) ( m - cartesian, degrees - spherical ) */
(PID.TID 0000.0001)                 7.673714381622298E+03,      /* J =  1 */
(PID.TID 0000.0001)                 2.300265649478360E+04,      /* J =  2 */
(PID.TID 0000.0001)                 3.827618319365421E+04,      /* J =  3 */
(PID.TID 0000.0001)                 5.345749921461356E+04,      /* J =  4 */
(PID.TID 0000.0001)                 6.851003143764105E+04,      /* J =  5 */
(PID.TID 0000.0001)                 8.339751699416523E+04,      /* J =  6 */
(PID.TID 0000.0001)                 9.808409062749070E+04,      /* J =  7 */
(PID.TID 0000.0001)                 1.125343710953429E+05,      /* J =  8 */
(PID.TID 0000.0001)                 1.267135464063795E+05,      /* J =  9 */
(PID.TID 0000.0001)                 1.405874576853274E+05,      /* J = 10 */
(PID.TID 0000.0001)                 1.541226814647045E+05,      /* J = 11 */
(PID.TID 0000.0001)                 1.672866102048804E+05,      /* J = 12 */
(PID.TID 0000.0001)                 1.800475308484964E+05,      /* J = 13 */
(PID.TID 0000.0001)                 1.923747012199971E+05,      /* J = 14 */
(PID.TID 0000.0001)                 2.042384240862251E+05,      /* J = 15 */
(PID.TID 0000.0001)                 2.156101186996563E+05,      /* J = 16 */
(PID.TID 0000.0001)                 2.264623896519241E+05,      /* J = 17 */
(PID.TID 0000.0001)                 2.367690928717576E+05,      /* J = 18 */
(PID.TID 0000.0001)                 2.465053986083400E+05,      /* J = 19 */
(PID.TID 0000.0001)                 2.556478512483520E+05,      /* J = 20 */
(PID.TID 0000.0001)                 2.641744258225996E+05,      /* J = 21 */
(PID.TID 0000.0001)                 2.720645810660936E+05,      /* J = 22 */
(PID.TID 0000.0001)                 2.792993089037566E+05,      /* J = 23 */
(PID.TID 0000.0001)                 2.858611802425402E+05,      /* J = 24 */
(PID.TID 0000.0001)                 2.917343869596373E+05,      /* J = 25 */
(PID.TID 0000.0001)                 2.969047799856343E+05,      /* J = 26 */
(PID.TID 0000.0001)                 3.013599033908587E+05,      /* J = 27 */
(PID.TID 0000.0001)                 3.050890243928044E+05,      /* J = 28 */
(PID.TID 0000.0001)                 3.080831592123453E+05,      /* J = 29 */
(PID.TID 0000.0001)                 3.103350947164461E+05,      /* J = 30 */
(PID.TID 0000.0001)                 3.118394057952310E+05,      /* J = 31 */
(PID.TID 0000.0001)     2 @  3.125924684315491E+05,             /* J = 32: 33 */
(PID.TID 0000.0001)                 3.118394057952310E+05,      /* J = 34 */
(PID.TID 0000.0001)                 3.103350947164461E+05,      /* J = 35 */
(PID.TID 0000.0001)                 3.080831592123453E+05,      /* J = 36 */
(PID.TID 0000.0001)                 3.050890243928044E+05,      /* J = 37 */
(PID.TID 0000.0001)                 3.013599033908587E+05,      /* J = 38 */
(PID.TID 0000.0001)                 2.969047799856343E+05,      /* J = 39 */
(PID.TID 0000.0001)                 2.917343869596373E+05,      /* J = 40 */
(PID.TID 0000.0001)                 2.858611802425402E+05,      /* J = 41 */
(PID.TID 0000.0001)                 2.792993089037566E+05,      /* J = 42 */
(PID.TID 0000.0001)                 2.720645810660936E+05,      /* J = 43 */
(PID.TID 0000.0001)                 2.641744258225996E+05,      /* J = 44 */
(PID.TID 0000.0001)                 2.556478512483520E+05,      /* J = 45 */
(PID.TID 0000.0001)                 2.465053986083400E+05,      /* J = 46 */
(PID.TID 0000.0001)                 2.367690928717576E+05,      /* J = 47 */
(PID.TID 0000.0001)                 2.264623896519241E+05,      /* J = 48 */
(PID.TID 0000.0001)                 2.156101186996563E+05,      /* J = 49 */
(PID.TID 0000.0001)                 2.042384240862251E+05,      /* J = 50 */
(PID.TID 0000.0001)                 1.923747012199971E+05,      /* J = 51 */
(PID.TID 0000.0001)                 1.800475308484964E+05,      /* J = 52 */
(PID.TID 0000.0001)                 1.672866102048804E+05,      /* J = 53 */
(PID.TID 0000.0001)                 1.541226814647045E+05,      /* J = 54 */
(PID.TID 0000.0001)                 1.405874576853274E+05,      /* J = 55 */
(PID.TID 0000.0001)                 1.267135464063795E+05,      /* J = 56 */
(PID.TID 0000.0001)                 1.125343710953429E+05,      /* J = 57 */
(PID.TID 0000.0001)                 9.808409062749070E+04,      /* J = 58 */
(PID.TID 0000.0001)                 8.339751699416523E+04,      /* J = 59 */
(PID.TID 0000.0001)                 6.851003143764105E+04,      /* J = 60 */
(PID.TID 0000.0001)                 5.345749921461356E+04,      /* J = 61 */
(PID.TID 0000.0001)                 3.827618319365421E+04,      /* J = 62 */
(PID.TID 0000.0001)                 2.300265649478360E+04,      /* J = 63 */
(PID.TID 0000.0001)                 7.673714381622298E+03       /* J = 64 */
(PID.TID 0000.0001)     ;
(PID.TID 0000.0001) dyC =  /* dyC(:,1,:,1) ( m - cartesian, degrees - spherical ) */
(PID.TID 0000.0001)   128 @  3.126866438026091E+05              /* I =  1:128 */
(PID.TID 0000.0001)     ;
(PID.TID 0000.0001) dyC =  /* dyC(1,:,1,:) ( m - cartesian, degrees - spherical ) */
(PID.TID 0000.0001)    64 @  3.126866438026091E+05              /* J =  1: 64 */
(PID.TID 0000.0001)     ;
(PID.TID 0000.0001) dxV =  /* dxV(:,1,:,1) ( m - cartesian, degrees - spherical ) */
(PID.TID 0000.0001)   128 @  0.000000000000000E+00              /* I =  1:128 */
(PID.TID 0000.0001)     ;
(PID.TID 0000.0001) dxV =  /* dxV(1,:,1,:) ( m - cartesian, degrees - spherical ) */
(PID.TID 0000.0001)                 0.000000000000000E+00,      /* J =  1 */
(PID.TID 0000.0001)                 1.534280640463982E+04,      /* J =  2 */
(PID.TID 0000.0001)                 3.064865064477965E+04,      /* J =  3 */
(PID.TID 0000.0001)                 4.588065960101153E+04,      /* J =  4 */
(PID.TID 0000.0001)                 6.100213802959342E+04,      /* J =  5 */
(PID.TID 0000.0001)                 7.597665696450579E+04,      /* J =  6 */
(PID.TID 0000.0001)                 9.076814147802140E+04,      /* J =  7 */
(PID.TID 0000.0001)                 1.053409575883663E+05,      /* J =  8 */
(PID.TID 0000.0001)                 1.196599981051027E+05,      /* J =  9 */
(PID.TID 0000.0001)                 1.336907672054259E+05,      /* J = 10 */
(PID.TID 0000.0001)                 1.473994635376230E+05,      /* J = 11 */
(PID.TID 0000.0001)                 1.607530616514898E+05,      /* J = 12 */
(PID.TID 0000.0001)                 1.737193915595329E+05,      /* J = 13 */
(PID.TID 0000.0001)                 1.862672162372875E+05,      /* J = 14 */
(PID.TID 0000.0001)                 1.983663068760452E+05,      /* J = 15 */
(PID.TID 0000.0001)                 2.099875157067021E+05,      /* J = 16 */
(PID.TID 0000.0001)                 2.211028462192875E+05,      /* J = 17 */
(PID.TID 0000.0001)                 2.316855206090085E+05,      /* J = 18 */
(PID.TID 0000.0001)                 2.417100442863275E+05,      /* J = 19 */
(PID.TID 0000.0001)                 2.511522672956614E+05,      /* J = 20 */
(PID.TID 0000.0001)                 2.599894424947395E+05,      /* J = 21 */
(PID.TID 0000.0001)                 2.682002803544621E+05,      /* J = 22 */
(PID.TID 0000.0001)                 2.757650002472408E+05,      /* J = 23 */
(PID.TID 0000.0001)                 2.826653781002625E+05,      /* J = 24 */
(PID.TID 0000.0001)                 2.888847902988777E+05,      /* J = 25 */
(PID.TID 0000.0001)                 2.944082537343438E+05,      /* J = 26 */
(PID.TID 0000.0001)                 2.992224618994464E+05,      /* J = 27 */
(PID.TID 0000.0001)                 3.033158169450409E+05,      /* J = 28 */
(PID.TID 0000.0001)                 3.066784576202870E+05,      /* J = 29 */
(PID.TID 0000.0001)                 3.093022830292655E+05,      /* J = 30 */
(PID.TID 0000.0001)                 3.111809721467461E+05,      /* J = 31 */
(PID.TID 0000.0001)                 3.123099990460912E+05,      /* J = 32 */
(PID.TID 0000.0001)                 3.126866438026091E+05,      /* J = 33 */
(PID.TID 0000.0001)                 3.123099990460912E+05,      /* J = 34 */
(PID.TID 0000.0001)                 3.111809721467461E+05,      /* J = 35 */
(PID.TID 0000.0001)                 3.093022830292655E+05,      /* J = 36 */
(PID.TID 0000.0001)                 3.066784576202870E+05,      /* J = 37 */
(PID.TID 0000.0001)                 3.033158169450409E+05,      /* J = 38 */
(PID.TID 0000.0001)                 2.992224618994464E+05,      /* J = 39 */
(PID.TID 0000.0001)                 2.944082537343438E+05,      /* J = 40 */
(PID.TID 0000.0001)                 2.888847902988777E+05,      /* J = 41 */
(PID.TID 0000.0001)                 2.826653781002625E+05,      /* J = 42 */
(PID.TID 0000.0001)                 2.757650002472408E+05,      /* J = 43 */
(PID.TID 0000.0001)                 2.682002803544621E+05,      /* J = 44 */
(PID.TID 0000.0001)                 2.599894424947395E+05,      /* J = 45 */
(PID.TID 0000.0001)                 2.511522672956614E+05,      /* J = 46 */
(PID.TID 0000.0001)                 2.417100442863275E+05,      /* J = 47 */
(PID.TID 0000.0001)                 2.316855206090085E+05,      /* J = 48 */
(PID.TID 0000.0001)                 2.211028462192875E+05,      /* J = 49 */
(PID.TID 0000.0001)                 2.099875157067021E+05,      /* J = 50 */
(PID.TID 0000.0001)                 1.983663068760452E+05,      /* J = 51 */
(PID.TID 0000.0001)                 1.862672162372875E+05,      /* J = 52 */
(PID.TID 0000.0001)                 1.737193915595329E+05,      /* J = 53 */
(PID.TID 0000.0001)                 1.607530616514898E+05,      /* J = 54 */
(PID.TID 0000.0001)                 1.473994635376230E+05,      /* J = 55 */
(PID.TID 0000.0001)                 1.336907672054259E+05,      /* J = 56 */
(PID.TID 0000.0001)                 1.196599981051027E+05,      /* J = 57 */
(PID.TID 0000.0001)                 1.053409575883663E+05,      /* J = 58 */
(PID.TID 0000.0001)                 9.076814147802140E+04,      /* J = 59 */
(PID.TID 0000.0001)                 7.597665696450579E+04,      /* J = 60 */
(PID.TID 0000.0001)                 6.100213802959342E+04,      /* J = 61 */
(PID.TID 0000.0001)                 4.588065960101153E+04,      /* J = 62 */
(PID.TID 0000.0001)                 3.064865064477965E+04,      /* J = 63 */
(PID.TID 0000.0001)                 1.534280640463982E+04       /* J = 64 */
(PID.TID 0000.0001)     ;
(PID.TID 0000.0001) dyU =  /* dyU(:,1,:,1) ( m - cartesian, degrees - spherical ) */
(PID.TID 0000.0001)   128 @  3.126866438026091E+05              /* I =  1:128 */
(PID.TID 0000.0001)     ;
(PID.TID 0000.0001) dyU =  /* dyU(1,:,1,:) ( m - cartesian, degrees - spherical ) */
(PID.TID 0000.0001)    64 @  3.126866438026091E+05              /* J =  1: 64 */
(PID.TID 0000.0001)     ;
(PID.TID 0000.0001) rA =  /* rA(:,1,:,1) ( m - cartesian, degrees - spherical ) */
(PID.TID 0000.0001)   128 @  2.399227099019054E+09              /* I =  1:128 */
(PID.TID 0000.0001)     ;
(PID.TID 0000.0001) rA =  /* rA(1,:,1,:) ( m - cartesian, degrees - spherical ) */
(PID.TID 0000.0001)                 2.399227099019054E+09,      /* J =  1 */
(PID.TID 0000.0001)                 7.191901348828095E+09,      /* J =  2 */
(PID.TID 0000.0001)                 1.196724967835172E+10,      /* J =  3 */
(PID.TID 0000.0001)                 1.671376785519289E+10,      /* J =  4 */
(PID.TID 0000.0001)                 2.142002110131774E+10,      /* J =  5 */
(PID.TID 0000.0001)                 2.607467164043713E+10,      /* J =  6 */
(PID.TID 0000.0001)                 3.066650601170344E+10,      /* J =  7 */
(PID.TID 0000.0001)                 3.518446208391876E+10,      /* J =  8 */
(PID.TID 0000.0001)                 3.961765570517902E+10,      /* J =  9 */
(PID.TID 0000.0001)                 4.395540692374849E+10,      /* J = 10 */
(PID.TID 0000.0001)                 4.818726571700011E+10,      /* J = 11 */
(PID.TID 0000.0001)                 5.230303716643329E+10,      /* J = 12 */
(PID.TID 0000.0001)                 5.629280601812742E+10,      /* J = 13 */
(PID.TID 0000.0001)                 6.014696056945666E+10,      /* J = 14 */
(PID.TID 0000.0001)                 6.385621582452226E+10,      /* J = 15 */
(PID.TID 0000.0001)                 6.741163586252296E+10,      /* J = 16 */
(PID.TID 0000.0001)                 7.080465536516859E+10,      /* J = 17 */
(PID.TID 0000.0001)                 7.402710025128450E+10,      /* J = 18 */
(PID.TID 0000.0001)                 7.707120736888654E+10,      /* J = 19 */
(PID.TID 0000.0001)                 7.992964319729680E+10,      /* J = 20 */
(PID.TID 0000.0001)                 8.259552151423453E+10,      /* J = 21 */
(PID.TID 0000.0001)                 8.506241998533157E+10,      /* J = 22 */
(PID.TID 0000.0001)                 8.732439563609564E+10,      /* J = 23 */
(PID.TID 0000.0001)                 8.937599916905875E+10,      /* J = 24 */
(PID.TID 0000.0001)                 9.121228809161064E+10,      /* J = 25 */
(PID.TID 0000.0001)                 9.282883862289697E+10,      /* J = 26 */
(PID.TID 0000.0001)                 9.422175635109477E+10,      /* J = 27 */
(PID.TID 0000.0001)                 9.538768561539165E+10,      /* J = 28 */
(PID.TID 0000.0001)                 9.632381759006653E+10,      /* J = 29 */
(PID.TID 0000.0001)                 9.702789705119699E+10,      /* J = 30 */
(PID.TID 0000.0001)                 9.749822780969106E+10,      /* J = 31 */
(PID.TID 0000.0001)     2 @  9.773367679755542E+10,             /* J = 32: 33 */
(PID.TID 0000.0001)                 9.749822780969106E+10,      /* J = 34 */
(PID.TID 0000.0001)                 9.702789705119699E+10,      /* J = 35 */
(PID.TID 0000.0001)                 9.632381759006653E+10,      /* J = 36 */
(PID.TID 0000.0001)                 9.538768561539165E+10,      /* J = 37 */
(PID.TID 0000.0001)                 9.422175635109477E+10,      /* J = 38 */
(PID.TID 0000.0001)                 9.282883862289697E+10,      /* J = 39 */
(PID.TID 0000.0001)                 9.121228809161064E+10,      /* J = 40 */
(PID.TID 0000.0001)                 8.937599916905875E+10,      /* J = 41 */
(PID.TID 0000.0001)                 8.732439563609564E+10,      /* J = 42 */
(PID.TID 0000.0001)                 8.506241998533157E+10,      /* J = 43 */
(PID.TID 0000.0001)                 8.259552151423453E+10,      /* J = 44 */
(PID.TID 0000.0001)                 7.992964319729680E+10,      /* J = 45 */
(PID.TID 0000.0001)                 7.707120736888654E+10,      /* J = 46 */
(PID.TID 0000.0001)                 7.402710025128450E+10,      /* J = 47 */
(PID.TID 0000.0001)                 7.080465536516859E+10,      /* J = 48 */
(PID.TID 0000.0001)                 6.741163586252296E+10,      /* J = 49 */
(PID.TID 0000.0001)                 6.385621582452226E+10,      /* J = 50 */
(PID.TID 0000.0001)                 6.014696056945666E+10,      /* J = 51 */
(PID.TID 0000.0001)                 5.629280601812742E+10,      /* J = 52 */
(PID.TID 0000.0001)                 5.230303716643329E+10,      /* J = 53 */
(PID.TID 0000.0001)                 4.818726571700011E+10,      /* J = 54 */
(PID.TID 0000.0001)                 4.395540692374849E+10,      /* J = 55 */
(PID.TID 0000.0001)                 3.961765570517902E+10,      /* J = 56 */
(PID.TID 0000.0001)                 3.518446208391876E+10,      /* J = 57 */
(PID.TID 0000.0001)                 3.066650601170344E+10,      /* J = 58 */
(PID.TID 0000.0001)                 2.607467164043713E+10,      /* J = 59 */
(PID.TID 0000.0001)                 2.142002110131774E+10,      /* J = 60 */
(PID.TID 0000.0001)                 1.671376785519289E+10,      /* J = 61 */
(PID.TID 0000.0001)                 1.196724967835172E+10,      /* J = 62 */
(PID.TID 0000.0001)                 7.191901348828095E+09,      /* J = 63 */
(PID.TID 0000.0001)                 2.399227099019054E+09       /* J = 64 */
(PID.TID 0000.0001)     ;
(PID.TID 0000.0001) rAw =  /* rAw(:,1,:,1) ( m - cartesian, degrees - spherical ) */
(PID.TID 0000.0001)   128 @  2.399227099019054E+09              /* I =  1:128 */
(PID.TID 0000.0001)     ;
(PID.TID 0000.0001) rAw =  /* rAw(1,:,1,:) ( m - cartesian, degrees - spherical ) */
(PID.TID 0000.0001)                 2.399227099019054E+09,      /* J =  1 */
(PID.TID 0000.0001)                 7.191901348828095E+09,      /* J =  2 */
(PID.TID 0000.0001)                 1.196724967835172E+10,      /* J =  3 */
(PID.TID 0000.0001)                 1.671376785519289E+10,      /* J =  4 */
(PID.TID 0000.0001)                 2.142002110131774E+10,      /* J =  5 */
(PID.TID 0000.0001)                 2.607467164043713E+10,      /* J =  6 */
(PID.TID 0000.0001)                 3.066650601170344E+10,      /* J =  7 */
(PID.TID 0000.0001)                 3.518446208391876E+10,      /* J =  8 */
(PID.TID 0000.0001)                 3.961765570517902E+10,      /* J =  9 */
(PID.TID 0000.0001)                 4.395540692374849E+10,      /* J = 10 */
(PID.TID 0000.0001)                 4.818726571700011E+10,      /* J = 11 */
(PID.TID 0000.0001)                 5.230303716643329E+10,      /* J = 12 */
(PID.TID 0000.0001)                 5.629280601812742E+10,      /* J = 13 */
(PID.TID 0000.0001)                 6.014696056945666E+10,      /* J = 14 */
(PID.TID 0000.0001)                 6.385621582452226E+10,      /* J = 15 */
(PID.TID 0000.0001)                 6.741163586252296E+10,      /* J = 16 */
(PID.TID 0000.0001)                 7.080465536516859E+10,      /* J = 17 */
(PID.TID 0000.0001)                 7.402710025128450E+10,      /* J = 18 */
(PID.TID 0000.0001)                 7.707120736888654E+10,      /* J = 19 */
(PID.TID 0000.0001)                 7.992964319729680E+10,      /* J = 20 */
(PID.TID 0000.0001)                 8.259552151423453E+10,      /* J = 21 */
(PID.TID 0000.0001)                 8.506241998533157E+10,      /* J = 22 */
(PID.TID 0000.0001)                 8.732439563609564E+10,      /* J = 23 */
(PID.TID 0000.0001)                 8.937599916905875E+10,      /* J = 24 */
(PID.TID 0000.0001)                 9.121228809161064E+10,      /* J = 25 */
(PID.TID 0000.0001)                 9.282883862289697E+10,      /* J = 26 */
(PID.TID 0000.0001)                 9.422175635109477E+10,      /* J = 27 */
(PID.TID 0000.0001)                 9.538768561539165E+10,      /* J = 28 */
(PID.TID 0000.0001)                 9.632381759006653E+10,      /* J = 29 */
(PID.TID 0000.0001)                 9.702789705119699E+10,      /* J = 30 */
(PID.TID 0000.0001)                 9.749822780969106E+10,      /* J = 31 */
(PID.TID 0000.0001)     2 @  9.773367679755542E+10,             /* J = 32: 33 */
(PID.TID 0000.0001)                 9.749822780969106E+10,      /* J = 34 */
(PID.TID 0000.0001)                 9.702789705119699E+10,      /* J = 35 */
(PID.TID 0000.0001)                 9.632381759006653E+10,      /* J = 36 */
(PID.TID 0000.0001)                 9.538768561539165E+10,      /* J = 37 */
(PID.TID 0000.0001)                 9.422175635109477E+10,      /* J = 38 */
(PID.TID 0000.0001)                 9.282883862289697E+10,      /* J = 39 */
(PID.TID 0000.0001)                 9.121228809161064E+10,      /* J = 40 */
(PID.TID 0000.0001)                 8.937599916905875E+10,      /* J = 41 */
(PID.TID 0000.0001)                 8.732439563609564E+10,      /* J = 42 */
(PID.TID 0000.0001)                 8.506241998533157E+10,      /* J = 43 */
(PID.TID 0000.0001)                 8.259552151423453E+10,      /* J = 44 */
(PID.TID 0000.0001)                 7.992964319729680E+10,      /* J = 45 */
(PID.TID 0000.0001)                 7.707120736888654E+10,      /* J = 46 */
(PID.TID 0000.0001)                 7.402710025128450E+10,      /* J = 47 */
(PID.TID 0000.0001)                 7.080465536516859E+10,      /* J = 48 */
(PID.TID 0000.0001)                 6.741163586252296E+10,      /* J = 49 */
(PID.TID 0000.0001)                 6.385621582452226E+10,      /* J = 50 */
(PID.TID 0000.0001)                 6.014696056945666E+10,      /* J = 51 */
(PID.TID 0000.0001)                 5.629280601812742E+10,      /* J = 52 */
(PID.TID 0000.0001)                 5.230303716643329E+10,      /* J = 53 */
(PID.TID 0000.0001)                 4.818726571700011E+10,      /* J = 54 */
(PID.TID 0000.0001)                 4.395540692374849E+10,      /* J = 55 */
(PID.TID 0000.0001)                 3.961765570517902E+10,      /* J = 56 */
(PID.TID 0000.0001)                 3.518446208391876E+10,      /* J = 57 */
(PID.TID 0000.0001)                 3.066650601170344E+10,      /* J = 58 */
(PID.TID 0000.0001)                 2.607467164043713E+10,      /* J = 59 */
(PID.TID 0000.0001)                 2.142002110131774E+10,      /* J = 60 */
(PID.TID 0000.0001)                 1.671376785519289E+10,      /* J = 61 */
(PID.TID 0000.0001)                 1.196724967835172E+10,      /* J = 62 */
(PID.TID 0000.0001)                 7.191901348828095E+09,      /* J = 63 */
(PID.TID 0000.0001)                 2.399227099019054E+09       /* J = 64 */
(PID.TID 0000.0001)     ;
(PID.TID 0000.0001) rAs =  /* rAs(:,1,:,1) ( m - cartesian, degrees - spherical ) */
(PID.TID 0000.0001)   128 @  0.000000000000000E+00              /* I =  1:128 */
(PID.TID 0000.0001)     ;
(PID.TID 0000.0001) rAs =  /* rAs(1,:,1,:) ( m - cartesian, degrees - spherical ) */
(PID.TID 0000.0001)                 0.000000000000000E+00,      /* J =  1 */
(PID.TID 0000.0001)                 4.797008993346521E+09,      /* J =  2 */
(PID.TID 0000.0001)                 9.582461571859713E+09,      /* J =  3 */
(PID.TID 0000.0001)                 1.434482916112171E+10,      /* J =  4 */
(PID.TID 0000.0001)                 1.907263880047606E+10,      /* J =  5 */
(PID.TID 0000.0001)                 2.375450078239415E+10,      /* J =  6 */
(PID.TID 0000.0001)                 2.837913609127892E+10,      /* J =  7 */
(PID.TID 0000.0001)                 3.293540357560105E+10,      /* J =  8 */
(PID.TID 0000.0001)                 3.741232678790874E+10,      /* J =  9 */
(PID.TID 0000.0001)                 4.179912042805189E+10,      /* J = 10 */
(PID.TID 0000.0001)                 4.608521632591315E+10,      /* J = 11 */
(PID.TID 0000.0001)                 5.026028890105708E+10,      /* J = 12 */
(PID.TID 0000.0001)                 5.431428003795686E+10,      /* J = 13 */
(PID.TID 0000.0001)                 5.823742331687625E+10,      /* J = 14 */
(PID.TID 0000.0001)                 6.202026754202961E+10,      /* J = 15 */
(PID.TID 0000.0001)                 6.565369951034008E+10,      /* J = 16 */
(PID.TID 0000.0001)                 6.912896596594554E+10,      /* J = 17 */
(PID.TID 0000.0001)                 7.243769468755643E+10,      /* J = 18 */
(PID.TID 0000.0001)                 7.557191465787260E+10,      /* J = 19 */
(PID.TID 0000.0001)                 7.852407526645969E+10,      /* J = 20 */
(PID.TID 0000.0001)                 8.128706449983356E+10,      /* J = 21 */
(PID.TID 0000.0001)                 8.385422607492099E+10,      /* J = 22 */
(PID.TID 0000.0001)                 8.621937547463147E+10,      /* J = 23 */
(PID.TID 0000.0001)                 8.837681484689810E+10,      /* J = 24 */
(PID.TID 0000.0001)                 9.032134673130382E+10,      /* J = 25 */
(PID.TID 0000.0001)                 9.204828658021820E+10,      /* J = 26 */
(PID.TID 0000.0001)                 9.355347404428316E+10,      /* J = 27 */
(PID.TID 0000.0001)                 9.483328299505894E+10,      /* J = 28 */
(PID.TID 0000.0001)                 9.588463026068498E+10,      /* J = 29 */
(PID.TID 0000.0001)                 9.670498305351137E+10,      /* J = 30 */
(PID.TID 0000.0001)                 9.729236507180573E+10,      /* J = 31 */
(PID.TID 0000.0001)                 9.764536126083739E+10,      /* J = 32 */
(PID.TID 0000.0001)                 9.776312122186816E+10,      /* J = 33 */
(PID.TID 0000.0001)                 9.764536126083739E+10,      /* J = 34 */
(PID.TID 0000.0001)                 9.729236507180573E+10,      /* J = 35 */
(PID.TID 0000.0001)                 9.670498305351137E+10,      /* J = 36 */
(PID.TID 0000.0001)                 9.588463026068498E+10,      /* J = 37 */
(PID.TID 0000.0001)                 9.483328299505894E+10,      /* J = 38 */
(PID.TID 0000.0001)                 9.355347404428316E+10,      /* J = 39 */
(PID.TID 0000.0001)                 9.204828658021820E+10,      /* J = 40 */
(PID.TID 0000.0001)                 9.032134673130382E+10,      /* J = 41 */
(PID.TID 0000.0001)                 8.837681484689810E+10,      /* J = 42 */
(PID.TID 0000.0001)                 8.621937547463147E+10,      /* J = 43 */
(PID.TID 0000.0001)                 8.385422607492099E+10,      /* J = 44 */
(PID.TID 0000.0001)                 8.128706449983356E+10,      /* J = 45 */
(PID.TID 0000.0001)                 7.852407526645969E+10,      /* J = 46 */
(PID.TID 0000.0001)                 7.557191465787260E+10,      /* J = 47 */
(PID.TID 0000.0001)                 7.243769468755643E+10,      /* J = 48 */
(PID.TID 0000.0001)                 6.912896596594554E+10,      /* J = 49 */
(PID.TID 0000.0001)                 6.565369951034008E+10,      /* J = 50 */
(PID.TID 0000.0001)                 6.202026754202961E+10,      /* J = 51 */
(PID.TID 0000.0001)                 5.823742331687625E+10,      /* J = 52 */
(PID.TID 0000.0001)                 5.431428003795686E+10,      /* J = 53 */
(PID.TID 0000.0001)                 5.026028890105708E+10,      /* J = 54 */
(PID.TID 0000.0001)                 4.608521632591315E+10,      /* J = 55 */
(PID.TID 0000.0001)                 4.179912042805189E+10,      /* J = 56 */
(PID.TID 0000.0001)                 3.741232678790874E+10,      /* J = 57 */
(PID.TID 0000.0001)                 3.293540357560105E+10,      /* J = 58 */
(PID.TID 0000.0001)                 2.837913609127892E+10,      /* J = 59 */
(PID.TID 0000.0001)                 2.375450078239415E+10,      /* J = 60 */
(PID.TID 0000.0001)                 1.907263880047606E+10,      /* J = 61 */
(PID.TID 0000.0001)                 1.434482916112171E+10,      /* J = 62 */
(PID.TID 0000.0001)                 9.582461571859713E+09,      /* J = 63 */
(PID.TID 0000.0001)                 4.797008993346521E+09       /* J = 64 */
(PID.TID 0000.0001)     ;
(PID.TID 0000.0001) 
(PID.TID 0000.0001) // =======================================================
(PID.TID 0000.0001) // Field Initial Temperature at iteration          1
(PID.TID 0000.0001) // CMIN =          2.550358697034710E+02
(PID.TID 0000.0001) // CMAX =          3.154813964749333E+02
(PID.TID 0000.0001) // CINT =          2.238723213757865E+00
(PID.TID 0000.0001) // SYMBOLS (CMIN->CMAX): -abcdefghijklmnopqrstuvwxyz+
(PID.TID 0000.0001) //                  0.0: .
(PID.TID 0000.0001) // RANGE I (Lo:Hi:Step):(   1: 128:   1)
(PID.TID 0000.0001) // RANGE J (Lo:Hi:Step):(  64:   1:  -1)
(PID.TID 0000.0001) // RANGE K (Lo:Hi:Step):(   1:   1:   1)
(PID.TID 0000.0001) // =======================================================
(PID.TID 0000.0001) K =   1
(PID.TID 0000.0001)                I=10      I=20      I=30      I=40      I=50      I=60      I=70      I=80      I=90      I=100     I=110     I=120
(PID.TID 0000.0001) |--J--|123456789|123456789|123456789|123456789|123456789|123456789|123456789|123456789|123456789|123456789|123456789|123456789|12345678
(PID.TID 0000.0001)     64 --------------------------------------------------------------------------------------------------------------------------------
(PID.TID 0000.0001)     63 --------------------------------------------------------------------------------------------------------------------------------
(PID.TID 0000.0001)     62 --------------------------------------------------------------------------------------------------------------------------------
(PID.TID 0000.0001)     61 aaaaaaaaaaaaaaaaaaaaaaaaaaaaaaaaaaaaaaaaaaaaaaaaaaaaaaaaaaaaaaaaaaaaaaaaaaaaaaaaaaaaaaaaaaaaaaaaaaaaaaaaaaaaaaaaaaaaaaaaaaaaaaaa
(PID.TID 0000.0001)     60 aaaaaaaaaaaaaaaaaaaaaaaaaaaaaaaaaaaaaaaaaaaaaaaaaaaaaaaaaaaaaaaaaaaaaaaaaaaaaaaaaaaaaaaaaaaaaaaaaaaaaaaaaaaaaaaaaaaaaaaaaaaaaaaa
(PID.TID 0000.0001)     59 bbbbbbbbbbbbbbbbbbbbbbbbbbbbbbbbbbbbbbbbbbbbbbbbbbbbbbbbbbbbbbbbbbbbbbbbbbbbbbbbbbbbbbbbbbbbbbbbbbbbbbbbbbbbbbbbbbbbbbbbbbbbbbbb
(PID.TID 0000.0001)     58 cccccccccccccccccccccccccccccccccccccccccccccccccccccccccccccccccccccccccccccccccccccccccccccccccccccccccccccccccccccccccccccccc
(PID.TID 0000.0001)     57 cccccccccccccccccccccccccccccccccccccccccccccccccccccccccccccccccccccccccccccccccccccccccccccccccccccccccccccccccccccccccccccccc
(PID.TID 0000.0001)     56 dddddddddddddddddddddddddddddddddddddddddddddddddddddddddddddddddddddddddddddddddddddddddddddddddddddddddddddddddddddddddddddddd
(PID.TID 0000.0001)     55 eeeeeeeeeeeeeeeeeeeeeeeeeeeeeeeeeeeeeeeeeeeeeeeeeeeeeeeeeeeeeeeeeeeeeeeeeeeeeeeeeeeeeeeeeeeeeeeeeeeeeeeeeeeeeeeeeeeeeeeeeeeeeeee
(PID.TID 0000.0001)     54 gggggggggggggggggggggggggggggggggggggggggggggggggggggggggggggggggggggggggggggggggggggggggggggggggggggggggggggggggggggggggggggggg
(PID.TID 0000.0001)     53 hhhhhhhhhhhhhhhhhhhhhhhhhhhhhhhhhhhhhhhhhhhhhhhhhhhhhhhhhhhhhhhhhhhhhhhhhhhhhhhhhhhhhhhhhhhhhhhhhhhhhhhhhhhhhhhhhhhhhhhhhhhhhhhh
(PID.TID 0000.0001)     52 iiiiiiiiiiiiiiiiiiiiiiiiiiiiiiiiiiiiiiiiiiiiiiiiiiiiiiiiiiiiiiiiiiiiiiiiiiiiiiiiiiiiiiiiiiiiiiiiiiiiiiiiiiiiiiiiiiiiiiiiiiiiiiii
(PID.TID 0000.0001)     51 jjjjjjjjjjjjjjjjjjjjjjjjjjjjjjjjjjjjjjjjjjjjjjjjjjjjjjjjjjjjjjjjjjjjjjjjjjjjjjjjjjjjjjjjjjjjjjjjjjjjjjjjjjjjjjjjjjjjjjjjjjjjjjjj
(PID.TID 0000.0001)     50 llllllllllllllllllllllllllllllllllllllllllllllllllllllllllllllllllllllllllllllllllllllllllllllllllllllllllllllllllllllllllllllll
(PID.TID 0000.0001)     49 mmmmmmmmmmmmmmmmmmmmmmmmmmmmmmmmmmmmmmmmmmmmmmmmmmmmmmmmmmmmmmmmmmmmmmmmmmmmmmmmmmmmmmmmmmmmmmmmmmmmmmmmmmmmmmmmmmmmmmmmmmmmmmmm
(PID.TID 0000.0001)     48 nnnnnnnnnnnnnnnnnnnnnnnnnnnnnnnnnnnnnnnnnnnnnnnnnnnnnnnnnnnnnnnnnnnnnnnnnnnnnnnnnnnnnnnnnnnnnnnnnnnnnnnnnnnnnnnnnnnnnnnnnnnnnnnn
(PID.TID 0000.0001)     47 oooooooooooooooooooooooooooooooooooooooooooooooooooooooooooooooooooooooooooooooooooooooooooooooooooooooooooooooooooooooooooooooo
(PID.TID 0000.0001)     46 qqqqqqqqqqqqqqqqqqqqqqqqqqqqqqqqqqqqqqqqqqqqqqqqqqqqqqqqqqqqqqqqqqqqqqqqqqqqqqqqqqqqqqqqqqqqqqqqqqqqqqqqqqqqqqqqqqqqqqqqqqqqqqqq
(PID.TID 0000.0001)     45 rrrrrrrrrrrrrrrrrrrrrrrrrrrrrrrrrrrrrrrrrrrrrrrrrrrrrrrrrrrrrrrrrrrrrrrrrrrrrrrrrrrrrrrrrrrrrrrrrrrrrrrrrrrrrrrrrrrrrrrrrrrrrrrr
(PID.TID 0000.0001)     44 ssssssssssssssssssssssssssssssssssssssssssssssssssssssssssssssssssssssssssssssssssssssssssssssssssssssssssssssssssssssssssssssss
(PID.TID 0000.0001)     43 tttttttttttttttttttttttttttttttttttttttttttttttttttttttttttttttttttttttttttttttttttttttttttttttttttttttttttttttttttttttttttttttt
(PID.TID 0000.0001)     42 vvvvvvvvvvvvvvvvvvvvvvvvvvvvvvvvvvvvvvvvvvvvvvvvvvvvvvvvvvvvvvvvvvvvvvvvvvvvvvvvvvvvvvvvvvvvvvvvvvvvvvvvvvvvvvvvvvvvvvvvvvvvvvvv
(PID.TID 0000.0001)     41 wwwwwwwwwwwwwwwwwwwwwwwwwwwwwwwwwwwwwwwwwwwwwwwwwwwwwwwwwwwwwwwwwwwwwwwwwwwwwwwwwwwwwwwwwwwwwwwwwwwwwwwwwwwwwwwwwwwwwwwwwwwwwwww
(PID.TID 0000.0001)     40 xxxxxxxxxxxxxxxxxxxxxxxxxxxxxxxxxxxxxxxxxxxxxxxxxxxxxxxxxxxxxxxxxxxxxxxxxxxxxxxxxxxxxxxxxxxxxxxxxxxxxxxxxxxxxxxxxxxxxxxxxxxxxxxx
(PID.TID 0000.0001)     39 xxxxxxxxxxxxxxxxxxxxxxxxxxxxxxxxxxxxxxxxxxxxxxxxxxxxxxxxxxxxxxxxxxxxxxxxxxxxxxxxxxxxxxxxxxxxxxxxxxxxxxxxxxxxxxxxxxxxxxxxxxxxxxxx
(PID.TID 0000.0001)     38 yyyyyyyyyyyyyyyyyyyyyyyyyyyyyyyyyyyyyyyyyyyyyyyyyyyyyyyyyyyyyyyyyyyyyyyyyyyyyyyyyyyyyyyyyyyyyyyyyyyyyyyyyyyyyyyyyyyyyyyyyyyyyyyy
(PID.TID 0000.0001)     37 zzzzzzzzzzzzzzzzzzzzzzzzzzzzzzzzzzzzzzzzzzzzzzzzzzzzzzzzzzzzzzzzzzzzzzzzzzzzzzzzzzzzzzzzzzzzzzzzzzzzzzzzzzzzzzzzzzzzzzzzzzzzzzzz
(PID.TID 0000.0001)     36 zzzzzzzzzzzzzzzzzzzzzzzzzzzzzzzzzzzzzzzzzzzzzzzzzzzzzzzzzzzzzzzzzzzzzzzzzzzzzzzzzzzzzzzzzzzzzzzzzzzzzzzzzzzzzzzzzzzzzzzzzzzzzzzz
(PID.TID 0000.0001)     35 ++++++++++++++++++++++++++++++++++++++++++++++++++++++++++++++++++++++++++++++++++++++++++++++++++++++++++++++++++++++++++++++++
(PID.TID 0000.0001)     34 ++++++++++++++++++++++++++++++++++++++++++++++++++++++++++++++++++++++++++++++++++++++++++++++++++++++++++++++++++++++++++++++++
(PID.TID 0000.0001)     33 ++++++++++++++++++++++++++++++++++++++++++++++++++++++++++++++++++++++++++++++++++++++++++++++++++++++++++++++++++++++++++++++++
(PID.TID 0000.0001)     32 ++++++++++++++++++++++++++++++++++++++++++++++++++++++++++++++++++++++++++++++++++++++++++++++++++++++++++++++++++++++++++++++++
(PID.TID 0000.0001)     31 ++++++++++++++++++++++++++++++++++++++++++++++++++++++++++++++++++++++++++++++++++++++++++++++++++++++++++++++++++++++++++++++++
(PID.TID 0000.0001)     30 ++++++++++++++++++++++++++++++++++++++++++++++++++++++++++++++++++++++++++++++++++++++++++++++++++++++++++++++++++++++++++++++++
(PID.TID 0000.0001)     29 zzzzzzzzzzzzzzzzzzzzzzzzzzzzzzzzzzzzzzzzzzzzzzzzzzzzzzzzzzzzzzzzzzzzzzzzzzzzzzzzzzzzzzzzzzzzzzzzzzzzzzzzzzzzzzzzzzzzzzzzzzzzzzzz
(PID.TID 0000.0001)     28 zzzzzzzzzzzzzzzzzzzzzzzzzzzzzzzzzzzzzzzzzzzzzzzzzzzzzzzzzzzzzzzzzzzzzzzzzzzzzzzzzzzzzzzzzzzzzzzzzzzzzzzzzzzzzzzzzzzzzzzzzzzzzzzz
(PID.TID 0000.0001)     27 yyyyyyyyyyyyyyyyyyyyyyyyyyyyyyyyyyyyyyyyyyyyyyyyyyyyyyyyyyyyyyyyyyyyyyyyyyyyyyyyyyyyyyyyyyyyyyyyyyyyyyyyyyyyyyyyyyyyyyyyyyyyyyyy
(PID.TID 0000.0001)     26 xxxxxxxxxxxxxxxxxxxxxxxxxxxxxxxxxxxxxxxxxxxxxxxxxxxxxxxxxxxxxxxxxxxxxxxxxxxxxxxxxxxxxxxxxxxxxxxxxxxxxxxxxxxxxxxxxxxxxxxxxxxxxxxx
(PID.TID 0000.0001)     25 xxxxxxxxxxxxxxxxxxxxxxxxxxxxxxxxxxxxxxxxxxxxxxxxxxxxxxxxxxxxxxxxxxxxxxxxxxxxxxxxxxxxxxxxxxxxxxxxxxxxxxxxxxxxxxxxxxxxxxxxxxxxxxxx
(PID.TID 0000.0001)     24 wwwwwwwwwwwwwwwwwwwwwwwwwwwwwwwwwwwwwwwwwwwwwwwwwwwwwwwwwwwwwwwwwwwwwwwwwwwwwwwwwwwwwwwwwwwwwwwwwwwwwwwwwwwwwwwwwwwwwwwwwwwwwwww
(PID.TID 0000.0001)     23 vvvvvvvvvvvvvvvvvvvvvvvvvvvvvvvvvvvvvvvvvvvvvvvvvvvvvvvvvvvvvvvvvvvvvvvvvvvvvvvvvvvvvvvvvvvvvvvvvvvvvvvvvvvvvvvvvvvvvvvvvvvvvvvv
(PID.TID 0000.0001)     22 tttttttttttttttttttttttttttttttttttttttttttttttttttttttttttttttttttttttttttttttttttttttttttttttttttttttttttttttttttttttttttttttt
(PID.TID 0000.0001)     21 ssssssssssssssssssssssssssssssssssssssssssssssssssssssssssssssssssssssssssssssssssssssssssssssssssssssssssssssssssssssssssssssss
(PID.TID 0000.0001)     20 rrrrrrrrrrrrrrrrrrrrrrrrrrrrrrrrrrrrrrrrrrrrrrrrrrrrrrrrrrrrrrrrrrrrrrrrrrrrrrrrrrrrrrrrrrrrrrrrrrrrrrrrrrrrrrrrrrrrrrrrrrrrrrrr
(PID.TID 0000.0001)     19 qqqqqqqqqqqqqqqqqqqqqqqqqqqqqqqqqqqqqqqqqqqqqqqqqqqqqqqqqqqqqqqqqqqqqqqqqqqqqqqqqqqqqqqqqqqqqqqqqqqqqqqqqqqqqqqqqqqqqqqqqqqqqqqq
(PID.TID 0000.0001)     18 oooooooooooooooooooooooooooooooooooooooooooooooooooooooooooooooooooooooooooooooooooooooooooooooooooooooooooooooooooooooooooooooo
(PID.TID 0000.0001)     17 nnnnnnnnnnnnnnnnnnnnnnnnnnnnnnnnnnnnnnnnnnnnnnnnnnnnnnnnnnnnnnnnnnnnnnnnnnnnnnnnnnnnnnnnnnnnnnnnnnnnnnnnnnnnnnnnnnnnnnnnnnnnnnnn
(PID.TID 0000.0001)     16 mmmmmmmmmmmmmmmmmmmmmmmmmmmmmmmmmmmmmmmmmmmmmmmmmmmmmmmmmmmmmmmmmmmmmmmmmmmmmmmmmmmmmmmmmmmmmmmmmmmmmmmmmmmmmmmmmmmmmmmmmmmmmmmm
(PID.TID 0000.0001)     15 llllllllllllllllllllllllllllllllllllllllllllllllllllllllllllllllllllllllllllllllllllllllllllllllllllllllllllllllllllllllllllllll
(PID.TID 0000.0001)     14 jjjjjjjjjjjjjjjjjjjjjjjjjjjjjjjjjjjjjjjjjjjjjjjjjjjjjjjjjjjjjjjjjjjjjjjjjjjjjjjjjjjjjjjjjjjjjjjjjjjjjjjjjjjjjjjjjjjjjjjjjjjjjjjj
(PID.TID 0000.0001)     13 iiiiiiiiiiiiiiiiiiiiiiiiiiiiiiiiiiiiiiiiiiiiiiiiiiiiiiiiiiiiiiiiiiiiiiiiiiiiiiiiiiiiiiiiiiiiiiiiiiiiiiiiiiiiiiiiiiiiiiiiiiiiiiii
(PID.TID 0000.0001)     12 hhhhhhhhhhhhhhhhhhhhhhhhhhhhhhhhhhhhhhhhhhhhhhhhhhhhhhhhhhhhhhhhhhhhhhhhhhhhhhhhhhhhhhhhhhhhhhhhhhhhhhhhhhhhhhhhhhhhhhhhhhhhhhhh
(PID.TID 0000.0001)     11 gggggggggggggggggggggggggggggggggggggggggggggggggggggggggggggggggggggggggggggggggggggggggggggggggggggggggggggggggggggggggggggggg
(PID.TID 0000.0001)     10 eeeeeeeeeeeeeeeeeeeeeeeeeeeeeeeeeeeeeeeeeeeeeeeeeeeeeeeeeeeeeeeeeeeeeeeeeeeeeeeeeeeeeeeeeeeeeeeeeeeeeeeeeeeeeeeeeeeeeeeeeeeeeeee
(PID.TID 0000.0001)      9 dddddddddddddddddddddddddddddddddddddddddddddddddddddddddddddddddddddddddddddddddddddddddddddddddddddddddddddddddddddddddddddddd
(PID.TID 0000.0001)      8 cccccccccccccccccccccccccccccccccccccccccccccccccccccccccccccccccccccccccccccccccccccccccccccccccccccccccccccccccccccccccccccccc
(PID.TID 0000.0001)      7 cccccccccccccccccccccccccccccccccccccccccccccccccccccccccccccccccccccccccccccccccccccccccccccccccccccccccccccccccccccccccccccccc
(PID.TID 0000.0001)      6 bbbbbbbbbbbbbbbbbbbbbbbbbbbbbbbbbbbbbbbbbbbbbbbbbbbbbbbbbbbbbbbbbbbbbbbbbbbbbbbbbbbbbbbbbbbbbbbbbbbbbbbbbbbbbbbbbbbbbbbbbbbbbbbb
(PID.TID 0000.0001)      5 aaaaaaaaaaaaaaaaaaaaaaaaaaaaaaaaaaaaaaaaaaaaaaaaaaaaaaaaaaaaaaaaaaaaaaaaaaaaaaaaaaaaaaaaaaaaaaaaaaaaaaaaaaaaaaaaaaaaaaaaaaaaaaaa
(PID.TID 0000.0001)      4 aaaaaaaaaaaaaaaaaaaaaaaaaaaaaaaaaaaaaaaaaaaaaaaaaaaaaaaaaaaaaaaaaaaaaaaaaaaaaaaaaaaaaaaaaaaaaaaaaaaaaaaaaaaaaaaaaaaaaaaaaaaaaaaa
(PID.TID 0000.0001)      3 --------------------------------------------------------------------------------------------------------------------------------
(PID.TID 0000.0001)      2 --------------------------------------------------------------------------------------------------------------------------------
(PID.TID 0000.0001)      1 --------------------------------------------------------------------------------------------------------------------------------
(PID.TID 0000.0001) // =======================================================
(PID.TID 0000.0001) // END OF FIELD                                          =
(PID.TID 0000.0001) // =======================================================
(PID.TID 0000.0001) 
(PID.TID 0000.0001) // =======================================================
(PID.TID 0000.0001) // Field Initial Salinity at iteration          1
(PID.TID 0000.0001) // CMIN =          1.000000000000000E+32
(PID.TID 0000.0001) // CMAX =         -1.000000000000000E+32
(PID.TID 0000.0001) // CINT =          0.000000000000000E+00
(PID.TID 0000.0001) // SYMBOLS (CMIN->CMAX): -abcdefghijklmnopqrstuvwxyz+
(PID.TID 0000.0001) //                  0.0: .
(PID.TID 0000.0001) // RANGE I (Lo:Hi:Step):(   1: 128:   1)
(PID.TID 0000.0001) // RANGE J (Lo:Hi:Step):(  64:   1:  -1)
(PID.TID 0000.0001) // RANGE K (Lo:Hi:Step):(   1:   1:   1)
(PID.TID 0000.0001) // =======================================================
(PID.TID 0000.0001) K =   1
(PID.TID 0000.0001)                I=10      I=20      I=30      I=40      I=50      I=60      I=70      I=80      I=90      I=100     I=110     I=120
(PID.TID 0000.0001) |--J--|123456789|123456789|123456789|123456789|123456789|123456789|123456789|123456789|123456789|123456789|123456789|123456789|12345678
(PID.TID 0000.0001)     64 ................................................................................................................................
(PID.TID 0000.0001)     63 ................................................................................................................................
(PID.TID 0000.0001)     62 ................................................................................................................................
(PID.TID 0000.0001)     61 ................................................................................................................................
(PID.TID 0000.0001)     60 ................................................................................................................................
(PID.TID 0000.0001)     59 ................................................................................................................................
(PID.TID 0000.0001)     58 ................................................................................................................................
(PID.TID 0000.0001)     57 ................................................................................................................................
(PID.TID 0000.0001)     56 ................................................................................................................................
(PID.TID 0000.0001)     55 ................................................................................................................................
(PID.TID 0000.0001)     54 ................................................................................................................................
(PID.TID 0000.0001)     53 ................................................................................................................................
(PID.TID 0000.0001)     52 ................................................................................................................................
(PID.TID 0000.0001)     51 ................................................................................................................................
(PID.TID 0000.0001)     50 ................................................................................................................................
(PID.TID 0000.0001)     49 ................................................................................................................................
(PID.TID 0000.0001)     48 ................................................................................................................................
(PID.TID 0000.0001)     47 ................................................................................................................................
(PID.TID 0000.0001)     46 ................................................................................................................................
(PID.TID 0000.0001)     45 ................................................................................................................................
(PID.TID 0000.0001)     44 ................................................................................................................................
(PID.TID 0000.0001)     43 ................................................................................................................................
(PID.TID 0000.0001)     42 ................................................................................................................................
(PID.TID 0000.0001)     41 ................................................................................................................................
(PID.TID 0000.0001)     40 ................................................................................................................................
(PID.TID 0000.0001)     39 ................................................................................................................................
(PID.TID 0000.0001)     38 ................................................................................................................................
(PID.TID 0000.0001)     37 ................................................................................................................................
(PID.TID 0000.0001)     36 ................................................................................................................................
(PID.TID 0000.0001)     35 ................................................................................................................................
(PID.TID 0000.0001)     34 ................................................................................................................................
(PID.TID 0000.0001)     33 ................................................................................................................................
(PID.TID 0000.0001)     32 ................................................................................................................................
(PID.TID 0000.0001)     31 ................................................................................................................................
(PID.TID 0000.0001)     30 ................................................................................................................................
(PID.TID 0000.0001)     29 ................................................................................................................................
(PID.TID 0000.0001)     28 ................................................................................................................................
(PID.TID 0000.0001)     27 ................................................................................................................................
(PID.TID 0000.0001)     26 ................................................................................................................................
(PID.TID 0000.0001)     25 ................................................................................................................................
(PID.TID 0000.0001)     24 ................................................................................................................................
(PID.TID 0000.0001)     23 ................................................................................................................................
(PID.TID 0000.0001)     22 ................................................................................................................................
(PID.TID 0000.0001)     21 ................................................................................................................................
(PID.TID 0000.0001)     20 ................................................................................................................................
(PID.TID 0000.0001)     19 ................................................................................................................................
(PID.TID 0000.0001)     18 ................................................................................................................................
(PID.TID 0000.0001)     17 ................................................................................................................................
(PID.TID 0000.0001)     16 ................................................................................................................................
(PID.TID 0000.0001)     15 ................................................................................................................................
(PID.TID 0000.0001)     14 ................................................................................................................................
(PID.TID 0000.0001)     13 ................................................................................................................................
(PID.TID 0000.0001)     12 ................................................................................................................................
(PID.TID 0000.0001)     11 ................................................................................................................................
(PID.TID 0000.0001)     10 ................................................................................................................................
(PID.TID 0000.0001)      9 ................................................................................................................................
(PID.TID 0000.0001)      8 ................................................................................................................................
(PID.TID 0000.0001)      7 ................................................................................................................................
(PID.TID 0000.0001)      6 ................................................................................................................................
(PID.TID 0000.0001)      5 ................................................................................................................................
(PID.TID 0000.0001)      4 ................................................................................................................................
(PID.TID 0000.0001)      3 ................................................................................................................................
(PID.TID 0000.0001)      2 ................................................................................................................................
(PID.TID 0000.0001)      1 ................................................................................................................................
(PID.TID 0000.0001) // =======================================================
(PID.TID 0000.0001) // END OF FIELD                                          =
(PID.TID 0000.0001) // =======================================================
(PID.TID 0000.0001) 
(PID.TID 0000.0001) Start initial hydrostatic pressure computation
(PID.TID 0000.0001) Pressure is predetermined for buoyancyRelation ATMOSPHERIC
(PID.TID 0000.0001) 
(PID.TID 0000.0001) // =======================================================
(PID.TID 0000.0001) // Model current state
(PID.TID 0000.0001) // =======================================================
(PID.TID 0000.0001) 
(PID.TID 0000.0001) // =======================================================
(PID.TID 0000.0001) // Begin MONITOR dynamic field statistics
(PID.TID 0000.0001) // =======================================================
(PID.TID 0000.0001) %MON time_tsnumber                =                     0
(PID.TID 0000.0001) %MON time_secondsf                =   0.0000000000000E+00
(PID.TID 0000.0001) %MON dynstat_eta_max              =   0.0000000000000E+00
(PID.TID 0000.0001) %MON dynstat_eta_min              =   0.0000000000000E+00
(PID.TID 0000.0001) %MON dynstat_eta_mean             =   0.0000000000000E+00
(PID.TID 0000.0001) %MON dynstat_eta_sd               =   0.0000000000000E+00
(PID.TID 0000.0001) %MON dynstat_eta_del2             =   0.0000000000000E+00
(PID.TID 0000.0001) %MON dynstat_uvel_max             =   0.0000000000000E+00
(PID.TID 0000.0001) %MON dynstat_uvel_min             =   0.0000000000000E+00
(PID.TID 0000.0001) %MON dynstat_uvel_mean            =   0.0000000000000E+00
(PID.TID 0000.0001) %MON dynstat_uvel_sd              =   0.0000000000000E+00
(PID.TID 0000.0001) %MON dynstat_uvel_del2            =   0.0000000000000E+00
(PID.TID 0000.0001) %MON dynstat_vvel_max             =   0.0000000000000E+00
(PID.TID 0000.0001) %MON dynstat_vvel_min             =   0.0000000000000E+00
(PID.TID 0000.0001) %MON dynstat_vvel_mean            =   0.0000000000000E+00
(PID.TID 0000.0001) %MON dynstat_vvel_sd              =   0.0000000000000E+00
(PID.TID 0000.0001) %MON dynstat_vvel_del2            =   0.0000000000000E+00
(PID.TID 0000.0001) %MON dynstat_wvel_max             =   0.0000000000000E+00
(PID.TID 0000.0001) %MON dynstat_wvel_min             =   0.0000000000000E+00
(PID.TID 0000.0001) %MON dynstat_wvel_mean            =   0.0000000000000E+00
(PID.TID 0000.0001) %MON dynstat_wvel_sd              =   0.0000000000000E+00
(PID.TID 0000.0001) %MON dynstat_wvel_del2            =   0.0000000000000E+00
(PID.TID 0000.0001) %MON dynstat_theta_max            =   4.1922571553987E+02
(PID.TID 0000.0001) %MON dynstat_theta_min            =   2.5503586970347E+02
(PID.TID 0000.0001) %MON dynstat_theta_mean           =   3.1867743392661E+02
(PID.TID 0000.0001) %MON dynstat_theta_sd             =   4.5642485924068E+01
(PID.TID 0000.0001) %MON dynstat_theta_del2           =   4.0739954252938E-02
(PID.TID 0000.0001) %MON dynstat_salt_max             =   0.0000000000000E+00
(PID.TID 0000.0001) %MON dynstat_salt_min             =   0.0000000000000E+00
(PID.TID 0000.0001) %MON dynstat_salt_mean            =   0.0000000000000E+00
(PID.TID 0000.0001) %MON dynstat_salt_sd              =   0.0000000000000E+00
(PID.TID 0000.0001) %MON dynstat_salt_del2            =   0.0000000000000E+00
(PID.TID 0000.0001) %MON advcfl_uvel_max              =   0.0000000000000E+00
(PID.TID 0000.0001) %MON advcfl_vvel_max              =   0.0000000000000E+00
(PID.TID 0000.0001) %MON advcfl_wvel_max              =   0.0000000000000E+00
(PID.TID 0000.0001) %MON advcfl_W_hf_max              =   0.0000000000000E+00
(PID.TID 0000.0001) %MON pe_b_mean                    =   0.0000000000000E+00
(PID.TID 0000.0001) %MON ke_max                       =   0.0000000000000E+00
(PID.TID 0000.0001) %MON ke_mean                      =   0.0000000000000E+00
(PID.TID 0000.0001) %MON ke_vol                       =   5.0990436378185E+19
(PID.TID 0000.0001) %MON vort_r_min                   =   0.0000000000000E+00
(PID.TID 0000.0001) %MON vort_r_max                   =   0.0000000000000E+00
(PID.TID 0000.0001) %MON vort_a_mean                  =   1.8580356253229E-22
(PID.TID 0000.0001) %MON vort_a_sd                    =   8.3955319514376E-05
(PID.TID 0000.0001) %MON vort_p_mean                  =   1.8580356253229E-22
(PID.TID 0000.0001) %MON vort_p_sd                    =   8.3955319514376E-05
(PID.TID 0000.0001) %MON surfExpan_theta_mean         =   0.0000000000000E+00
(PID.TID 0000.0001) %MON surfExpan_salt_mean          =   0.0000000000000E+00
(PID.TID 0000.0001) %MON surfExpan_Heat_mean          =   0.0000000000000E+00
(PID.TID 0000.0001) %MON En_Budget_T2PE_mean          =   0.0000000000000E+00
(PID.TID 0000.0001) // =======================================================
(PID.TID 0000.0001) // End MONITOR dynamic field statistics
(PID.TID 0000.0001) // =======================================================
 cg2d: Sum(rhs),rhsMax =  -2.18478013458423E-12  2.97174652332270E+00
(PID.TID 0000.0001)                    cg2d_init_res =    8.66802940877025E+01
(PID.TID 0000.0001)                       cg2d_iters =    82
(PID.TID 0000.0001)                         cg2d_res =    2.25364139665851E-12
(PID.TID 0000.0001) // =======================================================
(PID.TID 0000.0001) // Begin MONITOR dynamic field statistics
(PID.TID 0000.0001) // =======================================================
(PID.TID 0000.0001) %MON time_tsnumber                =                     1
(PID.TID 0000.0001) %MON time_secondsf                =   4.5000000000000E+02
(PID.TID 0000.0001) %MON dynstat_eta_max              =   2.5042345071868E+01
(PID.TID 0000.0001) %MON dynstat_eta_min              =  -1.3539640039731E+01
(PID.TID 0000.0001) %MON dynstat_eta_mean             =   7.3372936931966E-15
(PID.TID 0000.0001) %MON dynstat_eta_sd               =   1.1473556911239E+01
(PID.TID 0000.0001) %MON dynstat_eta_del2             =   6.3306573622709E-01
(PID.TID 0000.0001) %MON dynstat_uvel_max             =   4.6697991592583E-03
(PID.TID 0000.0001) %MON dynstat_uvel_min             =  -4.9282276317238E-03
(PID.TID 0000.0001) %MON dynstat_uvel_mean            =   8.8205702969541E-23
(PID.TID 0000.0001) %MON dynstat_uvel_sd              =   6.3501186488865E-04
(PID.TID 0000.0001) %MON dynstat_uvel_del2            =   4.5526735666709E-04
(PID.TID 0000.0001) %MON dynstat_vvel_max             =   1.9897582182330E+00
(PID.TID 0000.0001) %MON dynstat_vvel_min             =  -1.9894347284774E+00
(PID.TID 0000.0001) %MON dynstat_vvel_mean            =   2.1056418007955E-07
(PID.TID 0000.0001) %MON dynstat_vvel_sd              =   7.3659468419086E-01
(PID.TID 0000.0001) %MON dynstat_vvel_del2            =   5.9791011281337E-03
(PID.TID 0000.0001) %MON dynstat_wvel_max             =   6.3706639522720E-02
(PID.TID 0000.0001) %MON dynstat_wvel_min             =  -3.0088088977180E-02
(PID.TID 0000.0001) %MON dynstat_wvel_mean            =   4.6194185473186E-18
(PID.TID 0000.0001) %MON dynstat_wvel_sd              =   2.0952712578021E-02
(PID.TID 0000.0001) %MON dynstat_wvel_del2            =   1.5579408858444E-03
(PID.TID 0000.0001) %MON dynstat_theta_max            =   4.1922565623345E+02
(PID.TID 0000.0001) %MON dynstat_theta_min            =   2.5503587044994E+02
(PID.TID 0000.0001) %MON dynstat_theta_mean           =   3.1867743391923E+02
(PID.TID 0000.0001) %MON dynstat_theta_sd             =   4.5642485704129E+01
(PID.TID 0000.0001) %MON dynstat_theta_del2           =   4.0724389529820E-02
(PID.TID 0000.0001) %MON dynstat_salt_max             =   0.0000000000000E+00
(PID.TID 0000.0001) %MON dynstat_salt_min             =   0.0000000000000E+00
(PID.TID 0000.0001) %MON dynstat_salt_mean            =   0.0000000000000E+00
(PID.TID 0000.0001) %MON dynstat_salt_sd              =   0.0000000000000E+00
(PID.TID 0000.0001) %MON dynstat_salt_del2            =   0.0000000000000E+00
(PID.TID 0000.0001) %MON advcfl_uvel_max              =   1.8051081889307E-05
(PID.TID 0000.0001) %MON advcfl_vvel_max              =   2.8635415549444E-03
(PID.TID 0000.0001) %MON advcfl_wvel_max              =   5.0084690143736E-03
(PID.TID 0000.0001) %MON advcfl_W_hf_max              =   5.1629226186789E-03
(PID.TID 0000.0001) %MON pe_b_mean                    =   6.5821254097719E-04
(PID.TID 0000.0001) %MON ke_max                       =   1.9504108278670E+00
(PID.TID 0000.0001) %MON ke_mean                      =   2.7123159028694E-01
(PID.TID 0000.0001) %MON ke_vol                       =   5.0990436378185E+19
(PID.TID 0000.0001) %MON vort_r_min                   =  -6.4268799853593E-10
(PID.TID 0000.0001) %MON vort_r_max                   =   6.4025207338463E-10
(PID.TID 0000.0001) %MON vort_a_mean                  =  -4.4391262852631E-21
(PID.TID 0000.0001) %MON vort_a_sd                    =   8.3955319514377E-05
(PID.TID 0000.0001) %MON vort_p_mean                  =  -4.4391262852631E-21
(PID.TID 0000.0001) %MON vort_p_sd                    =   8.3955319514377E-05
(PID.TID 0000.0001) %MON surfExpan_theta_mean         =  -4.2435811132714E-01
(PID.TID 0000.0001) %MON surfExpan_salt_mean          =   0.0000000000000E+00
(PID.TID 0000.0001) %MON surfExpan_Heat_mean          =  -4.2798892310939E+01
(PID.TID 0000.0001) %MON En_Budget_T2PE_mean          =   1.1686225972536E+01
(PID.TID 0000.0001) // =======================================================
(PID.TID 0000.0001) // End MONITOR dynamic field statistics
(PID.TID 0000.0001) // =======================================================
 cg2d: Sum(rhs),rhsMax =   5.27197729915940E-12  7.24719300098188E+00
(PID.TID 0000.0001)                    cg2d_init_res =    1.63276980969833E+02
(PID.TID 0000.0001)                       cg2d_iters =    83
(PID.TID 0000.0001)                         cg2d_res =    1.33370516167509E-12
(PID.TID 0000.0001) // =======================================================
(PID.TID 0000.0001) // Begin MONITOR dynamic field statistics
(PID.TID 0000.0001) // =======================================================
(PID.TID 0000.0001) %MON time_tsnumber                =                     2
(PID.TID 0000.0001) %MON time_secondsf                =   9.0000000000000E+02
(PID.TID 0000.0001) %MON dynstat_eta_max              =   6.3577902495689E+01
(PID.TID 0000.0001) %MON dynstat_eta_min              =  -4.0178108095180E+01
(PID.TID 0000.0001) %MON dynstat_eta_mean             =   4.4510476652850E-14
(PID.TID 0000.0001) %MON dynstat_eta_sd               =   3.3747059524053E+01
(PID.TID 0000.0001) %MON dynstat_eta_del2             =   1.3490155706711E+00
(PID.TID 0000.0001) %MON dynstat_uvel_max             =   1.3269022235748E-01
(PID.TID 0000.0001) %MON dynstat_uvel_min             =  -4.1440781688428E-03
(PID.TID 0000.0001) %MON dynstat_uvel_mean            =   3.3447352134775E-02
(PID.TID 0000.0001) %MON dynstat_uvel_sd              =   3.2498239868678E-02
(PID.TID 0000.0001) %MON dynstat_uvel_del2            =   9.3822935252393E-04
(PID.TID 0000.0001) %MON dynstat_vvel_max             =   3.9100518663155E+00
(PID.TID 0000.0001) %MON dynstat_vvel_min             =  -3.9097180301625E+00
(PID.TID 0000.0001) %MON dynstat_vvel_mean            =   4.0208303041313E-07
(PID.TID 0000.0001) %MON dynstat_vvel_sd              =   1.4691101338992E+00
(PID.TID 0000.0001) %MON dynstat_vvel_del2            =   1.2063170236497E-02
(PID.TID 0000.0001) %MON dynstat_wvel_max             =   1.1511773100066E-01
(PID.TID 0000.0001) %MON dynstat_wvel_min             =  -5.9263279285258E-02
(PID.TID 0000.0001) %MON dynstat_wvel_mean            =  -2.8973099567839E-18
(PID.TID 0000.0001) %MON dynstat_wvel_sd              =   4.0653822941512E-02
(PID.TID 0000.0001) %MON dynstat_wvel_del2            =   2.2674996199787E-03
(PID.TID 0000.0001) %MON dynstat_theta_max            =   4.1934179029016E+02
(PID.TID 0000.0001) %MON dynstat_theta_min            =   2.5503587887178E+02
(PID.TID 0000.0001) %MON dynstat_theta_mean           =   3.1868048929026E+02
(PID.TID 0000.0001) %MON dynstat_theta_sd             =   4.5640639558286E+01
(PID.TID 0000.0001) %MON dynstat_theta_del2           =   4.1022118302452E-02
(PID.TID 0000.0001) %MON dynstat_salt_max             =   0.0000000000000E+00
(PID.TID 0000.0001) %MON dynstat_salt_min             =   0.0000000000000E+00
(PID.TID 0000.0001) %MON dynstat_salt_mean            =   0.0000000000000E+00
(PID.TID 0000.0001) %MON dynstat_salt_sd              =   0.0000000000000E+00
(PID.TID 0000.0001) %MON dynstat_salt_del2            =   0.0000000000000E+00
(PID.TID 0000.0001) %MON advcfl_uvel_max              =   3.7420040176224E-04
(PID.TID 0000.0001) %MON advcfl_vvel_max              =   5.6271138365369E-03
(PID.TID 0000.0001) %MON advcfl_wvel_max              =   8.1957568114903E-03
(PID.TID 0000.0001) %MON advcfl_W_hf_max              =   8.1965974933073E-03
(PID.TID 0000.0001) %MON pe_b_mean                    =   5.6943201325994E-03
(PID.TID 0000.0001) %MON ke_max                       =   7.6306684902135E+00
(PID.TID 0000.0001) %MON ke_mean                      =   1.0800131345250E+00
(PID.TID 0000.0001) %MON ke_vol                       =   5.0990436378185E+19
(PID.TID 0000.0001) %MON vort_r_min                   =  -9.0646455406978E-08
(PID.TID 0000.0001) %MON vort_r_max                   =   9.0643097253383E-08
(PID.TID 0000.0001) %MON vort_a_mean                  =  -6.8974613842350E-15
(PID.TID 0000.0001) %MON vort_a_sd                    =   8.3961653756616E-05
(PID.TID 0000.0001) %MON vort_p_mean                  =  -6.8974613842350E-15
(PID.TID 0000.0001) %MON vort_p_sd                    =   8.3961653756616E-05
(PID.TID 0000.0001) %MON surfExpan_theta_mean         =  -8.4589294274297E-01
(PID.TID 0000.0001) %MON surfExpan_salt_mean          =   0.0000000000000E+00
(PID.TID 0000.0001) %MON surfExpan_Heat_mean          =  -8.5313041029936E+01
(PID.TID 0000.0001) %MON En_Budget_T2PE_mean          =   2.3285716593334E+01
(PID.TID 0000.0001) // =======================================================
(PID.TID 0000.0001) // End MONITOR dynamic field statistics
(PID.TID 0000.0001) // =======================================================
 cg2d: Sum(rhs),rhsMax =  -1.67891256452890E-11  1.16280064950471E+01
(PID.TID 0000.0001)                    cg2d_init_res =    2.36278426083155E+02
(PID.TID 0000.0001)                       cg2d_iters =    82
(PID.TID 0000.0001)                         cg2d_res =    1.86262040250707E-12
(PID.TID 0000.0001) // =======================================================
(PID.TID 0000.0001) // Begin MONITOR dynamic field statistics
(PID.TID 0000.0001) // =======================================================
(PID.TID 0000.0001) %MON time_tsnumber                =                     3
(PID.TID 0000.0001) %MON time_secondsf                =   1.3500000000000E+03
(PID.TID 0000.0001) %MON dynstat_eta_max              =   1.2251879812418E+02
(PID.TID 0000.0001) %MON dynstat_eta_min              =  -7.9709002726059E+01
(PID.TID 0000.0001) %MON dynstat_eta_mean             =   2.2669085750394E-14
(PID.TID 0000.0001) %MON dynstat_eta_sd               =   6.6408335908905E+01
(PID.TID 0000.0001) %MON dynstat_eta_del2             =   1.8261762764005E+00
(PID.TID 0000.0001) %MON dynstat_uvel_max             =   3.3770666027243E-01
(PID.TID 0000.0001) %MON dynstat_uvel_min             =  -4.9963966174812E-03
(PID.TID 0000.0001) %MON dynstat_uvel_mean            =   8.7592845370903E-02
(PID.TID 0000.0001) %MON dynstat_uvel_sd              =   8.5194616384753E-02
(PID.TID 0000.0001) %MON dynstat_uvel_del2            =   1.5408762953206E-03
(PID.TID 0000.0001) %MON dynstat_vvel_max             =   5.8140113138843E+00
(PID.TID 0000.0001) %MON dynstat_vvel_min             =  -5.8136416971052E+00
(PID.TID 0000.0001) %MON dynstat_vvel_mean            =   5.8798166483139E-07
(PID.TID 0000.0001) %MON dynstat_vvel_sd              =   2.1928378600292E+00
(PID.TID 0000.0001) %MON dynstat_vvel_del2            =   1.7730081767405E-02
(PID.TID 0000.0001) %MON dynstat_wvel_max             =   1.5491292064835E-01
(PID.TID 0000.0001) %MON dynstat_wvel_min             =  -8.7868465063041E-02
(PID.TID 0000.0001) %MON dynstat_wvel_mean            =  -5.5038119423261E-18
(PID.TID 0000.0001) %MON dynstat_wvel_sd              =   5.9418372592604E-02
(PID.TID 0000.0001) %MON dynstat_wvel_del2            =   2.4221584274937E-03
(PID.TID 0000.0001) %MON dynstat_theta_max            =   4.1951388630175E+02
(PID.TID 0000.0001) %MON dynstat_theta_min            =   2.5503589180022E+02
(PID.TID 0000.0001) %MON dynstat_theta_mean           =   3.1868543342962E+02
(PID.TID 0000.0001) %MON dynstat_theta_sd             =   4.5637649936573E+01
(PID.TID 0000.0001) %MON dynstat_theta_del2           =   4.1836666844089E-02
(PID.TID 0000.0001) %MON dynstat_salt_max             =   0.0000000000000E+00
(PID.TID 0000.0001) %MON dynstat_salt_min             =   0.0000000000000E+00
(PID.TID 0000.0001) %MON dynstat_salt_mean            =   0.0000000000000E+00
(PID.TID 0000.0001) %MON dynstat_salt_sd              =   0.0000000000000E+00
(PID.TID 0000.0001) %MON dynstat_salt_del2            =   0.0000000000000E+00
(PID.TID 0000.0001) %MON advcfl_uvel_max              =   9.4177074001075E-04
(PID.TID 0000.0001) %MON advcfl_vvel_max              =   8.3671789093094E-03
(PID.TID 0000.0001) %MON advcfl_wvel_max              =   1.2193143816234E-02
(PID.TID 0000.0001) %MON advcfl_W_hf_max              =   1.2103295970573E-02
(PID.TID 0000.0001) %MON pe_b_mean                    =   2.2050335390949E-02
(PID.TID 0000.0001) %MON ke_max                       =   1.6713771863400E+01
(PID.TID 0000.0001) %MON ke_mean                      =   2.4112522135013E+00
(PID.TID 0000.0001) %MON ke_vol                       =   5.0990436378185E+19
(PID.TID 0000.0001) %MON vort_r_min                   =  -2.2860461887521E-07
(PID.TID 0000.0001) %MON vort_r_max                   =   2.2867790404943E-07
(PID.TID 0000.0001) %MON vort_a_mean                  =  -1.0363958673922E-14
(PID.TID 0000.0001) %MON vort_a_sd                    =   8.3971914446564E-05
(PID.TID 0000.0001) %MON vort_p_mean                  =  -1.0363958673922E-14
(PID.TID 0000.0001) %MON vort_p_sd                    =   8.3971914446564E-05
(PID.TID 0000.0001) %MON surfExpan_theta_mean         =  -1.2614272651553E+00
(PID.TID 0000.0001) %MON surfExpan_salt_mean          =   0.0000000000000E+00
(PID.TID 0000.0001) %MON surfExpan_Heat_mean          =  -1.2722200480773E+02
(PID.TID 0000.0001) %MON En_Budget_T2PE_mean          =   3.4708931870461E+01
(PID.TID 0000.0001) // =======================================================
(PID.TID 0000.0001) // End MONITOR dynamic field statistics
(PID.TID 0000.0001) // =======================================================
 cg2d: Sum(rhs),rhsMax =  -1.39065425841522E-11  1.57329780872787E+01
(PID.TID 0000.0001)                    cg2d_init_res =    3.08760544238969E+02
(PID.TID 0000.0001)                       cg2d_iters =    82
(PID.TID 0000.0001)                         cg2d_res =    1.66624215035924E-12
(PID.TID 0000.0001) // =======================================================
(PID.TID 0000.0001) // Begin MONITOR dynamic field statistics
(PID.TID 0000.0001) // =======================================================
(PID.TID 0000.0001) %MON time_tsnumber                =                     4
(PID.TID 0000.0001) %MON time_secondsf                =   1.8000000000000E+03
(PID.TID 0000.0001) %MON dynstat_eta_max              =   2.0296917004787E+02
(PID.TID 0000.0001) %MON dynstat_eta_min              =  -1.3188209355214E+02
(PID.TID 0000.0001) %MON dynstat_eta_mean             =   3.0128821538579E-14
(PID.TID 0000.0001) %MON dynstat_eta_sd               =   1.0923865701775E+02
(PID.TID 0000.0001) %MON dynstat_eta_del2             =   1.9840878761343E+00
(PID.TID 0000.0001) %MON dynstat_uvel_max             =   6.1583993412716E-01
(PID.TID 0000.0001) %MON dynstat_uvel_min             =  -5.2409167949524E-03
(PID.TID 0000.0001) %MON dynstat_uvel_mean            =   1.6205432896461E-01
(PID.TID 0000.0001) %MON dynstat_uvel_sd              =   1.5785160088244E-01
(PID.TID 0000.0001) %MON dynstat_uvel_del2            =   2.2913057476929E-03
(PID.TID 0000.0001) %MON dynstat_vvel_max             =   7.6666902727800E+00
(PID.TID 0000.0001) %MON dynstat_vvel_min             =  -7.6664385985878E+00
(PID.TID 0000.0001) %MON dynstat_vvel_mean            =   7.8379358586322E-07
(PID.TID 0000.0001) %MON dynstat_vvel_sd              =   2.9053569282730E+00
(PID.TID 0000.0001) %MON dynstat_vvel_del2            =   2.2529393719765E-02
(PID.TID 0000.0001) %MON dynstat_wvel_max             =   1.8571816737695E-01
(PID.TID 0000.0001) %MON dynstat_wvel_min             =  -1.1619847123308E-01
(PID.TID 0000.0001) %MON dynstat_wvel_mean            =  -2.2896352533043E-18
(PID.TID 0000.0001) %MON dynstat_wvel_sd              =   7.7560453185711E-02
(PID.TID 0000.0001) %MON dynstat_wvel_del2            =   2.5203447395458E-03
(PID.TID 0000.0001) %MON dynstat_theta_max            =   4.1972703196125E+02
(PID.TID 0000.0001) %MON dynstat_theta_min            =   2.5503590899717E+02
(PID.TID 0000.0001) %MON dynstat_theta_mean           =   3.1869223063313E+02
(PID.TID 0000.0001) %MON dynstat_theta_sd             =   4.5633536512581E+01
(PID.TID 0000.0001) %MON dynstat_theta_del2           =   4.2828965201186E-02
(PID.TID 0000.0001) %MON dynstat_salt_max             =   0.0000000000000E+00
(PID.TID 0000.0001) %MON dynstat_salt_min             =   0.0000000000000E+00
(PID.TID 0000.0001) %MON dynstat_salt_mean            =   0.0000000000000E+00
(PID.TID 0000.0001) %MON dynstat_salt_sd              =   0.0000000000000E+00
(PID.TID 0000.0001) %MON dynstat_salt_del2            =   0.0000000000000E+00
(PID.TID 0000.0001) %MON advcfl_uvel_max              =   1.7190959166538E-03
(PID.TID 0000.0001) %MON advcfl_vvel_max              =   1.1033444156089E-02
(PID.TID 0000.0001) %MON advcfl_wvel_max              =   1.6098618232546E-02
(PID.TID 0000.0001) %MON advcfl_W_hf_max              =   1.5980376741646E-02
(PID.TID 0000.0001) %MON pe_b_mean                    =   5.9665420935201E-02
(PID.TID 0000.0001) %MON ke_max                       =   2.8872114405945E+01
(PID.TID 0000.0001) %MON ke_mean                      =   4.2452938660731E+00
(PID.TID 0000.0001) %MON ke_vol                       =   5.0990436378185E+19
(PID.TID 0000.0001) %MON vort_r_min                   =  -4.0674214735096E-07
(PID.TID 0000.0001) %MON vort_r_max                   =   4.0701132193600E-07
(PID.TID 0000.0001) %MON vort_a_mean                  =  -8.4671545073230E-15
(PID.TID 0000.0001) %MON vort_a_sd                    =   8.3986042667462E-05
(PID.TID 0000.0001) %MON vort_p_mean                  =  -8.4671545073230E-15
(PID.TID 0000.0001) %MON vort_p_sd                    =   8.3986042667462E-05
(PID.TID 0000.0001) %MON surfExpan_theta_mean         =  -1.6691763470627E+00
(PID.TID 0000.0001) %MON surfExpan_salt_mean          =   0.0000000000000E+00
(PID.TID 0000.0001) %MON surfExpan_Heat_mean          =  -1.6834578347633E+02
(PID.TID 0000.0001) %MON En_Budget_T2PE_mean          =   4.5906869285671E+01
(PID.TID 0000.0001) // =======================================================
(PID.TID 0000.0001) // End MONITOR dynamic field statistics
(PID.TID 0000.0001) // =======================================================
 cg2d: Sum(rhs),rhsMax =  -4.10200762246404E-11  2.33992789577758E+01
(PID.TID 0000.0001)                    cg2d_init_res =    3.80200422967931E+02
(PID.TID 0000.0001)                       cg2d_iters =    82
(PID.TID 0000.0001)                         cg2d_res =    1.41007844032614E-12
(PID.TID 0000.0001) // =======================================================
(PID.TID 0000.0001) // Begin MONITOR dynamic field statistics
(PID.TID 0000.0001) // =======================================================
(PID.TID 0000.0001) %MON time_tsnumber                =                     5
(PID.TID 0000.0001) %MON time_secondsf                =   2.2500000000000E+03
(PID.TID 0000.0001) %MON dynstat_eta_max              =   3.0231547692761E+02
(PID.TID 0000.0001) %MON dynstat_eta_min              =  -1.9646580610471E+02
(PID.TID 0000.0001) %MON dynstat_eta_mean             =   6.9369731313131E-16
(PID.TID 0000.0001) %MON dynstat_eta_sd               =   1.6203498595951E+02
(PID.TID 0000.0001) %MON dynstat_eta_del2             =   2.0738233048063E+00
(PID.TID 0000.0001) %MON dynstat_uvel_max             =   9.6459315765479E-01
(PID.TID 0000.0001) %MON dynstat_uvel_min             =  -6.2712688717593E-03
(PID.TID 0000.0001) %MON dynstat_uvel_mean            =   2.5641562744629E-01
(PID.TID 0000.0001) %MON dynstat_uvel_sd              =   2.5021527726152E-01
(PID.TID 0000.0001) %MON dynstat_uvel_del2            =   3.2139035655171E-03
(PID.TID 0000.0001) %MON dynstat_vvel_max             =   9.4616879591294E+00
(PID.TID 0000.0001) %MON dynstat_vvel_min             =  -9.4616642830680E+00
(PID.TID 0000.0001) %MON dynstat_vvel_mean            =   9.9665524594363E-07
(PID.TID 0000.0001) %MON dynstat_vvel_sd              =   3.6039038051095E+00
(PID.TID 0000.0001) %MON dynstat_vvel_del2            =   2.6524383746603E-02
(PID.TID 0000.0001) %MON dynstat_wvel_max             =   2.2088088405438E-01
(PID.TID 0000.0001) %MON dynstat_wvel_min             =  -1.4404744608643E-01
(PID.TID 0000.0001) %MON dynstat_wvel_mean            =   3.8002521352503E-19
(PID.TID 0000.0001) %MON dynstat_wvel_sd              =   9.5191031843920E-02
(PID.TID 0000.0001) %MON dynstat_wvel_del2            =   2.6274301762110E-03
(PID.TID 0000.0001) %MON dynstat_theta_max            =   4.1997053058379E+02
(PID.TID 0000.0001) %MON dynstat_theta_min            =   2.5503593038678E+02
(PID.TID 0000.0001) %MON dynstat_theta_mean           =   3.1870084085879E+02
(PID.TID 0000.0001) %MON dynstat_theta_sd             =   4.5628320697401E+01
(PID.TID 0000.0001) %MON dynstat_theta_del2           =   4.3882707626582E-02
(PID.TID 0000.0001) %MON dynstat_salt_max             =   0.0000000000000E+00
(PID.TID 0000.0001) %MON dynstat_salt_min             =   0.0000000000000E+00
(PID.TID 0000.0001) %MON dynstat_salt_mean            =   0.0000000000000E+00
(PID.TID 0000.0001) %MON dynstat_salt_sd              =   0.0000000000000E+00
(PID.TID 0000.0001) %MON dynstat_salt_del2            =   0.0000000000000E+00
(PID.TID 0000.0001) %MON advcfl_uvel_max              =   2.7025174422938E-03
(PID.TID 0000.0001) %MON advcfl_vvel_max              =   1.3616697949836E-02
(PID.TID 0000.0001) %MON advcfl_wvel_max              =   1.9879279564894E-02
(PID.TID 0000.0001) %MON advcfl_W_hf_max              =   1.9743015055299E-02
(PID.TID 0000.0001) %MON pe_b_mean                    =   1.3127668337449E-01
(PID.TID 0000.0001) %MON ke_max                       =   4.4185946224477E+01
(PID.TID 0000.0001) %MON ke_mean                      =   6.5569420472103E+00
(PID.TID 0000.0001) %MON ke_vol                       =   5.0990436378185E+19
(PID.TID 0000.0001) %MON vort_r_min                   =  -6.1862425863720E-07
(PID.TID 0000.0001) %MON vort_r_max                   =   6.1919416325074E-07
(PID.TID 0000.0001) %MON vort_a_mean                  =  -2.4089909170725E-15
(PID.TID 0000.0001) %MON vort_a_sd                    =   8.4003975121036E-05
(PID.TID 0000.0001) %MON vort_p_mean                  =  -2.4089909170725E-15
(PID.TID 0000.0001) %MON vort_p_sd                    =   8.4003975121036E-05
(PID.TID 0000.0001) %MON surfExpan_theta_mean         =  -2.0671388373537E+00
(PID.TID 0000.0001) %MON surfExpan_salt_mean          =   0.0000000000000E+00
(PID.TID 0000.0001) %MON surfExpan_Heat_mean          =  -2.0848252956677E+02
(PID.TID 0000.0001) %MON En_Budget_T2PE_mean          =   5.6827465810099E+01
(PID.TID 0000.0001) // =======================================================
(PID.TID 0000.0001) // End MONITOR dynamic field statistics
(PID.TID 0000.0001) // =======================================================
 cg2d: Sum(rhs),rhsMax =   1.42224010346581E-11  3.25074323500212E+01
(PID.TID 0000.0001)                    cg2d_init_res =    4.49457604382619E+02
(PID.TID 0000.0001)                       cg2d_iters =    82
(PID.TID 0000.0001)                         cg2d_res =    1.48360790823063E-12
(PID.TID 0000.0001) // =======================================================
(PID.TID 0000.0001) // Begin MONITOR dynamic field statistics
(PID.TID 0000.0001) // =======================================================
(PID.TID 0000.0001) %MON time_tsnumber                =                     6
(PID.TID 0000.0001) %MON time_secondsf                =   2.7000000000000E+03
(PID.TID 0000.0001) %MON dynstat_eta_max              =   4.1982196260281E+02
(PID.TID 0000.0001) %MON dynstat_eta_min              =  -2.7320814364768E+02
(PID.TID 0000.0001) %MON dynstat_eta_mean             =  -7.5767064915297E-15
(PID.TID 0000.0001) %MON dynstat_eta_sd               =   2.2452854981231E+02
(PID.TID 0000.0001) %MON dynstat_eta_del2             =   2.4785017286712E+00
(PID.TID 0000.0001) %MON dynstat_uvel_max             =   1.3815265682062E+00
(PID.TID 0000.0001) %MON dynstat_uvel_min             =  -6.9803778088959E-03
(PID.TID 0000.0001) %MON dynstat_uvel_mean            =   3.7015898296316E-01
(PID.TID 0000.0001) %MON dynstat_uvel_sd              =   3.6196765293320E-01
(PID.TID 0000.0001) %MON dynstat_uvel_del2            =   4.2997213065822E-03
(PID.TID 0000.0001) %MON dynstat_vvel_max             =   1.1196605424239E+01
(PID.TID 0000.0001) %MON dynstat_vvel_min             =  -1.1196804710816E+01
(PID.TID 0000.0001) %MON dynstat_vvel_mean            =   1.2223120958247E-06
(PID.TID 0000.0001) %MON dynstat_vvel_sd              =   4.2857970996336E+00
(PID.TID 0000.0001) %MON dynstat_vvel_del2            =   2.9780348760005E-02
(PID.TID 0000.0001) %MON dynstat_wvel_max             =   2.6121285540470E-01
(PID.TID 0000.0001) %MON dynstat_wvel_min             =  -1.7117350139820E-01
(PID.TID 0000.0001) %MON dynstat_wvel_mean            =  -1.2652113841207E-17
(PID.TID 0000.0001) %MON dynstat_wvel_sd              =   1.1230678676934E-01
(PID.TID 0000.0001) %MON dynstat_wvel_del2            =   2.6694831097198E-03
(PID.TID 0000.0001) %MON dynstat_theta_max            =   4.2023506025436E+02
(PID.TID 0000.0001) %MON dynstat_theta_min            =   2.5503595615523E+02
(PID.TID 0000.0001) %MON dynstat_theta_mean           =   3.1871121448013E+02
(PID.TID 0000.0001) %MON dynstat_theta_sd             =   4.5622029642300E+01
(PID.TID 0000.0001) %MON dynstat_theta_del2           =   4.4925974143080E-02
(PID.TID 0000.0001) %MON dynstat_salt_max             =   0.0000000000000E+00
(PID.TID 0000.0001) %MON dynstat_salt_min             =   0.0000000000000E+00
(PID.TID 0000.0001) %MON dynstat_salt_mean            =   0.0000000000000E+00
(PID.TID 0000.0001) %MON dynstat_salt_sd              =   0.0000000000000E+00
(PID.TID 0000.0001) %MON dynstat_salt_del2            =   0.0000000000000E+00
(PID.TID 0000.0001) %MON advcfl_uvel_max              =   3.8956660190848E-03
(PID.TID 0000.0001) %MON advcfl_vvel_max              =   1.6113774667804E-02
(PID.TID 0000.0001) %MON advcfl_wvel_max              =   2.3509156986423E-02
(PID.TID 0000.0001) %MON advcfl_W_hf_max              =   2.3364440600206E-02
(PID.TID 0000.0001) %MON pe_b_mean                    =   2.5206534840407E-01
(PID.TID 0000.0001) %MON ke_max                       =   6.2328320550588E+01
(PID.TID 0000.0001) %MON ke_mean                      =   9.3162167680743E+00
(PID.TID 0000.0001) %MON ke_vol                       =   5.0990436378185E+19
(PID.TID 0000.0001) %MON vort_r_min                   =  -8.5854398780595E-07
(PID.TID 0000.0001) %MON vort_r_max                   =   8.5948938428728E-07
(PID.TID 0000.0001) %MON vort_a_mean                  =   5.0091034602597E-15
(PID.TID 0000.0001) %MON vort_a_sd                    =   8.4025632821823E-05
(PID.TID 0000.0001) %MON vort_p_mean                  =   5.0091034602597E-15
(PID.TID 0000.0001) %MON vort_p_sd                    =   8.4025632821823E-05
(PID.TID 0000.0001) %MON surfExpan_theta_mean         =  -2.4533657032841E+00
(PID.TID 0000.0001) %MON surfExpan_salt_mean          =   0.0000000000000E+00
(PID.TID 0000.0001) %MON surfExpan_Heat_mean          =  -2.4743567221048E+02
(PID.TID 0000.0001) %MON En_Budget_T2PE_mean          =   6.7421095475386E+01
(PID.TID 0000.0001) // =======================================================
(PID.TID 0000.0001) // End MONITOR dynamic field statistics
(PID.TID 0000.0001) // =======================================================
 cg2d: Sum(rhs),rhsMax =   9.67761426551306E-11  4.30239129875974E+01
(PID.TID 0000.0001)                    cg2d_init_res =    5.16005281207625E+02
(PID.TID 0000.0001)                       cg2d_iters =    82
(PID.TID 0000.0001)                         cg2d_res =    1.29566099175650E-12
(PID.TID 0000.0001) // =======================================================
(PID.TID 0000.0001) // Begin MONITOR dynamic field statistics
(PID.TID 0000.0001) // =======================================================
(PID.TID 0000.0001) %MON time_tsnumber                =                     7
(PID.TID 0000.0001) %MON time_secondsf                =   3.1500000000000E+03
(PID.TID 0000.0001) %MON dynstat_eta_max              =   5.5464650162782E+02
(PID.TID 0000.0001) %MON dynstat_eta_min              =  -3.6187579206367E+02
(PID.TID 0000.0001) %MON dynstat_eta_mean             =  -1.8058972104778E-13
(PID.TID 0000.0001) %MON dynstat_eta_sd               =   2.9638193251064E+02
(PID.TID 0000.0001) %MON dynstat_eta_del2             =   2.7364942268496E+00
(PID.TID 0000.0001) %MON dynstat_uvel_max             =   1.8641672524429E+00
(PID.TID 0000.0001) %MON dynstat_uvel_min             =  -1.2439680352535E-02
(PID.TID 0000.0001) %MON dynstat_uvel_mean            =   5.0267622220470E-01
(PID.TID 0000.0001) %MON dynstat_uvel_sd              =   4.9273452575709E-01
(PID.TID 0000.0001) %MON dynstat_uvel_del2            =   5.5394868804996E-03
(PID.TID 0000.0001) %MON dynstat_vvel_max             =   1.2871015895025E+01
(PID.TID 0000.0001) %MON dynstat_vvel_min             =  -1.2870868247177E+01
(PID.TID 0000.0001) %MON dynstat_vvel_mean            =   1.4477185590043E-06
(PID.TID 0000.0001) %MON dynstat_vvel_sd              =   4.9484572882372E+00
(PID.TID 0000.0001) %MON dynstat_vvel_del2            =   3.2402818525028E-02
(PID.TID 0000.0001) %MON dynstat_wvel_max             =   2.9961684776381E-01
(PID.TID 0000.0001) %MON dynstat_wvel_min             =  -1.9738955395228E-01
(PID.TID 0000.0001) %MON dynstat_wvel_mean            =  -4.4462666576321E-17
(PID.TID 0000.0001) %MON dynstat_wvel_sd              =   1.2886757404123E-01
(PID.TID 0000.0001) %MON dynstat_wvel_del2            =   2.6590826160515E-03
(PID.TID 0000.0001) %MON dynstat_theta_max            =   4.2051264483197E+02
(PID.TID 0000.0001) %MON dynstat_theta_min            =   2.5503598544415E+02
(PID.TID 0000.0001) %MON dynstat_theta_mean           =   3.1872329324949E+02
(PID.TID 0000.0001) %MON dynstat_theta_sd             =   4.5614695514214E+01
(PID.TID 0000.0001) %MON dynstat_theta_del2           =   4.5895478131011E-02
(PID.TID 0000.0001) %MON dynstat_salt_max             =   0.0000000000000E+00
(PID.TID 0000.0001) %MON dynstat_salt_min             =   0.0000000000000E+00
(PID.TID 0000.0001) %MON dynstat_salt_mean            =   0.0000000000000E+00
(PID.TID 0000.0001) %MON dynstat_salt_sd              =   0.0000000000000E+00
(PID.TID 0000.0001) %MON dynstat_salt_del2            =   0.0000000000000E+00
(PID.TID 0000.0001) %MON advcfl_uvel_max              =   5.2874867339876E-03
(PID.TID 0000.0001) %MON advcfl_vvel_max              =   1.8523199719454E-02
(PID.TID 0000.0001) %MON advcfl_wvel_max              =   2.6965516298743E-02
(PID.TID 0000.0001) %MON advcfl_W_hf_max              =   2.6819025523643E-02
(PID.TID 0000.0001) %MON pe_b_mean                    =   4.3921124959368E-01
(PID.TID 0000.0001) %MON ke_max                       =   8.2972446307038E+01
(PID.TID 0000.0001) %MON ke_mean                      =   1.2488916402069E+01
(PID.TID 0000.0001) %MON ke_vol                       =   5.0990436378185E+19
(PID.TID 0000.0001) %MON vort_r_min                   =  -1.1365133315332E-06
(PID.TID 0000.0001) %MON vort_r_max                   =   1.1395268559397E-06
(PID.TID 0000.0001) %MON vort_a_mean                  =   1.1015213189263E-14
(PID.TID 0000.0001) %MON vort_a_sd                    =   8.4050922453409E-05
(PID.TID 0000.0001) %MON vort_p_mean                  =   1.1015213189263E-14
(PID.TID 0000.0001) %MON vort_p_sd                    =   8.4050922453409E-05
(PID.TID 0000.0001) %MON surfExpan_theta_mean         =  -2.8259718987755E+00
(PID.TID 0000.0001) %MON surfExpan_salt_mean          =   0.0000000000000E+00
(PID.TID 0000.0001) %MON surfExpan_Heat_mean          =  -2.8501509395255E+02
(PID.TID 0000.0001) %MON En_Budget_T2PE_mean          =   7.7640566267607E+01
(PID.TID 0000.0001) // =======================================================
(PID.TID 0000.0001) // End MONITOR dynamic field statistics
(PID.TID 0000.0001) // =======================================================
 cg2d: Sum(rhs),rhsMax =   1.19166010392746E-10  5.49206476634675E+01
(PID.TID 0000.0001)                    cg2d_init_res =    5.79682795789251E+02
(PID.TID 0000.0001)                       cg2d_iters =    81
(PID.TID 0000.0001)                         cg2d_res =    2.56195378105318E-12
(PID.TID 0000.0001) // =======================================================
(PID.TID 0000.0001) // Begin MONITOR dynamic field statistics
(PID.TID 0000.0001) // =======================================================
(PID.TID 0000.0001) %MON time_tsnumber                =                     8
(PID.TID 0000.0001) %MON time_secondsf                =   3.6000000000000E+03
(PID.TID 0000.0001) %MON dynstat_eta_max              =   7.0576525084052E+02
(PID.TID 0000.0001) %MON dynstat_eta_min              =  -4.6201727790320E+02
(PID.TID 0000.0001) %MON dynstat_eta_mean             =   2.4012338319562E-13
(PID.TID 0000.0001) %MON dynstat_eta_sd               =   3.7720709493055E+02
(PID.TID 0000.0001) %MON dynstat_eta_del2             =   2.8596935639707E+00
(PID.TID 0000.0001) %MON dynstat_uvel_max             =   2.4110565891524E+00
(PID.TID 0000.0001) %MON dynstat_uvel_min             =  -2.1636340585691E-02
(PID.TID 0000.0001) %MON dynstat_uvel_mean            =   6.5327158253701E-01
(PID.TID 0000.0001) %MON dynstat_uvel_sd              =   6.4208547679256E-01
(PID.TID 0000.0001) %MON dynstat_uvel_del2            =   6.9196714375335E-03
(PID.TID 0000.0001) %MON dynstat_vvel_max             =   1.4483069851664E+01
(PID.TID 0000.0001) %MON dynstat_vvel_min             =  -1.4482651492123E+01
(PID.TID 0000.0001) %MON dynstat_vvel_mean            =   1.6565423262065E-06
(PID.TID 0000.0001) %MON dynstat_vvel_sd              =   5.5894144352942E+00
(PID.TID 0000.0001) %MON dynstat_vvel_del2            =   3.4226623511444E-02
(PID.TID 0000.0001) %MON dynstat_wvel_max             =   3.3583294734824E-01
(PID.TID 0000.0001) %MON dynstat_wvel_min             =  -2.2274498406545E-01
(PID.TID 0000.0001) %MON dynstat_wvel_mean            =   3.2254416683442E-17
(PID.TID 0000.0001) %MON dynstat_wvel_sd              =   1.4482540874410E-01
(PID.TID 0000.0001) %MON dynstat_wvel_del2            =   2.5251810273886E-03
(PID.TID 0000.0001) %MON dynstat_theta_max            =   4.2079663926942E+02
(PID.TID 0000.0001) %MON dynstat_theta_min            =   2.5503601744629E+02
(PID.TID 0000.0001) %MON dynstat_theta_mean           =   3.1873701061862E+02
(PID.TID 0000.0001) %MON dynstat_theta_sd             =   4.5606355348407E+01
(PID.TID 0000.0001) %MON dynstat_theta_del2           =   4.6737364355407E-02
(PID.TID 0000.0001) %MON dynstat_salt_max             =   0.0000000000000E+00
(PID.TID 0000.0001) %MON dynstat_salt_min             =   0.0000000000000E+00
(PID.TID 0000.0001) %MON dynstat_salt_mean            =   0.0000000000000E+00
(PID.TID 0000.0001) %MON dynstat_salt_sd              =   0.0000000000000E+00
(PID.TID 0000.0001) %MON dynstat_salt_del2            =   0.0000000000000E+00
(PID.TID 0000.0001) %MON advcfl_uvel_max              =   6.8719534114496E-03
(PID.TID 0000.0001) %MON advcfl_vvel_max              =   2.0843171790104E-02
(PID.TID 0000.0001) %MON advcfl_wvel_max              =   3.0224965261342E-02
(PID.TID 0000.0001) %MON advcfl_W_hf_max              =   3.0086161962593E-02
(PID.TID 0000.0001) %MON pe_b_mean                    =   7.1142596232966E-01
(PID.TID 0000.0001) %MON ke_max                       =   1.0587038606302E+02
(PID.TID 0000.0001) %MON ke_mean                      =   1.6037201006191E+01
(PID.TID 0000.0001) %MON ke_vol                       =   5.0990436378185E+19
(PID.TID 0000.0001) %MON vort_r_min                   =  -1.4772858591915E-06
(PID.TID 0000.0001) %MON vort_r_max                   =   1.4805528961776E-06
(PID.TID 0000.0001) %MON vort_a_mean                  =   1.3912191628395E-14
(PID.TID 0000.0001) %MON vort_a_sd                    =   8.4079736368494E-05
(PID.TID 0000.0001) %MON vort_p_mean                  =   1.3912191628395E-14
(PID.TID 0000.0001) %MON vort_p_sd                    =   8.4079736368494E-05
(PID.TID 0000.0001) %MON surfExpan_theta_mean         =  -3.1831445807986E+00
(PID.TID 0000.0001) %MON surfExpan_salt_mean          =   0.0000000000000E+00
(PID.TID 0000.0001) %MON surfExpan_Heat_mean          =  -3.2103795941989E+02
(PID.TID 0000.0001) %MON En_Budget_T2PE_mean          =   8.7441249681193E+01
(PID.TID 0000.0001) // =======================================================
(PID.TID 0000.0001) // End MONITOR dynamic field statistics
(PID.TID 0000.0001) // =======================================================
 cg2d: Sum(rhs),rhsMax =   6.05893113458933E-11  6.81222614432772E+01
(PID.TID 0000.0001)                    cg2d_init_res =    6.40323446175600E+02
(PID.TID 0000.0001)                       cg2d_iters =    81
(PID.TID 0000.0001)                         cg2d_res =    2.13315770345533E-12
(PID.TID 0000.0001) // =======================================================
(PID.TID 0000.0001) // Begin MONITOR dynamic field statistics
(PID.TID 0000.0001) // =======================================================
(PID.TID 0000.0001) %MON time_tsnumber                =                     9
(PID.TID 0000.0001) %MON time_secondsf                =   4.0500000000000E+03
(PID.TID 0000.0001) %MON dynstat_eta_max              =   8.7208381176336E+02
(PID.TID 0000.0001) %MON dynstat_eta_min              =  -5.7313306461665E+02
(PID.TID 0000.0001) %MON dynstat_eta_mean             =   2.5610679097537E-13
(PID.TID 0000.0001) %MON dynstat_eta_sd               =   4.6657634206327E+02
(PID.TID 0000.0001) %MON dynstat_eta_del2             =   3.0694189525647E+00
(PID.TID 0000.0001) %MON dynstat_uvel_max             =   3.0181802907028E+00
(PID.TID 0000.0001) %MON dynstat_uvel_min             =  -3.4264402751000E-02
(PID.TID 0000.0001) %MON dynstat_uvel_mean            =   8.2116478263013E-01
(PID.TID 0000.0001) %MON dynstat_uvel_sd              =   8.0953405286144E-01
(PID.TID 0000.0001) %MON dynstat_uvel_del2            =   8.4244938743035E-03
(PID.TID 0000.0001) %MON dynstat_vvel_max             =   1.6028294008837E+01
(PID.TID 0000.0001) %MON dynstat_vvel_min             =  -1.6027954217466E+01
(PID.TID 0000.0001) %MON dynstat_vvel_mean            =   1.8345638990445E-06
(PID.TID 0000.0001) %MON dynstat_vvel_sd              =   6.2063144112975E+00
(PID.TID 0000.0001) %MON dynstat_vvel_del2            =   3.5511121172695E-02
(PID.TID 0000.0001) %MON dynstat_wvel_max             =   3.6963196583054E-01
(PID.TID 0000.0001) %MON dynstat_wvel_min             =  -2.4734450660622E-01
(PID.TID 0000.0001) %MON dynstat_wvel_mean            =  -6.1406446026768E-17
(PID.TID 0000.0001) %MON dynstat_wvel_sd              =   1.6013209852966E-01
(PID.TID 0000.0001) %MON dynstat_wvel_del2            =   2.3627466734710E-03
(PID.TID 0000.0001) %MON dynstat_theta_max            =   4.2107946151938E+02
(PID.TID 0000.0001) %MON dynstat_theta_min            =   2.5503605706758E+02
(PID.TID 0000.0001) %MON dynstat_theta_mean           =   3.1875229208694E+02
(PID.TID 0000.0001) %MON dynstat_theta_sd             =   4.5597050927288E+01
(PID.TID 0000.0001) %MON dynstat_theta_del2           =   4.7512648891086E-02
(PID.TID 0000.0001) %MON dynstat_salt_max             =   0.0000000000000E+00
(PID.TID 0000.0001) %MON dynstat_salt_min             =   0.0000000000000E+00
(PID.TID 0000.0001) %MON dynstat_salt_mean            =   0.0000000000000E+00
(PID.TID 0000.0001) %MON dynstat_salt_sd              =   0.0000000000000E+00
(PID.TID 0000.0001) %MON dynstat_salt_del2            =   0.0000000000000E+00
(PID.TID 0000.0001) %MON advcfl_uvel_max              =   8.6414957366597E-03
(PID.TID 0000.0001) %MON advcfl_vvel_max              =   2.3066966392495E-02
(PID.TID 0000.0001) %MON advcfl_wvel_max              =   3.3266876924749E-02
(PID.TID 0000.0001) %MON advcfl_W_hf_max              =   3.3141974398339E-02
(PID.TID 0000.0001) %MON pe_b_mean                    =   1.0884674148656E+00
(PID.TID 0000.0001) %MON ke_max                       =   1.3077467365668E+02
(PID.TID 0000.0001) %MON ke_mean                      =   1.9920197179523E+01
(PID.TID 0000.0001) %MON ke_vol                       =   5.0990436378185E+19
(PID.TID 0000.0001) %MON vort_r_min                   =  -1.8572028465503E-06
(PID.TID 0000.0001) %MON vort_r_max                   =   1.8606556805572E-06
(PID.TID 0000.0001) %MON vort_a_mean                  =   1.3342867352868E-14
(PID.TID 0000.0001) %MON vort_a_sd                    =   8.4111952654712E-05
(PID.TID 0000.0001) %MON vort_p_mean                  =   1.3342867352868E-14
(PID.TID 0000.0001) %MON vort_p_sd                    =   8.4111952654712E-05
(PID.TID 0000.0001) %MON surfExpan_theta_mean         =  -3.5231512247379E+00
(PID.TID 0000.0001) %MON surfExpan_salt_mean          =   0.0000000000000E+00
(PID.TID 0000.0001) %MON surfExpan_Heat_mean          =  -3.5532953380138E+02
(PID.TID 0000.0001) %MON En_Budget_T2PE_mean          =   9.6781101887471E+01
(PID.TID 0000.0001) // =======================================================
(PID.TID 0000.0001) // End MONITOR dynamic field statistics
(PID.TID 0000.0001) // =======================================================
 cg2d: Sum(rhs),rhsMax =  -3.53760576388140E-10  8.25679608066493E+01
(PID.TID 0000.0001)                    cg2d_init_res =    6.97676712218362E+02
(PID.TID 0000.0001)                       cg2d_iters =    81
(PID.TID 0000.0001)                         cg2d_res =    1.87189515272133E-12
(PID.TID 0000.0001) // =======================================================
(PID.TID 0000.0001) // Begin MONITOR dynamic field statistics
(PID.TID 0000.0001) // =======================================================
(PID.TID 0000.0001) %MON time_tsnumber                =                    10
(PID.TID 0000.0001) %MON time_secondsf                =   4.5000000000000E+03
(PID.TID 0000.0001) %MON dynstat_eta_max              =   1.0524057048484E+03
(PID.TID 0000.0001) %MON dynstat_eta_min              =  -6.9471876441886E+02
(PID.TID 0000.0001) %MON dynstat_eta_mean             =  -2.3076732764178E-13
(PID.TID 0000.0001) %MON dynstat_eta_sd               =   5.6402532876967E+02
(PID.TID 0000.0001) %MON dynstat_eta_del2             =   3.3163064641867E+00
(PID.TID 0000.0001) %MON dynstat_uvel_max             =   3.6833951788091E+00
(PID.TID 0000.0001) %MON dynstat_uvel_min             =  -5.0766572312431E-02
(PID.TID 0000.0001) %MON dynstat_uvel_mean            =   1.0054944409358E+00
(PID.TID 0000.0001) %MON dynstat_uvel_sd              =   9.9453807199013E-01
(PID.TID 0000.0001) %MON dynstat_uvel_del2            =   1.0034398109641E-02
(PID.TID 0000.0001) %MON dynstat_vvel_max             =   1.7500768746230E+01
(PID.TID 0000.0001) %MON dynstat_vvel_min             =  -1.7500980254979E+01
(PID.TID 0000.0001) %MON dynstat_vvel_mean            =   1.9730287086435E-06
(PID.TID 0000.0001) %MON dynstat_vvel_sd              =   6.7969271525394E+00
(PID.TID 0000.0001) %MON dynstat_vvel_del2            =   3.6297729436573E-02
(PID.TID 0000.0001) %MON dynstat_wvel_max             =   4.0076319142361E-01
(PID.TID 0000.0001) %MON dynstat_wvel_min             =  -2.7096912467214E-01
(PID.TID 0000.0001) %MON dynstat_wvel_mean            =  -5.7671172705818E-17
(PID.TID 0000.0001) %MON dynstat_wvel_sd              =   1.7474142594376E-01
(PID.TID 0000.0001) %MON dynstat_wvel_del2            =   2.2395785597089E-03
(PID.TID 0000.0001) %MON dynstat_theta_max            =   4.2135494976189E+02
(PID.TID 0000.0001) %MON dynstat_theta_min            =   2.5503610699330E+02
(PID.TID 0000.0001) %MON dynstat_theta_mean           =   3.1876905558596E+02
(PID.TID 0000.0001) %MON dynstat_theta_sd             =   4.5586828633546E+01
(PID.TID 0000.0001) %MON dynstat_theta_del2           =   4.8107300151551E-02
(PID.TID 0000.0001) %MON dynstat_salt_max             =   0.0000000000000E+00
(PID.TID 0000.0001) %MON dynstat_salt_min             =   0.0000000000000E+00
(PID.TID 0000.0001) %MON dynstat_salt_mean            =   0.0000000000000E+00
(PID.TID 0000.0001) %MON dynstat_salt_sd              =   0.0000000000000E+00
(PID.TID 0000.0001) %MON dynstat_salt_del2            =   0.0000000000000E+00
(PID.TID 0000.0001) %MON advcfl_uvel_max              =   1.0585512653210E-02
(PID.TID 0000.0001) %MON advcfl_vvel_max              =   2.5186368752329E-02
(PID.TID 0000.0001) %MON advcfl_wvel_max              =   3.6068687228125E-02
(PID.TID 0000.0001) %MON advcfl_W_hf_max              =   3.5966577813051E-02
(PID.TID 0000.0001) %MON pe_b_mean                    =   1.5906228574686E+00
(PID.TID 0000.0001) %MON ke_max                       =   1.5742380367689E+02
(PID.TID 0000.0001) %MON ke_mean                      =   2.4094633861941E+01
(PID.TID 0000.0001) %MON ke_vol                       =   5.0990436378185E+19
(PID.TID 0000.0001) %MON vort_r_min                   =  -2.2742417387836E-06
(PID.TID 0000.0001) %MON vort_r_max                   =   2.2778045425376E-06
(PID.TID 0000.0001) %MON vort_a_mean                  =   9.9681244444253E-15
(PID.TID 0000.0001) %MON vort_a_sd                    =   8.4147435288428E-05
(PID.TID 0000.0001) %MON vort_p_mean                  =   9.9681244444253E-15
(PID.TID 0000.0001) %MON vort_p_sd                    =   8.4147435288428E-05
(PID.TID 0000.0001) %MON surfExpan_theta_mean         =  -3.8443476295520E+00
(PID.TID 0000.0001) %MON surfExpan_salt_mean          =   0.0000000000000E+00
(PID.TID 0000.0001) %MON surfExpan_Heat_mean          =  -3.8772399021298E+02
(PID.TID 0000.0001) %MON En_Budget_T2PE_mean          =   1.0562064903184E+02
(PID.TID 0000.0001) // =======================================================
(PID.TID 0000.0001) // End MONITOR dynamic field statistics
(PID.TID 0000.0001) // =======================================================
(PID.TID 0000.0001) %CHECKPOINT        10 ckptA
(PID.TID 0000.0001)   Seconds in section "ALL                    [THE_MODEL_MAIN]":
(PID.TID 0000.0001)           User time:  3.08999991
(PID.TID 0000.0001)         System time:  0.119999997
(PID.TID 0000.0001)     Wall clock time:  3.24955499
(PID.TID 0000.0001)          No. starts: 1
(PID.TID 0000.0001)           No. stops: 1
(PID.TID 0000.0001)   Seconds in section "INITIALISE_FIXED       [THE_MODEL_MAIN]":
(PID.TID 0000.0001)           User time:  0.119999997
(PID.TID 0000.0001)         System time:  0.0299999993
(PID.TID 0000.0001)     Wall clock time:  0.167909026
(PID.TID 0000.0001)          No. starts: 1
(PID.TID 0000.0001)           No. stops: 1
(PID.TID 0000.0001)   Seconds in section "THE_MAIN_LOOP          [THE_MODEL_MAIN]":
(PID.TID 0000.0001)           User time:  2.90999997
(PID.TID 0000.0001)         System time:  0.0600000042
(PID.TID 0000.0001)     Wall clock time:  2.99321508
(PID.TID 0000.0001)          No. starts: 1
(PID.TID 0000.0001)           No. stops: 1
(PID.TID 0000.0001)   Seconds in section "INITIALISE_VARIA    [THE_MAIN_LOOP]":
(PID.TID 0000.0001)           User time:  0.199999996
(PID.TID 0000.0001)         System time:  0.00999999978
(PID.TID 0000.0001)     Wall clock time:  0.211960077
(PID.TID 0000.0001)          No. starts: 1
(PID.TID 0000.0001)           No. stops: 1
(PID.TID 0000.0001)   Seconds in section "WRITE_STATE         [THE_MAIN_LOOP]":
(PID.TID 0000.0001)           User time:  0.0300000012
(PID.TID 0000.0001)         System time:  0.0100000016
(PID.TID 0000.0001)     Wall clock time:  0.0367079973
(PID.TID 0000.0001)          No. starts: 1
(PID.TID 0000.0001)           No. stops: 1
(PID.TID 0000.0001)   Seconds in section "MONITOR             [THE_MAIN_LOOP]":
(PID.TID 0000.0001)           User time:  0.0500000119
(PID.TID 0000.0001)         System time:  0.
(PID.TID 0000.0001)     Wall clock time:  0.0515040159
(PID.TID 0000.0001)          No. starts: 1
(PID.TID 0000.0001)           No. stops: 1
(PID.TID 0000.0001)   Seconds in section "MAIN LOOP           [THE_MAIN_LOOP]":
(PID.TID 0000.0001)           User time:  2.62999997
(PID.TID 0000.0001)         System time:  0.0400000028
(PID.TID 0000.0001)     Wall clock time:  2.69293702
(PID.TID 0000.0001)          No. starts: 1
(PID.TID 0000.0001)           No. stops: 1
(PID.TID 0000.0001)   Seconds in section "FORWARD_STEP        [THE_MAIN_LOOP]":
(PID.TID 0000.0001)           User time:  2.62999997
(PID.TID 0000.0001)         System time:  0.0400000028
(PID.TID 0000.0001)     Wall clock time:  2.69271517
(PID.TID 0000.0001)          No. starts: 10
(PID.TID 0000.0001)           No. stops: 10
(PID.TID 0000.0001)   Seconds in section "UPDATE_ETAH        [FORWARD_STEP]":
(PID.TID 0000.0001)           User time:  0.
(PID.TID 0000.0001)         System time:  0.
(PID.TID 0000.0001)     Wall clock time:  0.000629067421
(PID.TID 0000.0001)          No. starts: 10
(PID.TID 0000.0001)           No. stops: 10
(PID.TID 0000.0001)   Seconds in section "EXTERNAL_FIELDS_LOAD[FORWARD_STEP]":
(PID.TID 0000.0001)           User time:  0.
(PID.TID 0000.0001)         System time:  0.
(PID.TID 0000.0001)     Wall clock time:  0.000198960304
(PID.TID 0000.0001)          No. starts: 10
(PID.TID 0000.0001)           No. stops: 10
(PID.TID 0000.0001)   Seconds in section "THERMODYNAMICS      [FORWARD_STEP]":
(PID.TID 0000.0001)           User time:  0.649999857
(PID.TID 0000.0001)         System time:  0.00999999791
(PID.TID 0000.0001)     Wall clock time:  0.652067065
(PID.TID 0000.0001)          No. starts: 10
(PID.TID 0000.0001)           No. stops: 10
(PID.TID 0000.0001)   Seconds in section "BLOCKING_EXCHANGES  [FORWARD_STEP]":
(PID.TID 0000.0001)           User time:  0.00999999046
(PID.TID 0000.0001)         System time:  0.
(PID.TID 0000.0001)     Wall clock time:  0.0049623251
(PID.TID 0000.0001)          No. starts: 20
(PID.TID 0000.0001)           No. stops: 20
(PID.TID 0000.0001)   Seconds in section "SHAP_FILT           [FORWARD_STEP]":
(PID.TID 0000.0001)           User time:  0.109999895
(PID.TID 0000.0001)         System time:  0.
(PID.TID 0000.0001)     Wall clock time:  0.11107409
(PID.TID 0000.0001)          No. starts: 10
(PID.TID 0000.0001)           No. stops: 10
(PID.TID 0000.0001)   Seconds in section "ZONAL_FILT_APPLY    [FORWARD_STEP]":
(PID.TID 0000.0001)           User time:  0.0399999619
(PID.TID 0000.0001)         System time:  0.
(PID.TID 0000.0001)     Wall clock time:  0.0499050617
(PID.TID 0000.0001)          No. starts: 10
(PID.TID 0000.0001)           No. stops: 10
(PID.TID 0000.0001)   Seconds in section "DYNAMICS            [FORWARD_STEP]":
(PID.TID 0000.0001)           User time:  0.45999971
(PID.TID 0000.0001)         System time:  0.0100000016
(PID.TID 0000.0001)     Wall clock time:  0.453630209
(PID.TID 0000.0001)          No. starts: 10
(PID.TID 0000.0001)           No. stops: 10
(PID.TID 0000.0001)   Seconds in section "SOLVE_FOR_PRESSURE  [FORWARD_STEP]":
(PID.TID 0000.0001)           User time:  0.600000858
(PID.TID 0000.0001)         System time:  0.
(PID.TID 0000.0001)     Wall clock time:  0.608688116
(PID.TID 0000.0001)          No. starts: 10
(PID.TID 0000.0001)           No. stops: 10
(PID.TID 0000.0001)   Seconds in section "THE_CORRECTION_STEP [FORWARD_STEP]":
(PID.TID 0000.0001)           User time:  0.209999919
(PID.TID 0000.0001)         System time:  0.
(PID.TID 0000.0001)     Wall clock time:  0.221085906
(PID.TID 0000.0001)          No. starts: 10
(PID.TID 0000.0001)           No. stops: 10
(PID.TID 0000.0001)   Seconds in section "MONITOR             [FORWARD_STEP]":
(PID.TID 0000.0001)           User time:  0.529999793
(PID.TID 0000.0001)         System time:  0.
(PID.TID 0000.0001)     Wall clock time:  0.523993015
(PID.TID 0000.0001)          No. starts: 10
(PID.TID 0000.0001)           No. stops: 10
(PID.TID 0000.0001)   Seconds in section "DO_THE_MODEL_IO     [FORWARD_STEP]":
(PID.TID 0000.0001)           User time:  0.0199999809
(PID.TID 0000.0001)         System time:  0.0200000033
(PID.TID 0000.0001)     Wall clock time:  0.0633476973
(PID.TID 0000.0001)          No. starts: 10
(PID.TID 0000.0001)           No. stops: 10
(PID.TID 0000.0001)   Seconds in section "WRITE_CHECKPOINT    [FORWARD_STEP]":
(PID.TID 0000.0001)           User time:  0.
(PID.TID 0000.0001)         System time:  0.
(PID.TID 0000.0001)     Wall clock time:  0.000202059746
(PID.TID 0000.0001)          No. starts: 10
(PID.TID 0000.0001)           No. stops: 10
(PID.TID 0000.0001)   Seconds in section "WRITE_CHECKPOINT       [THE_MODEL_MAIN]":
(PID.TID 0000.0001)           User time:  0.0599999428
(PID.TID 0000.0001)         System time:  0.0299999937
(PID.TID 0000.0001)     Wall clock time:  0.0883330107
(PID.TID 0000.0001)          No. starts: 1
(PID.TID 0000.0001)           No. stops: 1
(PID.TID 0000.0001) // ======================================================
(PID.TID 0000.0001) // Tile <-> Tile communication statistics
(PID.TID 0000.0001) // ======================================================
(PID.TID 0000.0001) // o Tile number: 000001
(PID.TID 0000.0001) //         No. X exchanges =              0
(PID.TID 0000.0001) //            Max. X spins =              0
(PID.TID 0000.0001) //            Min. X spins =     1000000000
(PID.TID 0000.0001) //          Total. X spins =              0
(PID.TID 0000.0001) //            Avg. X spins =       0.00E+00
(PID.TID 0000.0001) //         No. Y exchanges =              0
(PID.TID 0000.0001) //            Max. Y spins =              0
(PID.TID 0000.0001) //            Min. Y spins =     1000000000
(PID.TID 0000.0001) //          Total. Y spins =              0
(PID.TID 0000.0001) //            Avg. Y spins =       0.00E+00
(PID.TID 0000.0001) // o Thread number: 000001
(PID.TID 0000.0001) //            No. barriers =          14017
(PID.TID 0000.0001) //      Max. barrier spins =              1
(PID.TID 0000.0001) //      Min. barrier spins =              1
(PID.TID 0000.0001) //     Total barrier spins =          14017
(PID.TID 0000.0001) //      Avg. barrier spins =       1.00E+00
