(PID.TID 0000.0001) 
(PID.TID 0000.0001) // ======================================================
(PID.TID 0000.0001) //                      MITgcm UV
(PID.TID 0000.0001) //                      =========
(PID.TID 0000.0001) // ======================================================
(PID.TID 0000.0001) // execution environment starting up...
(PID.TID 0000.0001) // Run starting Wed Apr  1 14:19:48 1998
(PID.TID 0000.0001) // on melville.lcs.mit.edu
(PID.TID 0000.0001) // account cnh
(PID.TID 0000.0001) // MITgcm UV Release: $Name:  $
(PID.TID 0000.0001) 
(PID.TID 0000.0001) // =======================================================
(PID.TID 0000.0001) // Execution Environment parameter file "eedata"
(PID.TID 0000.0001) // =======================================================
(PID.TID 0000.0001) ># Example "eedata" file
(PID.TID 0000.0001) ># Lines beginning "#" are comments
(PID.TID 0000.0001) ># nTx - No. threads per process in X
(PID.TID 0000.0001) ># nTy - No. threads per process in Y
(PID.TID 0000.0001) > &EEPARMS
(PID.TID 0000.0001) > nTx=1,nTy=1
(PID.TID 0000.0001) > &
(PID.TID 0000.0001) ># Note: Some systems use & as the
(PID.TID 0000.0001) ># namelist terminator. Other systems
(PID.TID 0000.0001) ># use a / character (as shown here).
(PID.TID 0000.0001) 
(PID.TID 0000.0001) // =======================================================
(PID.TID 0000.0001) // Computational Grid Specification ( see files "SIZE.h" )
(PID.TID 0000.0001) //                                  ( and "eedata"       )
(PID.TID 0000.0001) // =======================================================
(PID.TID 0000.0001)      nPx =    1 ; /* No. processes in X */
(PID.TID 0000.0001)      nPy =    1 ; /* No. processes in Y */
(PID.TID 0000.0001)      nSx =    1 ; /* No. tiles in X per process */
(PID.TID 0000.0001)      nSy =    1 ; /* No. tiles in Y per process */
(PID.TID 0000.0001)      sNx =   20 ; /* Tile size in X */
(PID.TID 0000.0001)      sNy =   16 ; /* Tile size in Y */
(PID.TID 0000.0001)      OLx =    4 ; /* Tile overlap distance in X */
(PID.TID 0000.0001)      OLy =    4 ; /* Tile overlap distance in Y */
(PID.TID 0000.0001)      nTx =    1 ; /* No. threads in X per process */
(PID.TID 0000.0001)      nTy =    1 ; /* No. threads in Y per process */
(PID.TID 0000.0001)       Nr =   23 ; /* No. levels in the vertical   */
(PID.TID 0000.0001)       nX =   20 ; /* Total domain size in X ( = nPx*nSx*sNx ) */
(PID.TID 0000.0001)       nY =   16 ; /* Total domain size in Y ( = nPy*nSy*sNy ) */
(PID.TID 0000.0001)   nTiles =    1 ; /* Total no. tiles per process ( = nSx*nSy ) */
(PID.TID 0000.0001)   nProcs =    1 ; /* Total no. processes ( = nPx*nPy ) */
(PID.TID 0000.0001) nThreads =    1 ; /* Total no. threads per process ( = nTx*nTy ) */
(PID.TID 0000.0001) usingMPI =    F ; /* Flag used to control whether MPI is in use */
(PID.TID 0000.0001)                   /*  note: To execute a program with MPI calls */
(PID.TID 0000.0001)                   /*  it must be launched appropriately e.g     */
(PID.TID 0000.0001)                   /*  "mpirun -np 64 ......"                    */
(PID.TID 0000.0001) 
(PID.TID 0000.0001) // ======================================================
(PID.TID 0000.0001) // Mapping of tiles to threads
(PID.TID 0000.0001) // ======================================================
(PID.TID 0000.0001) // -o- Thread   1, tiles (   1:   1,   1:   1)
(PID.TID 0000.0001) 
(PID.TID 0000.0001) // ======================================================
(PID.TID 0000.0001) // Tile <-> Tile connectvity table
(PID.TID 0000.0001) // ======================================================
(PID.TID 0000.0001) // Tile number: 000001 (process no. = 000001)
(PID.TID 0000.0001) //        WEST: Tile = 000001, Process = 000001, Comm = put
(PID.TID 0000.0001) //                bi = 000001, bj = 000001
(PID.TID 0000.0001) //        EAST: Tile = 000001, Process = 000001, Comm = put
(PID.TID 0000.0001) //                bi = 000001, bj = 000001
(PID.TID 0000.0001) //       SOUTH: Tile = 000001, Process = 000001, Comm = put
(PID.TID 0000.0001) //                bi = 000001, bj = 000001
(PID.TID 0000.0001) //       NORTH: Tile = 000001, Process = 000001, Comm = put
(PID.TID 0000.0001) //                bi = 000001, bj = 000001
(PID.TID 0000.0001) 
(PID.TID 0000.0001) // =======================================================
(PID.TID 0000.0001) // Model parameter file "data"
(PID.TID 0000.0001) // =======================================================
(PID.TID 0000.0001) >#
(PID.TID 0000.0001) ># ******************************
(PID.TID 0000.0001) ># Model parameters
(PID.TID 0000.0001) ># Continuous equation parameters
(PID.TID 0000.0001) ># ******************************
(PID.TID 0000.0001) > &PARM01
(PID.TID 0000.0001) > tRef= 24.0 , 23.0 , 22.0 , 21.0 , 20.0 ,
(PID.TID 0000.0001) >       19.0 , 18.0 , 17.0 , 16.0 , 15.0 ,
(PID.TID 0000.0001) >       14.0 , 13.0 , 12.0 , 11.0 , 10.0 ,
(PID.TID 0000.0001) >        9.0 ,  8.0 ,  7.0 ,  6.0,   5.0 ,
(PID.TID 0000.0001) >        4.0 ,  3.0 ,  2.0 ,
(PID.TID 0000.0001) > sRef= 34.65, 34.75, 34.82, 34.87, 34.90,
(PID.TID 0000.0001) >       34.90, 34.86, 34.78, 34.69, 34.60,
(PID.TID 0000.0001) >       34.58, 34.62, 34.68, 34.72, 34.73,
(PID.TID 0000.0001) >       34.74, 34.73, 34.73, 34.72, 34.72,
(PID.TID 0000.0001) >       34.71, 34.70, 34.69,
(PID.TID 0000.0001) > no_slip_sides=.FALSE.,
(PID.TID 0000.0001) > no_slip_bottom=.TRUE.,
(PID.TID 0000.0001) > viscAz=1.E-3,
(PID.TID 0000.0001) > viscAh=5.E4,
(PID.TID 0000.0001) > diffKhT=1.E3,
(PID.TID 0000.0001) > diffKzT=1.E-5,
(PID.TID 0000.0001) > diffKhS=1.E3,
(PID.TID 0000.0001) > diffKzS=1.E-5,
(PID.TID 0000.0001) > beta=1.E-11,
(PID.TID 0000.0001) > tAlpha=2.E-4,
(PID.TID 0000.0001) > sBeta =7.4E-4,
(PID.TID 0000.0001) > gravity=9.81,
(PID.TID 0000.0001) > gBaro=9.81,
(PID.TID 0000.0001) > rigidLid=.FALSE.,
(PID.TID 0000.0001) > implicitFreeSurface=.TRUE.,
(PID.TID 0000.0001) > eosType='POLY3',
(PID.TID 0000.0001) > readBinaryPrec=64,
(PID.TID 0000.0001) > writeBinaryPrec=64,
(PID.TID 0000.0001) > saltStepping=.TRUE.,
(PID.TID 0000.0001) > tempStepping=.TRUE.,
(PID.TID 0000.0001) > momStepping=.TRUE.,
(PID.TID 0000.0001) > implicitDiffusion=.TRUE.,
(PID.TID 0000.0001) > implicitViscosity=.TRUE.,
(PID.TID 0000.0001) > useCDscheme=.TRUE.,
(PID.TID 0000.0001) > &
(PID.TID 0000.0001) >
(PID.TID 0000.0001) ># **************************
(PID.TID 0000.0001) ># Elliptic solver parameters
(PID.TID 0000.0001) ># **************************
(PID.TID 0000.0001) > &PARM02
(PID.TID 0000.0001) > cg2dMaxIters=1000,
(PID.TID 0000.0001) > cg2dTargetResidual=1.E-13,
(PID.TID 0000.0001) > &
(PID.TID 0000.0001) >
(PID.TID 0000.0001) ># ************************
(PID.TID 0000.0001) ># Time stepping parameters
(PID.TID 0000.0001) ># ************************
(PID.TID 0000.0001) > &PARM03
(PID.TID 0000.0001) > tauCD=172800.,
(PID.TID 0000.0001) > startTime=0.0,
(PID.TID 0000.0001) > nTimeSteps=4,
(PID.TID 0000.0001) > deltaTmom=3600.0,
(PID.TID 0000.0001) > deltaTtracer=3600.0,
(PID.TID 0000.0001) > deltaTClock =3600.0,
(PID.TID 0000.0001) > cAdjFreq=0.,
(PID.TID 0000.0001) > abEps=0.1,
(PID.TID 0000.0001) > pChkptFreq=15552000.0,
(PID.TID 0000.0001) > chkptFreq=15552000.0,
(PID.TID 0000.0001) > dumpFreq =86400.0,
(PID.TID 0000.0001) > tauThetaClimRelax=0.,
(PID.TID 0000.0001) > tauSaltClimRelax=0.,
(PID.TID 0000.0001) > &
(PID.TID 0000.0001) >
(PID.TID 0000.0001) ># *******************
(PID.TID 0000.0001) ># Gridding parameters
(PID.TID 0000.0001) ># *******************
(PID.TID 0000.0001) > &PARM04
(PID.TID 0000.0001) > usingCartesianGrid=.FALSE.,
(PID.TID 0000.0001) > usingSphericalPolarGrid=.TRUE.,
(PID.TID 0000.0001) > delX=20*2.E0,
(PID.TID 0000.0001) > delY=16*2.E0,
(PID.TID 0000.0001) > delZ=10.,10.,15.,20.,20.,25.,35.,50.,75.,100.,150.,200.,275.,350.,415.,450.,500.,500.,500.,500.,500.,500.,500.,
(PID.TID 0000.0001) > phimin=10.,
(PID.TID 0000.0001) > thetamin=-42.,
(PID.TID 0000.0001) > &
(PID.TID 0000.0001) ># **********
(PID.TID 0000.0001) ># Data Files
(PID.TID 0000.0001) ># **********
(PID.TID 0000.0001) > &PARM05
(PID.TID 0000.0001) > bathyFile='Bathy_subAtl',
(PID.TID 0000.0001) > hydrogThetaFile='PH_LevCli.ptmp__020_016_23',
(PID.TID 0000.0001) > hydrogSaltFile='PH_LevCli.salt__020_016_23',
(PID.TID 0000.0001) > &
(PID.TID 0000.0001) >
(PID.TID 0000.0001) ># Open boundaries
(PID.TID 0000.0001) > &PARM06
(PID.TID 0000.0001) > &
(PID.TID 0000.0001) >
(PID.TID 0000.0001) ># KPP Mixing scheme
(PID.TID 0000.0001) > &PARM07
(PID.TID 0000.0001) > &
(PID.TID 0000.0001) 
(PID.TID 0000.0001) S/R INI_PARMS ; read PARM01 : OK
(PID.TID 0000.0001) S/R INI_PARMS ; read PARM02 : OK
(PID.TID 0000.0001) S/R INI_PARMS ; read PARM03 : OK
(PID.TID 0000.0001) S/R INI_PARMS ; read PARM04 : OK
(PID.TID 0000.0001) S/R INI_PARMS ; read PARM05 : OK
(PID.TID 0000.0001) %MON XC_max                       =  -3.0000000000000E+00
(PID.TID 0000.0001) %MON XC_min                       =  -4.1000000000000E+01
(PID.TID 0000.0001) %MON XC_mean                      =  -2.2000000000000E+01
(PID.TID 0000.0001) %MON XC_sd                        =   1.1532562594671E+01
(PID.TID 0000.0001) %MON XG_max                       =  -4.0000000000000E+00
(PID.TID 0000.0001) %MON XG_min                       =  -4.2000000000000E+01
(PID.TID 0000.0001) %MON XG_mean                      =  -2.3000000000000E+01
(PID.TID 0000.0001) %MON XG_sd                        =   1.1532562594671E+01
(PID.TID 0000.0001) %MON DXC_max                      =   2.1826966005878E+05
(PID.TID 0000.0001) %MON DXC_min                      =   1.6781340848749E+05
(PID.TID 0000.0001) %MON DXC_mean                     =   1.9727395728441E+05
(PID.TID 0000.0001) %MON DXC_sd                       =   1.5731168072696E+04
(PID.TID 0000.0001) %MON DXF_max                      =   2.1826966005878E+05
(PID.TID 0000.0001) %MON DXF_min                      =   1.6781340848749E+05
(PID.TID 0000.0001) %MON DXF_mean                     =   1.9727395728441E+05
(PID.TID 0000.0001) %MON DXF_sd                       =   1.5731168072696E+04
(PID.TID 0000.0001) %MON DXG_max                      =   2.1897687543479E+05
(PID.TID 0000.0001) %MON DXG_min                      =   1.7033377132268E+05
(PID.TID 0000.0001) %MON DXG_mean                     =   1.9892312861058E+05
(PID.TID 0000.0001) %MON DXG_sd                       =   1.5180938630473E+04
(PID.TID 0000.0001) %MON DXV_max                      =   2.1897687543479E+05
(PID.TID 0000.0001) %MON DXV_min                      =   1.7033377132268E+05
(PID.TID 0000.0001) %MON DXV_mean                     =   1.9892312861058E+05
(PID.TID 0000.0001) %MON DXV_sd                       =   1.5180938630473E+04
(PID.TID 0000.0001) %MON YC_max                       =   4.1000000000000E+01
(PID.TID 0000.0001) %MON YC_min                       =   1.1000000000000E+01
(PID.TID 0000.0001) %MON YC_mean                      =   2.6000000000000E+01
(PID.TID 0000.0001) %MON YC_sd                        =   9.2195444572929E+00
(PID.TID 0000.0001) %MON YG_max                       =   4.0000000000000E+01
(PID.TID 0000.0001) %MON YG_min                       =   1.0000000000000E+01
(PID.TID 0000.0001) %MON YG_mean                      =   2.5000000000000E+01
(PID.TID 0000.0001) %MON YG_sd                        =   9.2195444572929E+00
(PID.TID 0000.0001) %MON DYC_max                      =   2.2235494670408E+05
(PID.TID 0000.0001) %MON DYC_min                      =   2.2235494670408E+05
(PID.TID 0000.0001) %MON DYC_mean                     =   2.2235494670408E+05
(PID.TID 0000.0001) %MON DYC_sd                       =   1.1641532182693E-09
(PID.TID 0000.0001) %MON DYF_max                      =   2.2235494670408E+05
(PID.TID 0000.0001) %MON DYF_min                      =   2.2235494670408E+05
(PID.TID 0000.0001) %MON DYF_mean                     =   2.2235494670408E+05
(PID.TID 0000.0001) %MON DYF_sd                       =   1.1641532182693E-09
(PID.TID 0000.0001) %MON DYG_max                      =   2.2235494670408E+05
(PID.TID 0000.0001) %MON DYG_min                      =   2.2235494670408E+05
(PID.TID 0000.0001) %MON DYG_mean                     =   2.2235494670408E+05
(PID.TID 0000.0001) %MON DYG_sd                       =   1.1641532182693E-09
(PID.TID 0000.0001) %MON DYU_max                      =   2.2235494670408E+05
(PID.TID 0000.0001) %MON DYU_min                      =   2.2235494670408E+05
(PID.TID 0000.0001) %MON DYU_mean                     =   2.2235494670408E+05
(PID.TID 0000.0001) %MON DYU_sd                       =   1.1641532182693E-09
(PID.TID 0000.0001) %MON RA_max                       =   4.8530874650285E+10
(PID.TID 0000.0001) %MON RA_min                       =   3.7312247106402E+10
(PID.TID 0000.0001) %MON RA_mean                      =   4.3862613292919E+10
(PID.TID 0000.0001) %MON RA_sd                        =   3.4977254540690E+09
(PID.TID 0000.0001) %MON RAW_max                      =   4.8530874650285E+10
(PID.TID 0000.0001) %MON RAW_min                      =   3.7312247106402E+10
(PID.TID 0000.0001) %MON RAW_mean                     =   4.3862613292919E+10
(PID.TID 0000.0001) %MON RAW_sd                       =   3.4977254540690E+09
(PID.TID 0000.0001) %MON RAS_max                      =   4.8688119503989E+10
(PID.TID 0000.0001) %MON RAS_min                      =   3.7872633798691E+10
(PID.TID 0000.0001) %MON RAS_mean                     =   4.4229296078267E+10
(PID.TID 0000.0001) %MON RAS_sd                       =   3.3753854271397E+09
(PID.TID 0000.0001) %MON RAZ_max                      =   4.8688119503989E+10
(PID.TID 0000.0001) %MON RAZ_min                      =   3.7872633798691E+10
(PID.TID 0000.0001) %MON RAZ_mean                     =   4.4229296078267E+10
(PID.TID 0000.0001) %MON RAZ_sd                       =   3.3753854271397E+09
(PID.TID 0000.0001)  MDSREADFIELD: opening global file: Bathy_subAtl.data
(PID.TID 0000.0001) // =======================================================
(PID.TID 0000.0001) // Field Model R_low (ini_masks_etc) at iteration          1
(PID.TID 0000.0001) // CMIN =         -5.200000000000000E+03
(PID.TID 0000.0001) // CMAX =         -3.600000000000000E+02
(PID.TID 0000.0001) // CINT =          1.792592592592593E+02
(PID.TID 0000.0001) // SYMBOLS (CMIN->CMAX): -abcdefghijklmnopqrstuvwxyz+
(PID.TID 0000.0001) //                  0.0: .
(PID.TID 0000.0001) // RANGE I (Lo:Hi:Step):(  -3:  24:   1)
(PID.TID 0000.0001) // RANGE J (Lo:Hi:Step):(  20:  -3:  -1)
(PID.TID 0000.0001) // RANGE K (Lo:Hi:Step):(   1:   1:   1)
(PID.TID 0000.0001) // =======================================================
(PID.TID 0000.0001) K =   1
(PID.TID 0000.0001) //                I=6       I=16
(PID.TID 0000.0001) // |--J--|***012345|789012345|78901234
(PID.TID 0000.0001) //     20 .....cc-----cfkhkz.......cc-
(PID.TID 0000.0001) //     19 .....c-------cccfy.......c--
(PID.TID 0000.0001) //     18 .....hcc------ccfx.......hcc
(PID.TID 0000.0001) //     17 ............................
(PID.TID 0000.0001) //     16 ............................
(PID.TID 0000.0001) //     15 hv+..fhknsqknnff-ckhhv+..fhk
(PID.TID 0000.0001) //     14 fhx..hknnnnkhcc-chhhfhx..hkn
(PID.TID 0000.0001) //     13 fz...knnkhknf--chkfffz...knn
(PID.TID 0000.0001) //     12 q....nkhfffhc--cffhnq....nkh
(PID.TID 0000.0001) //     11 +....khfccccc-ccfkkv+....khf
(PID.TID 0000.0001) //     10 .....hcc---cc-cfhks......hcc
(PID.TID 0000.0001) //      9 .....fc-------cfkq.......fc-
(PID.TID 0000.0001) //      8 .....c-------ccfkx.......c--
(PID.TID 0000.0001) //      7 .....c---cfcccfhk+.......c--
(PID.TID 0000.0001) //      6 .....c---cccffhknv.......c--
(PID.TID 0000.0001) //      5 .....c--ccccfkkkkq.......c--
(PID.TID 0000.0001) //      4 .....cc-----cfkhkz.......cc-
(PID.TID 0000.0001) //      3 .....c-------cccfy.......c--
(PID.TID 0000.0001) //      2 .....hcc------ccfx.......hcc
(PID.TID 0000.0001) //      1 ............................
(PID.TID 0000.0001) //      0 ............................
(PID.TID 0000.0001) //     -1 hv+..fhknsqknnff-ckhhv+..fhk
(PID.TID 0000.0001) //     -2 fhx..hknnnnkhcc-chhhfhx..hkn
(PID.TID 0000.0001) //     -3 fz...knnkhknf--chkfffz...knn
(PID.TID 0000.0001) // =======================================================
(PID.TID 0000.0001) // END OF FIELD                                          =
(PID.TID 0000.0001) // =======================================================
(PID.TID 0000.0001) 
(PID.TID 0000.0001) // =======================================================
(PID.TID 0000.0001) // Field Model Ro_surf (ini_masks_etc) at iteration          1
(PID.TID 0000.0001) // CMIN =          1.000000000000000E+32
(PID.TID 0000.0001) // CMAX =         -1.000000000000000E+32
(PID.TID 0000.0001) // CINT =          0.000000000000000E+00
(PID.TID 0000.0001) // SYMBOLS (CMIN->CMAX): -abcdefghijklmnopqrstuvwxyz+
(PID.TID 0000.0001) //                  0.0: .
(PID.TID 0000.0001) // RANGE I (Lo:Hi:Step):(  -3:  24:   1)
(PID.TID 0000.0001) // RANGE J (Lo:Hi:Step):(  20:  -3:  -1)
(PID.TID 0000.0001) // RANGE K (Lo:Hi:Step):(   1:   1:   1)
(PID.TID 0000.0001) // =======================================================
(PID.TID 0000.0001) K =   1
(PID.TID 0000.0001) //                I=6       I=16
(PID.TID 0000.0001) // |--J--|***012345|789012345|78901234
(PID.TID 0000.0001) //     20 ............................
(PID.TID 0000.0001) //     19 ............................
(PID.TID 0000.0001) //     18 ............................
(PID.TID 0000.0001) //     17 ............................
(PID.TID 0000.0001) //     16 ............................
(PID.TID 0000.0001) //     15 ............................
(PID.TID 0000.0001) //     14 ............................
(PID.TID 0000.0001) //     13 ............................
(PID.TID 0000.0001) //     12 ............................
(PID.TID 0000.0001) //     11 ............................
(PID.TID 0000.0001) //     10 ............................
(PID.TID 0000.0001) //      9 ............................
(PID.TID 0000.0001) //      8 ............................
(PID.TID 0000.0001) //      7 ............................
(PID.TID 0000.0001) //      6 ............................
(PID.TID 0000.0001) //      5 ............................
(PID.TID 0000.0001) //      4 ............................
(PID.TID 0000.0001) //      3 ............................
(PID.TID 0000.0001) //      2 ............................
(PID.TID 0000.0001) //      1 ............................
(PID.TID 0000.0001) //      0 ............................
(PID.TID 0000.0001) //     -1 ............................
(PID.TID 0000.0001) //     -2 ............................
(PID.TID 0000.0001) //     -3 ............................
(PID.TID 0000.0001) // =======================================================
(PID.TID 0000.0001) // END OF FIELD                                          =
(PID.TID 0000.0001) // =======================================================
(PID.TID 0000.0001) 
(PID.TID 0000.0001) // =======================================================
(PID.TID 0000.0001) // Field hFacC at iteration          1
(PID.TID 0000.0001) // CMIN =          1.000000000000000E+00
(PID.TID 0000.0001) // CMAX =          1.000000000000000E+00
(PID.TID 0000.0001) // CINT =          0.000000000000000E+00
(PID.TID 0000.0001) // SYMBOLS (CMIN->CMAX): -abcdefghijklmnopqrstuvwxyz+
(PID.TID 0000.0001) //                  0.0: .
(PID.TID 0000.0001) // RANGE I (Lo:Hi:Step):(  -3:  24:   1)
(PID.TID 0000.0001) // RANGE J (Lo:Hi:Step):(  20:  -3:  -1)
(PID.TID 0000.0001) // RANGE K (Lo:Hi:Step):(   1:   1:   1)
(PID.TID 0000.0001) // =======================================================
(PID.TID 0000.0001) K =   1
(PID.TID 0000.0001) //                I=6       I=16
(PID.TID 0000.0001) // |--J--|***012345|789012345|78901234
(PID.TID 0000.0001) //     20 .....-------------.......---
(PID.TID 0000.0001) //     19 .....-------------.......---
(PID.TID 0000.0001) //     18 .....-------------.......---
(PID.TID 0000.0001) //     17 ............................
(PID.TID 0000.0001) //     16 ............................
(PID.TID 0000.0001) //     15 ---..------------------..---
(PID.TID 0000.0001) //     14 ---..------------------..---
(PID.TID 0000.0001) //     13 --...-----------------...---
(PID.TID 0000.0001) //     12 -....----------------....---
(PID.TID 0000.0001) //     11 -....----------------....---
(PID.TID 0000.0001) //     10 .....--------------......---
(PID.TID 0000.0001) //      9 .....-------------.......---
(PID.TID 0000.0001) //      8 .....-------------.......---
(PID.TID 0000.0001) //      7 .....-------------.......---
(PID.TID 0000.0001) //      6 .....-------------.......---
(PID.TID 0000.0001) //      5 .....-------------.......---
(PID.TID 0000.0001) //      4 .....-------------.......---
(PID.TID 0000.0001) //      3 .....-------------.......---
(PID.TID 0000.0001) //      2 .....-------------.......---
(PID.TID 0000.0001) //      1 ............................
(PID.TID 0000.0001) //      0 ............................
(PID.TID 0000.0001) //     -1 ---..------------------..---
(PID.TID 0000.0001) //     -2 ---..------------------..---
(PID.TID 0000.0001) //     -3 --...-----------------...---
(PID.TID 0000.0001) // =======================================================
(PID.TID 0000.0001) // END OF FIELD                                          =
(PID.TID 0000.0001) // =======================================================
(PID.TID 0000.0001) 
(PID.TID 0000.0001) // =======================================================
(PID.TID 0000.0001) // Field hFacW at iteration          1
(PID.TID 0000.0001) // CMIN =          1.000000000000000E+00
(PID.TID 0000.0001) // CMAX =          1.000000000000000E+00
(PID.TID 0000.0001) // CINT =          0.000000000000000E+00
(PID.TID 0000.0001) // SYMBOLS (CMIN->CMAX): -abcdefghijklmnopqrstuvwxyz+
(PID.TID 0000.0001) //                  0.0: .
(PID.TID 0000.0001) // RANGE I (Lo:Hi:Step):(  -3:  24:   1)
(PID.TID 0000.0001) // RANGE J (Lo:Hi:Step):(  20:  -3:  -1)
(PID.TID 0000.0001) // RANGE K (Lo:Hi:Step):(   1:   1:   1)
(PID.TID 0000.0001) // =======================================================
(PID.TID 0000.0001) K =   1
(PID.TID 0000.0001) //                I=6       I=16
(PID.TID 0000.0001) // |--J--|***012345|789012345|78901234
(PID.TID 0000.0001) //     20 ......------------........--
(PID.TID 0000.0001) //     19 ......------------........--
(PID.TID 0000.0001) //     18 ......------------........--
(PID.TID 0000.0001) //     17 ............................
(PID.TID 0000.0001) //     16 ............................
(PID.TID 0000.0001) //     15 ---...-----------------...--
(PID.TID 0000.0001) //     14 ---...-----------------...--
(PID.TID 0000.0001) //     13 --....----------------....--
(PID.TID 0000.0001) //     12 -.....---------------.....--
(PID.TID 0000.0001) //     11 -.....---------------.....--
(PID.TID 0000.0001) //     10 ......-------------.......--
(PID.TID 0000.0001) //      9 ......------------........--
(PID.TID 0000.0001) //      8 ......------------........--
(PID.TID 0000.0001) //      7 ......------------........--
(PID.TID 0000.0001) //      6 ......------------........--
(PID.TID 0000.0001) //      5 ......------------........--
(PID.TID 0000.0001) //      4 ......------------........--
(PID.TID 0000.0001) //      3 ......------------........--
(PID.TID 0000.0001) //      2 ......------------........--
(PID.TID 0000.0001) //      1 ............................
(PID.TID 0000.0001) //      0 ............................
(PID.TID 0000.0001) //     -1 ---...-----------------...--
(PID.TID 0000.0001) //     -2 ---...-----------------...--
(PID.TID 0000.0001) //     -3 --....----------------....--
(PID.TID 0000.0001) // =======================================================
(PID.TID 0000.0001) // END OF FIELD                                          =
(PID.TID 0000.0001) // =======================================================
(PID.TID 0000.0001) 
(PID.TID 0000.0001) // =======================================================
(PID.TID 0000.0001) // Field hFacS at iteration          1
(PID.TID 0000.0001) // CMIN =          1.000000000000000E+00
(PID.TID 0000.0001) // CMAX =          1.000000000000000E+00
(PID.TID 0000.0001) // CINT =          0.000000000000000E+00
(PID.TID 0000.0001) // SYMBOLS (CMIN->CMAX): -abcdefghijklmnopqrstuvwxyz+
(PID.TID 0000.0001) //                  0.0: .
(PID.TID 0000.0001) // RANGE I (Lo:Hi:Step):(  -3:  24:   1)
(PID.TID 0000.0001) // RANGE J (Lo:Hi:Step):(  20:  -3:  -1)
(PID.TID 0000.0001) // RANGE K (Lo:Hi:Step):(   1:   1:   1)
(PID.TID 0000.0001) // =======================================================
(PID.TID 0000.0001) K =   1
(PID.TID 0000.0001) //                I=6       I=16
(PID.TID 0000.0001) // |--J--|***012345|789012345|78901234
(PID.TID 0000.0001) //     20 .....-------------.......---
(PID.TID 0000.0001) //     19 .....-------------.......---
(PID.TID 0000.0001) //     18 ............................
(PID.TID 0000.0001) //     17 ............................
(PID.TID 0000.0001) //     16 ............................
(PID.TID 0000.0001) //     15 ---..------------------..---
(PID.TID 0000.0001) //     14 --...-----------------...---
(PID.TID 0000.0001) //     13 -....----------------....---
(PID.TID 0000.0001) //     12 -....----------------....---
(PID.TID 0000.0001) //     11 .....--------------......---
(PID.TID 0000.0001) //     10 .....-------------.......---
(PID.TID 0000.0001) //      9 .....-------------.......---
(PID.TID 0000.0001) //      8 .....-------------.......---
(PID.TID 0000.0001) //      7 .....-------------.......---
(PID.TID 0000.0001) //      6 .....-------------.......---
(PID.TID 0000.0001) //      5 .....-------------.......---
(PID.TID 0000.0001) //      4 .....-------------.......---
(PID.TID 0000.0001) //      3 .....-------------.......---
(PID.TID 0000.0001) //      2 ............................
(PID.TID 0000.0001) //      1 ............................
(PID.TID 0000.0001) //      0 ............................
(PID.TID 0000.0001) //     -1 ---..------------------..---
(PID.TID 0000.0001) //     -2 --...-----------------...---
(PID.TID 0000.0001) //     -3 -....----------------....---
(PID.TID 0000.0001) // =======================================================
(PID.TID 0000.0001) // END OF FIELD                                          =
(PID.TID 0000.0001) // =======================================================
(PID.TID 0000.0001) 
(PID.TID 0000.0001)  PACKAGES_BOOT: opening data.pkg
(PID.TID 0000.0001)  OPEN_COPY_DATA_FILE: opening file data.pkg
(PID.TID 0000.0001) // =======================================================
(PID.TID 0000.0001) // Parameter file "data.pkg"
(PID.TID 0000.0001) // =======================================================
(PID.TID 0000.0001) >#
(PID.TID 0000.0001) ># ********
(PID.TID 0000.0001) ># Packages
(PID.TID 0000.0001) ># ********
(PID.TID 0000.0001) > &PACKAGES
(PID.TID 0000.0001) > useGMRedi    = .TRUE.,
(PID.TID 0000.0001) > useKPP       = .TRUE.,
(PID.TID 0000.0001) > useECCO      = .TRUE.,
(PID.TID 0000.0001) > useGrdchk    = .TRUE.,
(PID.TID 0000.0001) > &
(PID.TID 0000.0001) 
(PID.TID 0000.0001)  PACKAGES_BOOT: finished reading data.pkg
(PID.TID 0000.0001)  GM_READPARMS: opening data.gmredi
(PID.TID 0000.0001)  OPEN_COPY_DATA_FILE: opening file data.gmredi
(PID.TID 0000.0001) // =======================================================
(PID.TID 0000.0001) // Parameter file "data.gmredi"
(PID.TID 0000.0001) // =======================================================
(PID.TID 0000.0001) ># GM+Redi package parameters:
(PID.TID 0000.0001) >#     GM_Small_Number  :: epsilon used in computing the slope
(PID.TID 0000.0001) >#     GM_slopeSqCutoff :: slope^2 cut-off value
(PID.TID 0000.0001) >
(PID.TID 0000.0001) >#-from MOM :
(PID.TID 0000.0001) ># GM_background_K: 	G & Mc.W  diffusion coefficient
(PID.TID 0000.0001) ># GM_maxSlope    :	max slope of isopycnals
(PID.TID 0000.0001) ># GM_Scrit       :	transition for scaling diffusion coefficient
(PID.TID 0000.0001) ># GM_Sd          :	half width scaling for diffusion coefficient
(PID.TID 0000.0001) ># GM_taper_scheme:	slope clipping or one of the tapering schemes
(PID.TID 0000.0001) ># GM_Kmin_horiz  :	horizontal diffusion minimum value
(PID.TID 0000.0001) >
(PID.TID 0000.0001) >#-Option parameters (needs to "define" options in GMREDI_OPTIONS.h")
(PID.TID 0000.0001) ># GM_isopycK     :	isopycnal diffusion coefficient (default=GM_background_K)
(PID.TID 0000.0001) ># GM_AdvForm     :	turn on GM Advective form       (default=Skew flux form)
(PID.TID 0000.0001) >
(PID.TID 0000.0001) > &GM_PARM01
(PID.TID 0000.0001) >  GM_Small_Number  = 1.D-20,
(PID.TID 0000.0001) >  GM_slopeSqCutoff = 1.D+08,
(PID.TID 0000.0001) >  GM_AdvForm         = .FALSE.,
(PID.TID 0000.0001) >#  GM_isopycK         = 1.1D+3,
(PID.TID 0000.0001) >#  GM_background_K    = 0.9D+3,
(PID.TID 0000.0001) >  GM_background_K    = 1.D+3,
(PID.TID 0000.0001) >  GM_taper_scheme    = 'dm95',
(PID.TID 0000.0001) >  GM_maxSlope        = 1.D-2,
(PID.TID 0000.0001) >  GM_Kmin_horiz      = 50.,
(PID.TID 0000.0001) >  GM_Scrit           = 4.D-3,
(PID.TID 0000.0001) >  GM_Sd              = 1.D-3,
(PID.TID 0000.0001) >#  GM_Visbeck_alpha   = 1.5D-2,
(PID.TID 0000.0001) >  GM_Visbeck_alpha   = 0.,
(PID.TID 0000.0001) >  GM_Visbeck_length  = 2.D+5,
(PID.TID 0000.0001) >  GM_Visbeck_depth   = 1.D+3,
(PID.TID 0000.0001) >  GM_Visbeck_maxval_K= 2.5D+3,
(PID.TID 0000.0001) > &end
(PID.TID 0000.0001) >
(PID.TID 0000.0001) >
(PID.TID 0000.0001) 
(PID.TID 0000.0001)  GM_READPARMS: finished reading data.gmredi
(PID.TID 0000.0001)  KPP_INIT: opening data.kpp
(PID.TID 0000.0001)  OPEN_COPY_DATA_FILE: opening file data.kpp
(PID.TID 0000.0001) // =======================================================
(PID.TID 0000.0001) // Parameter file "data.kpp"
(PID.TID 0000.0001) // =======================================================
(PID.TID 0000.0001) >
(PID.TID 0000.0001) >#
(PID.TID 0000.0001) ># ***************
(PID.TID 0000.0001) ># Open boundaries
(PID.TID 0000.0001) ># ***************
(PID.TID 0000.0001) > &KPP_PARM01
(PID.TID 0000.0001) > &
(PID.TID 0000.0001) 
(PID.TID 0000.0001)  KPP_INIT: finished reading data.kpp
(PID.TID 0000.0001) 
(PID.TID 0000.0001) // =======================================================
(PID.TID 0000.0001) // Gradient check configuration  >>> START <<<
(PID.TID 0000.0001) // =======================================================
(PID.TID 0000.0001) 
(PID.TID 0000.0001)   eps:                              0.100E-03
(PID.TID 0000.0001)   First location:                           1
(PID.TID 0000.0001)   Last location:                            4
(PID.TID 0000.0001)   Increment:                                1
(PID.TID 0000.0001) 
(PID.TID 0000.0001) // =======================================================
(PID.TID 0000.0001) // Gradient check configuration  >>> END <<<
(PID.TID 0000.0001) // =======================================================
(PID.TID 0000.0001) 
(PID.TID 0000.0001) 
(PID.TID 0000.0001) // =======================================================
(PID.TID 0000.0001) // Calendar configuration >>> START <<<
(PID.TID 0000.0001) // =======================================================
(PID.TID 0000.0001) 
(PID.TID 0000.0001) Calendar version: 0.2.0
(PID.TID 0000.0001) 
(PID.TID 0000.0001) startTime =   /* Start time of the model integration [s] */
(PID.TID 0000.0001)                 0.000000000000000E+00
(PID.TID 0000.0001)     ;
(PID.TID 0000.0001) endTime =   /* End time of the model integration [s] */
(PID.TID 0000.0001)                 1.440000000000000E+04
(PID.TID 0000.0001)     ;
(PID.TID 0000.0001) deltatclock =   /* Time interval for a model forward step [s] */
(PID.TID 0000.0001)                 3.600000000000000E+03
(PID.TID 0000.0001)     ;
(PID.TID 0000.0001) usingGregorianCalendar =  /* Calendar Type: Gregorian Calendar */
(PID.TID 0000.0001)                   T
(PID.TID 0000.0001)     ;
(PID.TID 0000.0001) usingJulianCalendar =  /* Calendar Type: Julian Calendar */
(PID.TID 0000.0001)                   F
(PID.TID 0000.0001)     ;
(PID.TID 0000.0001) usingModelCalendar =  /* Calendar Type: Model Calendar */
(PID.TID 0000.0001)                   F
(PID.TID 0000.0001)     ;
(PID.TID 0000.0001) usingNoCalendar =  /* Calendar Type: No Calendar */
(PID.TID 0000.0001)                   F
(PID.TID 0000.0001)     ;
(PID.TID 0000.0001) modelstartdate (YYYYMMDD) =   /* Model start date YYYY-MM-DD  */
(PID.TID 0000.0001)                19920102
(PID.TID 0000.0001)     ;
(PID.TID 0000.0001) modelstartdate (HHMMSS) =   /* Model start date HH-MM-SS  */
(PID.TID 0000.0001)                  220000
(PID.TID 0000.0001)     ;
(PID.TID 0000.0001) modelenddate (YYYYMMDD) =   /* Model end date YYYY-MM-DD  */
(PID.TID 0000.0001)                19920103
(PID.TID 0000.0001)     ;
(PID.TID 0000.0001) modelenddate (HHMMSS) =   /* Model end date HH-MM-SS  */
(PID.TID 0000.0001)                   20000
(PID.TID 0000.0001)     ;
(PID.TID 0000.0001) intyears =   /* Number of calendar years affected by the integration  */
(PID.TID 0000.0001)                       1
(PID.TID 0000.0001)     ;
(PID.TID 0000.0001) intmonths =   /* Number of calendar months affected by the integration  */
(PID.TID 0000.0001)                       1
(PID.TID 0000.0001)     ;
(PID.TID 0000.0001) intdays =   /* Number of calendar days affected by the integration  */
(PID.TID 0000.0001)                       2
(PID.TID 0000.0001)     ;
(PID.TID 0000.0001) nIter0 =   /* Base timestep number  */
(PID.TID 0000.0001)                       0
(PID.TID 0000.0001)     ;
(PID.TID 0000.0001) nEndIter =   /* Final timestep number  */
(PID.TID 0000.0001)                       4
(PID.TID 0000.0001)     ;
(PID.TID 0000.0001) nTimeSteps =   /* Number of model timesteps  */
(PID.TID 0000.0001)                       4
(PID.TID 0000.0001)     ;
(PID.TID 0000.0001) 
(PID.TID 0000.0001) // =======================================================
(PID.TID 0000.0001) // Calendar configuration  >>> END <<<
(PID.TID 0000.0001) // =======================================================
(PID.TID 0000.0001) 
(PID.TID 0000.0001) 
(PID.TID 0000.0001) // =======================================================
(PID.TID 0000.0001) // External forcing configuration >>> START <<<
(PID.TID 0000.0001) // =======================================================
(PID.TID 0000.0001) 
(PID.TID 0000.0001) External forcing version: 0.2.2
(PID.TID 0000.0001) Uses Calendar version:    0.2.0
(PID.TID 0000.0001) 
(PID.TID 0000.0001) // ALLOW_ATM_TEMP:                 NOT defined
(PID.TID 0000.0001) // ALLOW_ATM_WIND:                 NOT defined
(PID.TID 0000.0001) // ALLOW_DOWNWARD_RADIATION:       NOT defined
(PID.TID 0000.0001) // ALLOW_BULKFORMULAE:             NOT defined
(PID.TID 0000.0001) 
(PID.TID 0000.0001)    Zonal wind stress forcing starts at          19920102 000000 THU.
(PID.TID 0000.0001)    Zonal wind stress forcing period is          00000000 120000
(PID.TID 0000.0001)    Zonal wind stress forcing is read from file:
(PID.TID 0000.0001)    >>  PH_ustress__020_016_23  <<
(PID.TID 0000.0001) 
(PID.TID 0000.0001)    Meridional wind stress forcing starts at     19920102 000000 THU.
(PID.TID 0000.0001)    Meridional wind stress forcing period is     00000000 120000
(PID.TID 0000.0001)    Meridional wind stress forcing is read from file:
(PID.TID 0000.0001)    >>  PH_vstress__020_016_23  <<
(PID.TID 0000.0001) 
(PID.TID 0000.0001)    Heat flux forcing starts at                 19920102 030000 THU.
(PID.TID 0000.0001)    Heat flux forcing period is                  00000001 000000
(PID.TID 0000.0001)    Heat flux forcing is read from file:
(PID.TID 0000.0001)    >>  PH_totflsfc__020_016_23  <<
(PID.TID 0000.0001) 
(PID.TID 0000.0001)    Salt flux forcing starts at                  19920102 030000 THU.
(PID.TID 0000.0001)    Salt flux forcing period is                  00000001 000000
(PID.TID 0000.0001)    Salt flux forcing is read from file:
(PID.TID 0000.0001)    >>  PH_pratesfc__020_016_23  <<
(PID.TID 0000.0001) 
(PID.TID 0000.0001)    Net shortwave flux forcing starts at       19920102 030000 THU.
(PID.TID 0000.0001)    Net shortwave flux forcing period is       00000001 000000
(PID.TID 0000.0001)    Net shortwave flux forcing is read from file:
(PID.TID 0000.0001)    >>  PH_swflsfc__020_016_23  <<
(PID.TID 0000.0001) // EXF_READ_EVAP:                  NOT defined
(PID.TID 0000.0001) // ALLOW_RUNOFF:                   NOT defined
(PID.TID 0000.0001) 
(PID.TID 0000.0001) // =======================================================
(PID.TID 0000.0001) // External forcing configuration  >>> END <<<
(PID.TID 0000.0001) // =======================================================
(PID.TID 0000.0001) 
(PID.TID 0000.0001) 
(PID.TID 0000.0001) // =======================================================
(PID.TID 0000.0001) // External forcing climatology configuration >>> START <<<
(PID.TID 0000.0001) // =======================================================
(PID.TID 0000.0001) 
(PID.TID 0000.0001) External forcing version: 0.2.2
(PID.TID 0000.0001) Uses Calendar version:    0.2.0
(PID.TID 0000.0001) 
(PID.TID 0000.0001) // ALLOW_CLIMTEMP_RELAXATION:      NOT defined
(PID.TID 0000.0001) // ALLOW_CLIMSALT_RELAXATION:      NOT defined
(PID.TID 0000.0001) // ALLOW_CLIMSST_RELAXATION:       NOT defined
(PID.TID 0000.0001) // ALLOW_CLIMSSS_RELAXATION:       NOT defined
(PID.TID 0000.0001) 
(PID.TID 0000.0001) // =======================================================
(PID.TID 0000.0001) // External forcing climatology configuration  >>> END <<<
(PID.TID 0000.0001) // =======================================================
(PID.TID 0000.0001) 
(PID.TID 0000.0001) KPP_CHECK: #define ALLOW_KPP
(PID.TID 0000.0001) GMREDI_CHECK: #define GMREDI
(PID.TID 0000.0001) GM_AdvForm =  /* if FALSE => use SkewFlux Form */
(PID.TID 0000.0001)                   F
(PID.TID 0000.0001)     ;
(PID.TID 0000.0001) GM_AdvSeparate = /* Calc Bolus & Euler Adv. separately */
(PID.TID 0000.0001)                   F
(PID.TID 0000.0001)     ;
(PID.TID 0000.0001) GM_ExtraDiag =  /* Tensor Extra Diag (line 1&2) non 0 */
(PID.TID 0000.0001)                   F
(PID.TID 0000.0001)     ;
(PID.TID 0000.0001) GM_isopycK =   /* Background Isopyc. Diffusivity ( m^2/s ) */
(PID.TID 0000.0001)                 1.000000000000000E+03
(PID.TID 0000.0001)     ;
(PID.TID 0000.0001)  GM_skewflx*K =   /* Background GM_SkewFlx Diffusivity ( m^2/s ) */
(PID.TID 0000.0001)                 1.000000000000000E+03
(PID.TID 0000.0001)     ;
(PID.TID 0000.0001)  GM_advec*K =   /* Backg. GM-Advec(=Bolus) Diffusivity ( m^2/s ) */
(PID.TID 0000.0001)                 0.000000000000000E+00
(PID.TID 0000.0001)     ;
(PID.TID 0000.0001)  GM_Visbeck_alpha =   /* Visbeck alpha coeff. ( ) */
(PID.TID 0000.0001)                 0.000000000000000E+00
(PID.TID 0000.0001)     ;
(PID.TID 0000.0001)  Tapering/Cliping : dm95
(PID.TID 0000.0001)  GM_Small_Number =  /* epsilon used in slope calc */
(PID.TID 0000.0001)                 9.999999999999999E-21
(PID.TID 0000.0001)     ;
(PID.TID 0000.0001)  GM_slopeSqCutoff =  /* Slope^2 cut-off value */
(PID.TID 0000.0001)                 1.000000000000000E+08
(PID.TID 0000.0001)     ;
(PID.TID 0000.0001) CTRL_CHECK: ctrl package
(PID.TID 0000.0001) COST_CHECK: cost package
(PID.TID 0000.0001) 
(PID.TID 0000.0001) // ===================================
(PID.TID 0000.0001) // GAD parameters :
(PID.TID 0000.0001) // ===================================
(PID.TID 0000.0001) tempAdvScheme =   /* Temp. advection scheme selector */
(PID.TID 0000.0001)                       2
(PID.TID 0000.0001)     ;
(PID.TID 0000.0001) tempMultiDimAdvec =   /* use Muti-Dim Advec method for Temp */
(PID.TID 0000.0001)                   F
(PID.TID 0000.0001)     ;
(PID.TID 0000.0001) tempAdamsBashforth =   /* use Adams-Bashforth time-stepping for Temp */
(PID.TID 0000.0001)                   T
(PID.TID 0000.0001)     ;
(PID.TID 0000.0001) saltAdvScheme =   /* Salt. advection scheme selector */
(PID.TID 0000.0001)                       2
(PID.TID 0000.0001)     ;
(PID.TID 0000.0001) saltMultiDimAdvec =   /* use Muti-Dim Advec method for Salt */
(PID.TID 0000.0001)                   F
(PID.TID 0000.0001)     ;
(PID.TID 0000.0001) saltAdamsBashforth =   /* use Adams-Bashforth time-stepping for Salt */
(PID.TID 0000.0001)                   T
(PID.TID 0000.0001)     ;
(PID.TID 0000.0001) // ===================================
(PID.TID 0000.0001) 
(PID.TID 0000.0001)  ctrl_init: Initializing temperature and salinity
(PID.TID 0000.0001)                    part of the control vector.
(PID.TID 0000.0001)                    The initial surface fluxes are set to zero.
(PID.TID 0000.0001) 
 ph-wet 1: nvarlength =  9524
 ph-wet 2: surface wet C =  203
 ph-wet 3: surface wet W =  189
 ph-wet 4: surface wet S =  185
 ph-wet 4a:surface wet V =  0
 ph-wet 5: 3D wet points =  3982
 ph-wet 6: no recs for i =  1 1
 ph-wet 6: no recs for i =  2 1
 ph-wet 6: no recs for i =  3 2
 ph-wet 6: no recs for i =  4 2
 ph-wet 6: no recs for i =  5 2
 ph-wet 6: no recs for i =  6 2
 ph-wet 6: no recs for i =  7 0
 ph-wet 6: no recs for i =  8 0
 ph-wet 6: no recs for i =  9 0
 ph-wet 6: no recs for i =  10 0
 ph-wet 6: no recs for i =  11 0
 ph-wet 6: no recs for i =  12 0
 ph-wet 6: no recs for i =  13 0
 ph-wet 6: no recs for i =  14 0
 ph-wet 6: no recs for i =  15 0
 ph-wet 6: no recs for i =  16 0
 ph-wet 6: no recs for i =  17 0
 ph-wet 6: no recs for i =  18 0
 ph-wet 6: no recs for i =  19 0
 ph-wet 6: no recs for i =  20 0
 ph-wet 6: no recs for i =  21 0
 ph-wet 6: no recs for i =  22 0
 ph-wet 6: no recs for i =  23 0
 ph-wet 6: no recs for i =  24 0
 ph-wet 6: no recs for i =  25 0
 ph-wet 6: no recs for i =  26 0
 ph-wet 6: no recs for i =  27 0
 ph-wet 6: no recs for i =  28 0
 ph-wet 6: no recs for i =  29 0
 ph-wet 6: no recs for i =  30 0
 ph-wet 7:  9524
 ph-wet 8:  7964
 ph-wet 13: global nvarlength vor k= 24 9524
 ph-wet 14a: global nWet... k= 1 203
 ph-wet 14b: global nWet... k= 1 185
 ph-wet 14c: global nWet... k= 1 189
 ph-wet 14d: global nWet... k= 1 0
 ph-wet 14a: global nWet... k= 2 203
 ph-wet 14b: global nWet... k= 2 185
 ph-wet 14c: global nWet... k= 2 189
 ph-wet 14d: global nWet... k= 2 0
 ph-wet 14a: global nWet... k= 3 203
 ph-wet 14b: global nWet... k= 3 185
 ph-wet 14c: global nWet... k= 3 189
 ph-wet 14d: global nWet... k= 3 0
 ph-wet 14a: global nWet... k= 4 203
 ph-wet 14b: global nWet... k= 4 185
 ph-wet 14c: global nWet... k= 4 189
 ph-wet 14d: global nWet... k= 4 0
 ph-wet 14a: global nWet... k= 5 203
 ph-wet 14b: global nWet... k= 5 185
 ph-wet 14c: global nWet... k= 5 189
 ph-wet 14d: global nWet... k= 5 0
 ph-wet 14a: global nWet... k= 6 203
 ph-wet 14b: global nWet... k= 6 185
 ph-wet 14c: global nWet... k= 6 189
 ph-wet 14d: global nWet... k= 6 0
 ph-wet 14a: global nWet... k= 7 203
 ph-wet 14b: global nWet... k= 7 185
 ph-wet 14c: global nWet... k= 7 189
 ph-wet 14d: global nWet... k= 7 0
 ph-wet 14a: global nWet... k= 8 203
 ph-wet 14b: global nWet... k= 8 185
 ph-wet 14c: global nWet... k= 8 189
 ph-wet 14d: global nWet... k= 8 0
 ph-wet 14a: global nWet... k= 9 203
 ph-wet 14b: global nWet... k= 9 185
 ph-wet 14c: global nWet... k= 9 189
 ph-wet 14d: global nWet... k= 9 0
 ph-wet 14a: global nWet... k= 10 203
 ph-wet 14b: global nWet... k= 10 185
 ph-wet 14c: global nWet... k= 10 189
 ph-wet 14d: global nWet... k= 10 0
 ph-wet 14a: global nWet... k= 11 200
 ph-wet 14b: global nWet... k= 11 181
 ph-wet 14c: global nWet... k= 11 186
 ph-wet 14d: global nWet... k= 11 0
 ph-wet 14a: global nWet... k= 12 198
 ph-wet 14b: global nWet... k= 12 178
 ph-wet 14c: global nWet... k= 12 184
 ph-wet 14d: global nWet... k= 12 0
 ph-wet 14a: global nWet... k= 13 197
 ph-wet 14b: global nWet... k= 13 177
 ph-wet 14c: global nWet... k= 13 183
 ph-wet 14d: global nWet... k= 13 0
 ph-wet 14a: global nWet... k= 14 194
 ph-wet 14b: global nWet... k= 14 176
 ph-wet 14c: global nWet... k= 14 180
 ph-wet 14d: global nWet... k= 14 0
 ph-wet 14a: global nWet... k= 15 191
 ph-wet 14b: global nWet... k= 15 173
 ph-wet 14c: global nWet... k= 15 177
 ph-wet 14d: global nWet... k= 15 0
 ph-wet 14a: global nWet... k= 16 189
 ph-wet 14b: global nWet... k= 16 171
 ph-wet 14c: global nWet... k= 16 174
 ph-wet 14d: global nWet... k= 16 0
 ph-wet 14a: global nWet... k= 17 185
 ph-wet 14b: global nWet... k= 17 168
 ph-wet 14c: global nWet... k= 17 170
 ph-wet 14d: global nWet... k= 17 0
 ph-wet 14a: global nWet... k= 18 172
 ph-wet 14b: global nWet... k= 18 150
 ph-wet 14c: global nWet... k= 18 153
 ph-wet 14d: global nWet... k= 18 0
 ph-wet 14a: global nWet... k= 19 148
 ph-wet 14b: global nWet... k= 19 124
 ph-wet 14c: global nWet... k= 19 128
 ph-wet 14d: global nWet... k= 19 0
 ph-wet 14a: global nWet... k= 20 127
 ph-wet 14b: global nWet... k= 20 104
 ph-wet 14c: global nWet... k= 20 109
 ph-wet 14d: global nWet... k= 20 0
 ph-wet 14a: global nWet... k= 21 100
 ph-wet 14b: global nWet... k= 21 82
 ph-wet 14c: global nWet... k= 21 85
 ph-wet 14d: global nWet... k= 21 0
 ph-wet 14a: global nWet... k= 22 51
 ph-wet 14b: global nWet... k= 22 33
 ph-wet 14c: global nWet... k= 22 36
 ph-wet 14d: global nWet... k= 22 0
 ph-wet 14a: global nWet... k= 23 0
 ph-wet 14b: global nWet... k= 23 0
 ph-wet 14c: global nWet... k= 23 0
 ph-wet 14d: global nWet... k= 23 0
 ctrl_init: no. of control variables:  6
 ctrl_init: control vector length:     9524
(PID.TID 0000.0001)  MDSREADFIELD: opening global file: PH_ssh.err__020_016_23.data
(PID.TID 0000.0001)  MDSREADFIELD: opening global file: PH_ustress.err__020_016_23.data
(PID.TID 0000.0001)  MDSREADFIELD: opening global file: PH_vstress.err__020_016_23.data
(PID.TID 0000.0001)  MDSREADFIELD: opening global file: PH_totflux.err__020_016_23.data
(PID.TID 0000.0001)  MDSREADFIELD: opening global file: PH_pme.err__020_016_23.data
(PID.TID 0000.0001) 
(PID.TID 0000.0001) // =======================================================
(PID.TID 0000.0001) // ECCO cost function configuration  >>> START <<<
(PID.TID 0000.0001) // =======================================================
(PID.TID 0000.0001) 
(PID.TID 0000.0001)   Multipliers for the indivdual cost function contributions:
(PID.TID 0000.0001) 
(PID.TID 0000.0001)   Net heat flux:                 0.100E+01
(PID.TID 0000.0001)   Salt flux:                     0.100E+01
(PID.TID 0000.0001)   Zonal wind stress:             0.100E+01
(PID.TID 0000.0001)   Meridional wind stress:        0.100E+01
(PID.TID 0000.0001)   Mean sea surface height:       0.100E+01
(PID.TID 0000.0001)   Sea surface height anomalies:  0.100E+01
(PID.TID 0000.0001)   Temperature Lev.:              0.100E+01
(PID.TID 0000.0001)   Salinity Lev.:                 0.100E+01
(PID.TID 0000.0001)   Temperature ini.:              0.000E+00
(PID.TID 0000.0001)   Salinity ini.:                 0.000E+00
(PID.TID 0000.0001)   TMI Sea surface temperature:   0.000E+00
(PID.TID 0000.0001)   Sea surface temperature:       0.100E+01
(PID.TID 0000.0001)   Sea surface salinity:         0.000E+00
(PID.TID 0000.0001)   CTD temperature:               0.000E+00
(PID.TID 0000.0001)   CTD salinity:                  0.000E+00
(PID.TID 0000.0001)   CTD clim temperature:          0.000E+00
(PID.TID 0000.0001)   CTD clim salinity:             0.000E+00
(PID.TID 0000.0001)   XBT Temperature:               0.000E+00
(PID.TID 0000.0001)   ARGO Temperature:               0.000E+00
(PID.TID 0000.0001)   ARGO Salt:                      0.000E+00
(PID.TID 0000.0001)   drifter velocities:            0.000E+00
(PID.TID 0000.0001)   drift between last and 1st year: 0.000E+00
(PID.TID 0000.0001)   drift between last and 1st year: 0.000E+00
(PID.TID 0000.0001)   Ageostrophic bdy flow:         0.000E+00
(PID.TID 0000.0001)   OB North:                      0.000E+00
(PID.TID 0000.0001)   OB South:                      0.000E+00
(PID.TID 0000.0001)   OB West:                       0.000E+00
(PID.TID 0000.0001)   OB East:                       0.000E+00
(PID.TID 0000.0001) 
(PID.TID 0000.0001) 
(PID.TID 0000.0001)   Temperature data are read from: PH_Lev.ptmp__020_016_23
(PID.TID 0000.0001)   Salinity data are read from:    PH_Lev.salt__020_016_23
(PID.TID 0000.0001) %MON fCori_max                    =   9.5419917861011E-05
(PID.TID 0000.0001) %MON fCori_min                    =   2.7752043431195E-05
(PID.TID 0000.0001) %MON fCori_mean                   =   6.2936249243167E-05
(PID.TID 0000.0001) %MON fCori_sd                     =   2.0885809702547E-05
(PID.TID 0000.0001) %MON fCoriG_max                   =   9.3489668167119E-05
(PID.TID 0000.0001) %MON fCoriG_min                   =   2.5256103669800E-05
(PID.TID 0000.0001) %MON fCoriG_mean                  =   6.0674632558389E-05
(PID.TID 0000.0001) %MON fCoriG_sd                    =   2.1059305790472E-05
(PID.TID 0000.0001) %MON fCoriCos_max                 =   1.4277188648533E-04
(PID.TID 0000.0001) %MON fCoriCos_min                 =   1.0976805892693E-04
(PID.TID 0000.0001) %MON fCoriCos_mean                =   1.2903843359786E-04
(PID.TID 0000.0001) %MON fCoriCos_sd                  =   1.0289879691716E-05
(PID.TID 0000.0001) // CG2D normalisation factor =          0.1575292392863445389492028E-03
(PID.TID 0000.0001) 
(PID.TID 0000.0001) CONFIG_CHECK: OK
(PID.TID 0000.0001) // =======================================================
(PID.TID 0000.0001) // Model configuration
(PID.TID 0000.0001) // =======================================================
(PID.TID 0000.0001) //
(PID.TID 0000.0001) // "Physical" paramters ( PARM01 in namelist )
(PID.TID 0000.0001) //
(PID.TID 0000.0001) buoyancyRelation = OCEANIC
(PID.TID 0000.0001) tRef =   /* Reference temperature profile ( oC or oK ) */
(PID.TID 0000.0001)                 2.400000000000000E+01,      /* K =  1 */
(PID.TID 0000.0001)                 2.300000000000000E+01,      /* K =  2 */
(PID.TID 0000.0001)                 2.200000000000000E+01,      /* K =  3 */
(PID.TID 0000.0001)                 2.100000000000000E+01,      /* K =  4 */
(PID.TID 0000.0001)                 2.000000000000000E+01,      /* K =  5 */
(PID.TID 0000.0001)                 1.900000000000000E+01,      /* K =  6 */
(PID.TID 0000.0001)                 1.800000000000000E+01,      /* K =  7 */
(PID.TID 0000.0001)                 1.700000000000000E+01,      /* K =  8 */
(PID.TID 0000.0001)                 1.600000000000000E+01,      /* K =  9 */
(PID.TID 0000.0001)                 1.500000000000000E+01,      /* K = 10 */
(PID.TID 0000.0001)                 1.400000000000000E+01,      /* K = 11 */
(PID.TID 0000.0001)                 1.300000000000000E+01,      /* K = 12 */
(PID.TID 0000.0001)                 1.200000000000000E+01,      /* K = 13 */
(PID.TID 0000.0001)                 1.100000000000000E+01,      /* K = 14 */
(PID.TID 0000.0001)                 1.000000000000000E+01,      /* K = 15 */
(PID.TID 0000.0001)                 9.000000000000000E+00,      /* K = 16 */
(PID.TID 0000.0001)                 8.000000000000000E+00,      /* K = 17 */
(PID.TID 0000.0001)                 7.000000000000000E+00,      /* K = 18 */
(PID.TID 0000.0001)                 6.000000000000000E+00,      /* K = 19 */
(PID.TID 0000.0001)                 5.000000000000000E+00,      /* K = 20 */
(PID.TID 0000.0001)                 4.000000000000000E+00,      /* K = 21 */
(PID.TID 0000.0001)                 3.000000000000000E+00,      /* K = 22 */
(PID.TID 0000.0001)                 2.000000000000000E+00       /* K = 23 */
(PID.TID 0000.0001)     ;
(PID.TID 0000.0001) sRef =   /* Reference salinity profile ( ppt ) */
(PID.TID 0000.0001)                 3.465000000000000E+01,      /* K =  1 */
(PID.TID 0000.0001)                 3.475000000000000E+01,      /* K =  2 */
(PID.TID 0000.0001)                 3.482000000000000E+01,      /* K =  3 */
(PID.TID 0000.0001)                 3.487000000000000E+01,      /* K =  4 */
(PID.TID 0000.0001)     2 @  3.490000000000000E+01,             /* K =  5:  6 */
(PID.TID 0000.0001)                 3.486000000000000E+01,      /* K =  7 */
(PID.TID 0000.0001)                 3.478000000000000E+01,      /* K =  8 */
(PID.TID 0000.0001)                 3.469000000000000E+01,      /* K =  9 */
(PID.TID 0000.0001)                 3.460000000000000E+01,      /* K = 10 */
(PID.TID 0000.0001)                 3.458000000000000E+01,      /* K = 11 */
(PID.TID 0000.0001)                 3.462000000000000E+01,      /* K = 12 */
(PID.TID 0000.0001)                 3.468000000000000E+01,      /* K = 13 */
(PID.TID 0000.0001)                 3.472000000000000E+01,      /* K = 14 */
(PID.TID 0000.0001)                 3.473000000000000E+01,      /* K = 15 */
(PID.TID 0000.0001)                 3.474000000000000E+01,      /* K = 16 */
(PID.TID 0000.0001)     2 @  3.473000000000000E+01,             /* K = 17: 18 */
(PID.TID 0000.0001)     2 @  3.472000000000000E+01,             /* K = 19: 20 */
(PID.TID 0000.0001)                 3.471000000000000E+01,      /* K = 21 */
(PID.TID 0000.0001)                 3.470000000000000E+01,      /* K = 22 */
(PID.TID 0000.0001)                 3.469000000000000E+01       /* K = 23 */
(PID.TID 0000.0001)     ;
(PID.TID 0000.0001) viscAh =   /* Lateral eddy viscosity ( m^2/s ) */
(PID.TID 0000.0001)                 5.000000000000000E+04
(PID.TID 0000.0001)     ;
(PID.TID 0000.0001) viscAh =   /* Lateral biharmonic viscosity ( m^4/s ) */
(PID.TID 0000.0001)                 0.000000000000000E+00
(PID.TID 0000.0001)     ;
(PID.TID 0000.0001) no_slip_sides =  /* Viscous BCs: No-slip sides */
(PID.TID 0000.0001)                   F
(PID.TID 0000.0001)     ;
(PID.TID 0000.0001) viscAz =   /* Vertical eddy viscosity ( m^2/s ) */
(PID.TID 0000.0001)                 1.000000000000000E-03
(PID.TID 0000.0001)     ;
(PID.TID 0000.0001) viscAr =   /* Vertical eddy viscosity ( units of r^2/s ) */
(PID.TID 0000.0001)                 1.000000000000000E-03
(PID.TID 0000.0001)     ;
(PID.TID 0000.0001) diffKhT =   /* Laplacian diffusion of heat laterally ( m^2/s ) */
(PID.TID 0000.0001)                 1.000000000000000E+03
(PID.TID 0000.0001)     ;
(PID.TID 0000.0001) diffK4T =   /* Bihaarmonic diffusion of heat laterally ( m^4/s ) */
(PID.TID 0000.0001)                 0.000000000000000E+00
(PID.TID 0000.0001)     ;
(PID.TID 0000.0001) diffKzT =   /* Laplacian diffusion of heat vertically ( m^2/s ) */
(PID.TID 0000.0001)                 1.000000000000000E-05
(PID.TID 0000.0001)     ;
(PID.TID 0000.0001) diffKrT =   /* Laplacian diffusion of heat vertically ( m^2/s ) */
(PID.TID 0000.0001)                 1.000000000000000E-05
(PID.TID 0000.0001)     ;
(PID.TID 0000.0001) diffKhS =   /* Laplacian diffusion of salt laterally ( m^2/s ) */
(PID.TID 0000.0001)                 1.000000000000000E+03
(PID.TID 0000.0001)     ;
(PID.TID 0000.0001) diffK4S =   /* Bihaarmonic diffusion of salt laterally ( m^4/s ) */
(PID.TID 0000.0001)                 0.000000000000000E+00
(PID.TID 0000.0001)     ;
(PID.TID 0000.0001) diffKzS =   /* Laplacian diffusion of salt vertically ( m^2/s ) */
(PID.TID 0000.0001)                 1.000000000000000E-05
(PID.TID 0000.0001)     ;
(PID.TID 0000.0001) diffKrS =   /* Laplacian diffusion of salt vertically ( m^2/s ) */
(PID.TID 0000.0001)                 1.000000000000000E-05
(PID.TID 0000.0001)     ;
(PID.TID 0000.0001)  Equation of State : eosType = POLY3
(PID.TID 0000.0001) tAlpha =   /* Linear EOS thermal expansion coefficient ( 1/degree ) */
(PID.TID 0000.0001)                 2.000000000000000E-04
(PID.TID 0000.0001)     ;
(PID.TID 0000.0001) sBeta =   /* Linear EOS haline contraction coefficient ( 1/ppt ) */
(PID.TID 0000.0001)                 7.400000000000000E-04
(PID.TID 0000.0001)     ;
(PID.TID 0000.0001)   1  13.499  32.600  24.480  -0.201   0.771  -0.005  -0.002   0.000   0.000   0.000   0.000   0.000
(PID.TID 0000.0001)   2  13.498  32.600  24.525  -0.202   0.771  -0.005  -0.002   0.000   0.000   0.000   0.000   0.000
(PID.TID 0000.0001)   3  13.496  32.600  24.581  -0.202   0.771  -0.005  -0.002   0.000   0.000   0.000   0.000   0.000
(PID.TID 0000.0001)   4  13.494  32.600  24.660  -0.202   0.771  -0.005  -0.002   0.000   0.000   0.000   0.000   0.000
(PID.TID 0000.0001)   5  13.491  32.600  24.750  -0.203   0.771  -0.005  -0.002   0.000   0.000   0.000   0.000   0.000
(PID.TID 0000.0001)   6  13.488  32.600  24.851  -0.203   0.770  -0.005  -0.002   0.000   0.000   0.000   0.000   0.000
(PID.TID 0000.0001)   7  13.484  32.600  24.985  -0.204   0.770  -0.005  -0.002   0.000   0.000   0.000   0.000   0.000
(PID.TID 0000.0001)   8  13.478  32.600  25.176  -0.204   0.770  -0.005  -0.002   0.000   0.000   0.000   0.000   0.000
(PID.TID 0000.0001)   9  13.469  32.600  25.456  -0.205   0.769  -0.005  -0.002   0.000   0.000   0.000   0.000   0.000
(PID.TID 0000.0001)  10   8.467  35.150  28.748  -0.163   0.781  -0.005  -0.002   0.001   0.000   0.000   0.000   0.000
(PID.TID 0000.0001)  11   8.454  35.150  29.315  -0.166   0.780  -0.005  -0.002   0.001   0.000   0.000   0.000   0.000
(PID.TID 0000.0001)  12   5.946  34.900  30.300  -0.143   0.785  -0.006  -0.002   0.001   0.000   0.000   0.000   0.000
(PID.TID 0000.0001)  13   4.433  34.900  31.591  -0.132   0.786  -0.006  -0.003   0.000   0.000   0.000   0.000   0.000
(PID.TID 0000.0001)  14   3.909  34.750  32.966  -0.134   0.785  -0.006  -0.003   0.000   0.000   0.000   0.000   0.000
(PID.TID 0000.0001)  15   1.899  34.800  35.002  -0.121   0.787  -0.006  -0.003   0.000   0.000   0.000   0.000   0.000
(PID.TID 0000.0001)  16   1.372  34.750  36.991  -0.127   0.785  -0.006  -0.003  -0.001   0.000   0.000   0.000   0.000
(PID.TID 0000.0001)  17   1.332  34.800  39.171  -0.140   0.782  -0.006  -0.003  -0.001   0.000   0.000   0.000   0.000
(PID.TID 0000.0001)  18   0.797  34.800  41.472  -0.147   0.779  -0.006  -0.003  -0.001   0.000   0.000   0.000   0.000
(PID.TID 0000.0001)  19   0.749  34.800  43.682  -0.160   0.775  -0.005  -0.002  -0.002   0.000   0.000   0.000   0.000
(PID.TID 0000.0001)  20   0.214  34.750  45.912  -0.168   0.772  -0.005  -0.002  -0.002   0.000   0.000   0.000   0.000
(PID.TID 0000.0001)  21   0.160  34.750  48.080  -0.181   0.768  -0.005  -0.002  -0.003   0.000   0.000   0.000   0.000
(PID.TID 0000.0001)  22   0.584  34.750  50.131  -0.197   0.763  -0.005  -0.002  -0.001   0.000   0.000   0.000   0.000
(PID.TID 0000.0001)  23   0.522  34.750  52.248  -0.209   0.760  -0.005  -0.002  -0.002   0.000   0.000   0.000   0.000
(PID.TID 0000.0001) rhonil =   /* Reference density ( kg/m^3 ) */
(PID.TID 0000.0001)                 9.998000000000000E+02
(PID.TID 0000.0001)     ;
(PID.TID 0000.0001) rhoConst =   /* Reference density ( kg/m^3 ) */
(PID.TID 0000.0001)                 9.998000000000000E+02
(PID.TID 0000.0001)     ;
(PID.TID 0000.0001) rhoConstFresh =   /* Reference density ( kg/m^3 ) */
(PID.TID 0000.0001)                 9.998000000000000E+02
(PID.TID 0000.0001)     ;
(PID.TID 0000.0001) gravity =   /* Gravitational acceleration ( m/s^2 ) */
(PID.TID 0000.0001)                 9.810000000000000E+00
(PID.TID 0000.0001)     ;
(PID.TID 0000.0001) gBaro =   /* Barotropic gravity ( m/s^2 ) */
(PID.TID 0000.0001)                 9.810000000000000E+00
(PID.TID 0000.0001)     ;
(PID.TID 0000.0001) rotationPeriod =   /* Rotation Period ( s ) */
(PID.TID 0000.0001)                 8.640000000000000E+04
(PID.TID 0000.0001)     ;
(PID.TID 0000.0001) omega =   /* Angular velocity ( rad/s ) */
(PID.TID 0000.0001)                 7.272205216643040E-05
(PID.TID 0000.0001)     ;
(PID.TID 0000.0001) f0 =   /* Reference coriolis parameter ( 1/s ) */
(PID.TID 0000.0001)                 1.000000000000000E-04
(PID.TID 0000.0001)     ;
(PID.TID 0000.0001) beta =   /* Beta ( 1/(m.s) ) */
(PID.TID 0000.0001)                 9.999999999999999E-12
(PID.TID 0000.0001)     ;
(PID.TID 0000.0001) freeSurfFac =   /* Implicit free surface factor */
(PID.TID 0000.0001)                 1.000000000000000E+00
(PID.TID 0000.0001)     ;
(PID.TID 0000.0001) implicitFreeSurface =   /* Implicit free surface on/off flag */
(PID.TID 0000.0001)                   T
(PID.TID 0000.0001)     ;
(PID.TID 0000.0001) rigidLid =   /* Rigid lid on/off flag */
(PID.TID 0000.0001)                   F
(PID.TID 0000.0001)     ;
(PID.TID 0000.0001) implicSurfPress =   /* Surface Pressure implicit factor (0-1)*/
(PID.TID 0000.0001)                 1.000000000000000E+00
(PID.TID 0000.0001)     ;
(PID.TID 0000.0001) implicDiv2Dflow =   /* Barot. Flow Div. implicit factor (0-1)*/
(PID.TID 0000.0001)                 1.000000000000000E+00
(PID.TID 0000.0001)     ;
(PID.TID 0000.0001) exactConserv =   /* Exact Volume Conservation on/off flag*/
(PID.TID 0000.0001)                   F
(PID.TID 0000.0001)     ;
(PID.TID 0000.0001) uniformLin_PhiSurf =   /* use uniform Bo_surf on/off flag*/
(PID.TID 0000.0001)                   T
(PID.TID 0000.0001)     ;
(PID.TID 0000.0001) nonlinFreeSurf =   /* Non-linear Free Surf. options (-1,0,1,2,3)*/
(PID.TID 0000.0001)                       0
(PID.TID 0000.0001)     ;
(PID.TID 0000.0001)      -1,0= Off ; 1,2,3= On, 2=+rescale gU,gV, 3=+update cg2d solv.
(PID.TID 0000.0001) hFacInf =   /* lower threshold for hFac (nonlinFreeSurf only)*/
(PID.TID 0000.0001)                 2.000000000000000E-01
(PID.TID 0000.0001)     ;
(PID.TID 0000.0001) hFacSup =   /* upper threshold for hFac (nonlinFreeSurf only)*/
(PID.TID 0000.0001)                 2.000000000000000E+00
(PID.TID 0000.0001)     ;
(PID.TID 0000.0001) select_rStar =   /* r* Coordinate options (not yet implemented)*/
(PID.TID 0000.0001)                       0
(PID.TID 0000.0001)     ;
(PID.TID 0000.0001) useRealFreshWaterFlux =   /* Real Fresh Water Flux on/off flag*/
(PID.TID 0000.0001)                   F
(PID.TID 0000.0001)     ;
(PID.TID 0000.0001) convertFW2Salt = /* convert F.W. Flux to Salt Flux (-1=use local S)(ppt)*/
(PID.TID 0000.0001)                 3.500000000000000E+01
(PID.TID 0000.0001)     ;
(PID.TID 0000.0001) multiDimAdvection =   /* enable/disable Multi-Dim Advection */
(PID.TID 0000.0001)                   T
(PID.TID 0000.0001)     ;
(PID.TID 0000.0001) staggerTimeStep =   /* Stagger time stepping on/off flag */
(PID.TID 0000.0001)                   F
(PID.TID 0000.0001)     ;
(PID.TID 0000.0001) momStepping =  /* Momentum equation on/off flag */
(PID.TID 0000.0001)                   T
(PID.TID 0000.0001)     ;
(PID.TID 0000.0001) momAdvection =  /* Momentum advection on/off flag */
(PID.TID 0000.0001)                   T
(PID.TID 0000.0001)     ;
(PID.TID 0000.0001) momViscosity =  /* Momentum viscosity on/off flag */
(PID.TID 0000.0001)                   T
(PID.TID 0000.0001)     ;
(PID.TID 0000.0001) useCoriolis =  /* Coriolis on/off flag */
(PID.TID 0000.0001)                   T
(PID.TID 0000.0001)     ;
(PID.TID 0000.0001) momForcing =  /* Momentum forcing on/off flag */
(PID.TID 0000.0001)                   T
(PID.TID 0000.0001)     ;
(PID.TID 0000.0001) momPressureForcing =  /* Momentum pressure term on/off flag */
(PID.TID 0000.0001)                   T
(PID.TID 0000.0001)     ;
(PID.TID 0000.0001) tempStepping =  /* Temperature equation on/off flag */
(PID.TID 0000.0001)                   T
(PID.TID 0000.0001)     ;
(PID.TID 0000.0001) tempAdvection=  /* Temperature advection on/off flag */
(PID.TID 0000.0001)                   T
(PID.TID 0000.0001)     ;
(PID.TID 0000.0001) tempForcing  =  /* Temperature forcing on/off flag */
(PID.TID 0000.0001)                   T
(PID.TID 0000.0001)     ;
(PID.TID 0000.0001) saltStepping =  /* Salinity equation on/off flag */
(PID.TID 0000.0001)                   T
(PID.TID 0000.0001)     ;
(PID.TID 0000.0001) saltAdvection=  /* Salinity advection on/off flag */
(PID.TID 0000.0001)                   T
(PID.TID 0000.0001)     ;
(PID.TID 0000.0001) saltForcing  =  /* Salinity forcing on/off flag */
(PID.TID 0000.0001)                   T
(PID.TID 0000.0001)     ;
(PID.TID 0000.0001) nonHydrostatic =  /* Non-Hydrostatic on/off flag */
(PID.TID 0000.0001)                   F
(PID.TID 0000.0001)     ;
(PID.TID 0000.0001) useCDscheme =  /* CD scheme on/off flag */
(PID.TID 0000.0001)                   T
(PID.TID 0000.0001)     ;
(PID.TID 0000.0001) useJamartWetPoints= /* Coriolis WetPoints method flag */
(PID.TID 0000.0001)                   F
(PID.TID 0000.0001)     ;
(PID.TID 0000.0001) //
(PID.TID 0000.0001) // Elliptic solver(s) paramters ( PARM02 in namelist )
(PID.TID 0000.0001) //
(PID.TID 0000.0001) cg2dMaxIters =   /* Upper limit on 2d con. grad iterations  */
(PID.TID 0000.0001)                    1000
(PID.TID 0000.0001)     ;
(PID.TID 0000.0001) cg2dChkResFreq =   /* 2d con. grad convergence test frequency */
(PID.TID 0000.0001)                       1
(PID.TID 0000.0001)     ;
(PID.TID 0000.0001) cg2dTargetResidual =   /* 2d con. grad target residual  */
(PID.TID 0000.0001)                 1.000000000000000E-13
(PID.TID 0000.0001)     ;
(PID.TID 0000.0001) //
(PID.TID 0000.0001) // Time stepping paramters ( PARM03 in namelist )
(PID.TID 0000.0001) //
(PID.TID 0000.0001) nIter0 =   /* Base timestep number  */
(PID.TID 0000.0001)                       0
(PID.TID 0000.0001)     ;
(PID.TID 0000.0001) nTimeSteps =   /* Number of timesteps */
(PID.TID 0000.0001)                       4
(PID.TID 0000.0001)     ;
(PID.TID 0000.0001) deltatTmom =   /* Momentum equation timestep ( s ) */
(PID.TID 0000.0001)                 3.600000000000000E+03
(PID.TID 0000.0001)     ;
(PID.TID 0000.0001) deltaTfreesurf =   /* FreeSurface equation timestep ( s ) */
(PID.TID 0000.0001)                 3.600000000000000E+03
(PID.TID 0000.0001)     ;
(PID.TID 0000.0001) deltatTtracer =   /* Tracer equation timestep ( s ) */
(PID.TID 0000.0001)                 3.600000000000000E+03
(PID.TID 0000.0001)     ;
(PID.TID 0000.0001) deltatTClock  =   /* Model clock timestep ( s ) */
(PID.TID 0000.0001)                 3.600000000000000E+03
(PID.TID 0000.0001)     ;
(PID.TID 0000.0001) cAdjFreq =   /* Convective adjustment interval ( s ) */
(PID.TID 0000.0001)                 0.000000000000000E+00
(PID.TID 0000.0001)     ;
(PID.TID 0000.0001) forcing_In_AB =   /* put T,S Forcing in Adams-Bash. stepping */
(PID.TID 0000.0001)                   T
(PID.TID 0000.0001)     ;
(PID.TID 0000.0001) abeps =   /* Adams-Bashforth stabilizing weight */
(PID.TID 0000.0001)                 1.000000000000000E-01
(PID.TID 0000.0001)     ;
(PID.TID 0000.0001) tauCD =   /* CD coupling time-scale ( s ) */
(PID.TID 0000.0001)                 1.728000000000000E+05
(PID.TID 0000.0001)     ;
(PID.TID 0000.0001) rCD =   /* Normalised CD coupling parameter */
(PID.TID 0000.0001)                 9.791666666666666E-01
(PID.TID 0000.0001)     ;
(PID.TID 0000.0001) startTime =   /* Run start time ( s ). */
(PID.TID 0000.0001)                 0.000000000000000E+00
(PID.TID 0000.0001)     ;
(PID.TID 0000.0001) endTime =   /* Integration ending time ( s ). */
(PID.TID 0000.0001)                 1.440000000000000E+04
(PID.TID 0000.0001)     ;
(PID.TID 0000.0001) pChkPtFreq =   /* Permanent restart/checkpoint file interval ( s ). */
(PID.TID 0000.0001)                 1.555200000000000E+07
(PID.TID 0000.0001)     ;
(PID.TID 0000.0001) chkPtFreq =   /* Rolling restart/checkpoint file interval ( s ). */
(PID.TID 0000.0001)                 1.555200000000000E+07
(PID.TID 0000.0001)     ;
(PID.TID 0000.0001) dumpFreq =   /* Model state write out interval ( s ). */
(PID.TID 0000.0001)                 8.640000000000000E+04
(PID.TID 0000.0001)     ;
(PID.TID 0000.0001) //
(PID.TID 0000.0001) // Gridding paramters ( PARM04 in namelist )
(PID.TID 0000.0001) //
(PID.TID 0000.0001) usingCartesianGrid =   /* Cartesian coordinates flag ( True / False ) */
(PID.TID 0000.0001)                   F
(PID.TID 0000.0001)     ;
(PID.TID 0000.0001) usingSphericalPolarGrid =   /* Spherical coordinates flag ( True / False ) */
(PID.TID 0000.0001)                   T
(PID.TID 0000.0001)     ;
(PID.TID 0000.0001) groundAtK1 =   /* Lower Boundary (ground) at the surface(k=1) ( T / F ) */
(PID.TID 0000.0001)                   F
(PID.TID 0000.0001)     ;
(PID.TID 0000.0001) Ro_SeaLevel =   /* r(1) ( units of r ) */
(PID.TID 0000.0001)                 0.000000000000000E+00
(PID.TID 0000.0001)     ;
(PID.TID 0000.0001) rkFac =   /* minus Vertical index orientation  */
(PID.TID 0000.0001)                 1.000000000000000E+00
(PID.TID 0000.0001)     ;
(PID.TID 0000.0001) horiVertRatio =   /* Ratio on units : Horiz - Vertical */
(PID.TID 0000.0001)                 1.000000000000000E+00
(PID.TID 0000.0001)     ;
(PID.TID 0000.0001) drC =   /* C spacing ( units of r ) */
(PID.TID 0000.0001)                 5.000000000000000E+00,      /* K =  1 */
(PID.TID 0000.0001)                 1.000000000000000E+01,      /* K =  2 */
(PID.TID 0000.0001)                 1.250000000000000E+01,      /* K =  3 */
(PID.TID 0000.0001)                 1.750000000000000E+01,      /* K =  4 */
(PID.TID 0000.0001)                 2.000000000000000E+01,      /* K =  5 */
(PID.TID 0000.0001)                 2.250000000000000E+01,      /* K =  6 */
(PID.TID 0000.0001)                 3.000000000000000E+01,      /* K =  7 */
(PID.TID 0000.0001)                 4.250000000000000E+01,      /* K =  8 */
(PID.TID 0000.0001)                 6.250000000000000E+01,      /* K =  9 */
(PID.TID 0000.0001)                 8.750000000000000E+01,      /* K = 10 */
(PID.TID 0000.0001)                 1.250000000000000E+02,      /* K = 11 */
(PID.TID 0000.0001)                 1.750000000000000E+02,      /* K = 12 */
(PID.TID 0000.0001)                 2.375000000000000E+02,      /* K = 13 */
(PID.TID 0000.0001)                 3.125000000000000E+02,      /* K = 14 */
(PID.TID 0000.0001)                 3.825000000000000E+02,      /* K = 15 */
(PID.TID 0000.0001)                 4.325000000000000E+02,      /* K = 16 */
(PID.TID 0000.0001)                 4.750000000000000E+02,      /* K = 17 */
(PID.TID 0000.0001)     6 @  5.000000000000000E+02              /* K = 18: 23 */
(PID.TID 0000.0001)     ;
(PID.TID 0000.0001) drF =   /* W spacing ( units of r ) */
(PID.TID 0000.0001)     2 @  1.000000000000000E+01,             /* K =  1:  2 */
(PID.TID 0000.0001)                 1.500000000000000E+01,      /* K =  3 */
(PID.TID 0000.0001)     2 @  2.000000000000000E+01,             /* K =  4:  5 */
(PID.TID 0000.0001)                 2.500000000000000E+01,      /* K =  6 */
(PID.TID 0000.0001)                 3.500000000000000E+01,      /* K =  7 */
(PID.TID 0000.0001)                 5.000000000000000E+01,      /* K =  8 */
(PID.TID 0000.0001)                 7.500000000000000E+01,      /* K =  9 */
(PID.TID 0000.0001)                 1.000000000000000E+02,      /* K = 10 */
(PID.TID 0000.0001)                 1.500000000000000E+02,      /* K = 11 */
(PID.TID 0000.0001)                 2.000000000000000E+02,      /* K = 12 */
(PID.TID 0000.0001)                 2.750000000000000E+02,      /* K = 13 */
(PID.TID 0000.0001)                 3.500000000000000E+02,      /* K = 14 */
(PID.TID 0000.0001)                 4.150000000000000E+02,      /* K = 15 */
(PID.TID 0000.0001)                 4.500000000000000E+02,      /* K = 16 */
(PID.TID 0000.0001)     7 @  5.000000000000000E+02              /* K = 17: 23 */
(PID.TID 0000.0001)     ;
(PID.TID 0000.0001) delX =   /* U spacing ( m - cartesian, degrees - spherical ) */
(PID.TID 0000.0001)    20 @  2.000000000000000E+00              /* I =  1: 20 */
(PID.TID 0000.0001)     ;
(PID.TID 0000.0001) delY =   /* V spacing ( m - cartesian, degrees - spherical ) */
(PID.TID 0000.0001)    16 @  2.000000000000000E+00              /* J =  1: 16 */
(PID.TID 0000.0001)     ;
(PID.TID 0000.0001) phiMin =    /* South edge (ignored - cartesian, degrees - spherical ) */
(PID.TID 0000.0001)                 1.000000000000000E+01
(PID.TID 0000.0001)     ;
(PID.TID 0000.0001) thetaMin =    /* West edge ( ignored - cartesian, degrees - spherical ) */
(PID.TID 0000.0001)                -4.200000000000000E+01
(PID.TID 0000.0001)     ;
(PID.TID 0000.0001) rSphere =    /* Radius ( ignored - cartesian, m - spherical ) */
(PID.TID 0000.0001)                 6.370000000000000E+06
(PID.TID 0000.0001)     ;
(PID.TID 0000.0001) xcoord =   /* P-point X coord ( m - cartesian, degrees - spherical ) */
(PID.TID 0000.0001)                -4.100000000000000E+01,      /* I =  1 */
(PID.TID 0000.0001)                -3.900000000000000E+01,      /* I =  2 */
(PID.TID 0000.0001)                -3.700000000000000E+01,      /* I =  3 */
(PID.TID 0000.0001)                -3.500000000000000E+01,      /* I =  4 */
(PID.TID 0000.0001)                -3.300000000000000E+01,      /* I =  5 */
(PID.TID 0000.0001)                -3.100000000000000E+01,      /* I =  6 */
(PID.TID 0000.0001)                -2.900000000000000E+01,      /* I =  7 */
(PID.TID 0000.0001)                -2.700000000000000E+01,      /* I =  8 */
(PID.TID 0000.0001)                -2.500000000000000E+01,      /* I =  9 */
(PID.TID 0000.0001)                -2.300000000000000E+01,      /* I = 10 */
(PID.TID 0000.0001)                -2.100000000000000E+01,      /* I = 11 */
(PID.TID 0000.0001)                -1.900000000000000E+01,      /* I = 12 */
(PID.TID 0000.0001)                -1.700000000000000E+01,      /* I = 13 */
(PID.TID 0000.0001)                -1.500000000000000E+01,      /* I = 14 */
(PID.TID 0000.0001)                -1.300000000000000E+01,      /* I = 15 */
(PID.TID 0000.0001)                -1.100000000000000E+01,      /* I = 16 */
(PID.TID 0000.0001)                -9.000000000000000E+00,      /* I = 17 */
(PID.TID 0000.0001)                -7.000000000000000E+00,      /* I = 18 */
(PID.TID 0000.0001)                -5.000000000000000E+00,      /* I = 19 */
(PID.TID 0000.0001)                -3.000000000000000E+00       /* I = 20 */
(PID.TID 0000.0001)     ;
(PID.TID 0000.0001) ycoord =   /* P-point Y coord ( m - cartesian, degrees - spherical ) */
(PID.TID 0000.0001)                 1.100000000000000E+01,      /* J =  1 */
(PID.TID 0000.0001)                 1.300000000000000E+01,      /* J =  2 */
(PID.TID 0000.0001)                 1.500000000000000E+01,      /* J =  3 */
(PID.TID 0000.0001)                 1.700000000000000E+01,      /* J =  4 */
(PID.TID 0000.0001)                 1.900000000000000E+01,      /* J =  5 */
(PID.TID 0000.0001)                 2.100000000000000E+01,      /* J =  6 */
(PID.TID 0000.0001)                 2.300000000000000E+01,      /* J =  7 */
(PID.TID 0000.0001)                 2.500000000000000E+01,      /* J =  8 */
(PID.TID 0000.0001)                 2.700000000000000E+01,      /* J =  9 */
(PID.TID 0000.0001)                 2.900000000000000E+01,      /* J = 10 */
(PID.TID 0000.0001)                 3.100000000000000E+01,      /* J = 11 */
(PID.TID 0000.0001)                 3.300000000000000E+01,      /* J = 12 */
(PID.TID 0000.0001)                 3.500000000000000E+01,      /* J = 13 */
(PID.TID 0000.0001)                 3.700000000000000E+01,      /* J = 14 */
(PID.TID 0000.0001)                 3.900000000000000E+01,      /* J = 15 */
(PID.TID 0000.0001)                 4.100000000000000E+01       /* J = 16 */
(PID.TID 0000.0001)     ;
(PID.TID 0000.0001) rcoord =   /* P-point R coordinate (  units of r ) */
(PID.TID 0000.0001)                -5.000000000000000E+00,      /* K =  1 */
(PID.TID 0000.0001)                -1.500000000000000E+01,      /* K =  2 */
(PID.TID 0000.0001)                -2.750000000000000E+01,      /* K =  3 */
(PID.TID 0000.0001)                -4.500000000000000E+01,      /* K =  4 */
(PID.TID 0000.0001)                -6.500000000000000E+01,      /* K =  5 */
(PID.TID 0000.0001)                -8.750000000000000E+01,      /* K =  6 */
(PID.TID 0000.0001)                -1.175000000000000E+02,      /* K =  7 */
(PID.TID 0000.0001)                -1.600000000000000E+02,      /* K =  8 */
(PID.TID 0000.0001)                -2.225000000000000E+02,      /* K =  9 */
(PID.TID 0000.0001)                -3.100000000000000E+02,      /* K = 10 */
(PID.TID 0000.0001)                -4.350000000000000E+02,      /* K = 11 */
(PID.TID 0000.0001)                -6.100000000000000E+02,      /* K = 12 */
(PID.TID 0000.0001)                -8.475000000000000E+02,      /* K = 13 */
(PID.TID 0000.0001)                -1.160000000000000E+03,      /* K = 14 */
(PID.TID 0000.0001)                -1.542500000000000E+03,      /* K = 15 */
(PID.TID 0000.0001)                -1.975000000000000E+03,      /* K = 16 */
(PID.TID 0000.0001)                -2.450000000000000E+03,      /* K = 17 */
(PID.TID 0000.0001)                -2.950000000000000E+03,      /* K = 18 */
(PID.TID 0000.0001)                -3.450000000000000E+03,      /* K = 19 */
(PID.TID 0000.0001)                -3.950000000000000E+03,      /* K = 20 */
(PID.TID 0000.0001)                -4.450000000000000E+03,      /* K = 21 */
(PID.TID 0000.0001)                -4.950000000000000E+03,      /* K = 22 */
(PID.TID 0000.0001)                -5.450000000000000E+03       /* K = 23 */
(PID.TID 0000.0001)     ;
(PID.TID 0000.0001) rF =   /* W-Interf. R coordinate (  units of r ) */
(PID.TID 0000.0001)                 0.000000000000000E+00,      /* K =  1 */
(PID.TID 0000.0001)                -1.000000000000000E+01,      /* K =  2 */
(PID.TID 0000.0001)                -2.000000000000000E+01,      /* K =  3 */
(PID.TID 0000.0001)                -3.500000000000000E+01,      /* K =  4 */
(PID.TID 0000.0001)                -5.500000000000000E+01,      /* K =  5 */
(PID.TID 0000.0001)                -7.500000000000000E+01,      /* K =  6 */
(PID.TID 0000.0001)                -1.000000000000000E+02,      /* K =  7 */
(PID.TID 0000.0001)                -1.350000000000000E+02,      /* K =  8 */
(PID.TID 0000.0001)                -1.850000000000000E+02,      /* K =  9 */
(PID.TID 0000.0001)                -2.600000000000000E+02,      /* K = 10 */
(PID.TID 0000.0001)                -3.600000000000000E+02,      /* K = 11 */
(PID.TID 0000.0001)                -5.100000000000000E+02,      /* K = 12 */
(PID.TID 0000.0001)                -7.100000000000000E+02,      /* K = 13 */
(PID.TID 0000.0001)                -9.850000000000000E+02,      /* K = 14 */
(PID.TID 0000.0001)                -1.335000000000000E+03,      /* K = 15 */
(PID.TID 0000.0001)                -1.750000000000000E+03,      /* K = 16 */
(PID.TID 0000.0001)                -2.200000000000000E+03,      /* K = 17 */
(PID.TID 0000.0001)                -2.700000000000000E+03,      /* K = 18 */
(PID.TID 0000.0001)                -3.200000000000000E+03,      /* K = 19 */
(PID.TID 0000.0001)                -3.700000000000000E+03,      /* K = 20 */
(PID.TID 0000.0001)                -4.200000000000000E+03,      /* K = 21 */
(PID.TID 0000.0001)                -4.700000000000000E+03,      /* K = 22 */
(PID.TID 0000.0001)                -5.200000000000000E+03,      /* K = 23 */
(PID.TID 0000.0001)                -5.700000000000000E+03       /* K = 24 */
(PID.TID 0000.0001)     ;
(PID.TID 0000.0001) dxF =  /* dxF(:,1,:,1) ( m - cartesian, degrees - spherical ) */
(PID.TID 0000.0001)    20 @  2.182696600587791E+05              /* I =  1: 20 */
(PID.TID 0000.0001)     ;
(PID.TID 0000.0001) dxF =  /* dxF(1,:,1,:) ( m - cartesian, degrees - spherical ) */
(PID.TID 0000.0001)                 2.182696600587791E+05,      /* J =  1 */
(PID.TID 0000.0001)                 2.166560038253696E+05,      /* J =  2 */
(PID.TID 0000.0001)                 2.147783856245979E+05,      /* J =  3 */
(PID.TID 0000.0001)                 2.126390930450167E+05,      /* J =  4 */
(PID.TID 0000.0001)                 2.102407324851014E+05,      /* J =  5 */
(PID.TID 0000.0001)                 2.075862259777553E+05,      /* J =  6 */
(PID.TID 0000.0001)                 2.046788076302621E+05,      /* J =  7 */
(PID.TID 0000.0001)                 2.015220196840248E+05,      /* J =  8 */
(PID.TID 0000.0001)                 1.981197081988899E+05,      /* J =  9 */
(PID.TID 0000.0001)                 1.944760183673163E+05,      /* J = 10 */
(PID.TID 0000.0001)                 1.905953894640962E+05,      /* J = 11 */
(PID.TID 0000.0001)                 1.864825494377833E+05,      /* J = 12 */
(PID.TID 0000.0001)                 1.821425091504150E+05,      /* J = 13 */
(PID.TID 0000.0001)                 1.775805562725496E+05,      /* J = 14 */
(PID.TID 0000.0001)                 1.728022488410539E+05,      /* J = 15 */
(PID.TID 0000.0001)                 1.678134084874912E+05       /* J = 16 */
(PID.TID 0000.0001)     ;
(PID.TID 0000.0001) dyF =  /* dyF(:,1,:,1) ( m - cartesian, degrees - spherical ) */
(PID.TID 0000.0001)    20 @  2.223549467040776E+05              /* I =  1: 20 */
(PID.TID 0000.0001)     ;
(PID.TID 0000.0001) dyF =  /* dyF(1,:,1,:) ( m - cartesian, degrees - spherical ) */
(PID.TID 0000.0001)    16 @  2.223549467040776E+05              /* J =  1: 16 */
(PID.TID 0000.0001)     ;
(PID.TID 0000.0001) dxG =  /* dxG(:,1,:,1) ( m - cartesian, degrees - spherical ) */
(PID.TID 0000.0001)    20 @  2.189768754347919E+05              /* I =  1: 20 */
(PID.TID 0000.0001)     ;
(PID.TID 0000.0001) dxG =  /* dxG(1,:,1,:) ( m - cartesian, degrees - spherical ) */
(PID.TID 0000.0001)                 2.189768754347919E+05,      /* J =  1 */
(PID.TID 0000.0001)                 2.174959576298867E+05,      /* J =  2 */
(PID.TID 0000.0001)                 2.157500545032934E+05,      /* J =  3 */
(PID.TID 0000.0001)                 2.137412931690361E+05,      /* J =  4 */
(PID.TID 0000.0001)                 2.114721209933746E+05,      /* J =  5 */
(PID.TID 0000.0001)                 2.089453026130656E+05,      /* J =  6 */
(PID.TID 0000.0001)                 2.061639165670792E+05,      /* J =  7 */
(PID.TID 0000.0001)                 2.031313515458727E+05,      /* J =  8 */
(PID.TID 0000.0001)                 1.998513022627935E+05,      /* J =  9 */
(PID.TID 0000.0001)                 1.963277649526403E+05,      /* J = 10 */
(PID.TID 0000.0001)                 1.925650325028661E+05,      /* J = 11 */
(PID.TID 0000.0001)                 1.885676892233566E+05,      /* J = 12 */
(PID.TID 0000.0001)                 1.843406052611542E+05,      /* J = 13 */
(PID.TID 0000.0001)                 1.798889306669345E+05,      /* J = 14 */
(PID.TID 0000.0001)                 1.752180891204627E+05,      /* J = 15 */
(PID.TID 0000.0001)                 1.703337713226752E+05       /* J = 16 */
(PID.TID 0000.0001)     ;
(PID.TID 0000.0001) dyG =  /* dyG(:,1,:,1) ( m - cartesian, degrees - spherical ) */
(PID.TID 0000.0001)    20 @  2.223549467040776E+05              /* I =  1: 20 */
(PID.TID 0000.0001)     ;
(PID.TID 0000.0001) dyG =  /* dyG(1,:,1,:) ( m - cartesian, degrees - spherical ) */
(PID.TID 0000.0001)    16 @  2.223549467040776E+05              /* J =  1: 16 */
(PID.TID 0000.0001)     ;
(PID.TID 0000.0001) dxC =  /* dxC(:,1,:,1) ( m - cartesian, degrees - spherical ) */
(PID.TID 0000.0001)    20 @  2.182696600587791E+05              /* I =  1: 20 */
(PID.TID 0000.0001)     ;
(PID.TID 0000.0001) dxC =  /* dxC(1,:,1,:) ( m - cartesian, degrees - spherical ) */
(PID.TID 0000.0001)                 2.182696600587791E+05,      /* J =  1 */
(PID.TID 0000.0001)                 2.166560038253696E+05,      /* J =  2 */
(PID.TID 0000.0001)                 2.147783856245979E+05,      /* J =  3 */
(PID.TID 0000.0001)                 2.126390930450167E+05,      /* J =  4 */
(PID.TID 0000.0001)                 2.102407324851014E+05,      /* J =  5 */
(PID.TID 0000.0001)                 2.075862259777553E+05,      /* J =  6 */
(PID.TID 0000.0001)                 2.046788076302621E+05,      /* J =  7 */
(PID.TID 0000.0001)                 2.015220196840248E+05,      /* J =  8 */
(PID.TID 0000.0001)                 1.981197081988899E+05,      /* J =  9 */
(PID.TID 0000.0001)                 1.944760183673163E+05,      /* J = 10 */
(PID.TID 0000.0001)                 1.905953894640962E+05,      /* J = 11 */
(PID.TID 0000.0001)                 1.864825494377833E+05,      /* J = 12 */
(PID.TID 0000.0001)                 1.821425091504150E+05,      /* J = 13 */
(PID.TID 0000.0001)                 1.775805562725496E+05,      /* J = 14 */
(PID.TID 0000.0001)                 1.728022488410539E+05,      /* J = 15 */
(PID.TID 0000.0001)                 1.678134084874912E+05       /* J = 16 */
(PID.TID 0000.0001)     ;
(PID.TID 0000.0001) dyC =  /* dyC(:,1,:,1) ( m - cartesian, degrees - spherical ) */
(PID.TID 0000.0001)    20 @  2.223549467040776E+05              /* I =  1: 20 */
(PID.TID 0000.0001)     ;
(PID.TID 0000.0001) dyC =  /* dyC(1,:,1,:) ( m - cartesian, degrees - spherical ) */
(PID.TID 0000.0001)    16 @  2.223549467040776E+05              /* J =  1: 16 */
(PID.TID 0000.0001)     ;
(PID.TID 0000.0001) dxV =  /* dxV(:,1,:,1) ( m - cartesian, degrees - spherical ) */
(PID.TID 0000.0001)    20 @  2.189768754347919E+05              /* I =  1: 20 */
(PID.TID 0000.0001)     ;
(PID.TID 0000.0001) dxV =  /* dxV(1,:,1,:) ( m - cartesian, degrees - spherical ) */
(PID.TID 0000.0001)                 2.189768754347919E+05,      /* J =  1 */
(PID.TID 0000.0001)                 2.174959576298867E+05,      /* J =  2 */
(PID.TID 0000.0001)                 2.157500545032934E+05,      /* J =  3 */
(PID.TID 0000.0001)                 2.137412931690361E+05,      /* J =  4 */
(PID.TID 0000.0001)                 2.114721209933746E+05,      /* J =  5 */
(PID.TID 0000.0001)                 2.089453026130656E+05,      /* J =  6 */
(PID.TID 0000.0001)                 2.061639165670792E+05,      /* J =  7 */
(PID.TID 0000.0001)                 2.031313515458727E+05,      /* J =  8 */
(PID.TID 0000.0001)                 1.998513022627935E+05,      /* J =  9 */
(PID.TID 0000.0001)                 1.963277649526403E+05,      /* J = 10 */
(PID.TID 0000.0001)                 1.925650325028661E+05,      /* J = 11 */
(PID.TID 0000.0001)                 1.885676892233566E+05,      /* J = 12 */
(PID.TID 0000.0001)                 1.843406052611542E+05,      /* J = 13 */
(PID.TID 0000.0001)                 1.798889306669345E+05,      /* J = 14 */
(PID.TID 0000.0001)                 1.752180891204627E+05,      /* J = 15 */
(PID.TID 0000.0001)                 1.703337713226752E+05       /* J = 16 */
(PID.TID 0000.0001)     ;
(PID.TID 0000.0001) dyU =  /* dyU(:,1,:,1) ( m - cartesian, degrees - spherical ) */
(PID.TID 0000.0001)    20 @  2.223549467040776E+05              /* I =  1: 20 */
(PID.TID 0000.0001)     ;
(PID.TID 0000.0001) dyU =  /* dyU(1,:,1,:) ( m - cartesian, degrees - spherical ) */
(PID.TID 0000.0001)    16 @  2.223549467040776E+05              /* J =  1: 16 */
(PID.TID 0000.0001)     ;
(PID.TID 0000.0001) rA =  /* rA(:,1,:,1) ( m - cartesian, degrees - spherical ) */
(PID.TID 0000.0001)    20 @  4.853087465028468E+10              /* I =  1: 20 */
(PID.TID 0000.0001)     ;
(PID.TID 0000.0001) rA =  /* rA(1,:,1,:) ( m - cartesian, degrees - spherical ) */
(PID.TID 0000.0001)                 4.853087465028468E+10,      /* J =  1 */
(PID.TID 0000.0001)                 4.817208842057613E+10,      /* J =  2 */
(PID.TID 0000.0001)                 4.775461192146853E+10,      /* J =  3 */
(PID.TID 0000.0001)                 4.727895378376868E+10,      /* J =  4 */
(PID.TID 0000.0001)                 4.674569352364783E+10,      /* J =  5 */
(PID.TID 0000.0001)                 4.615548083659052E+10,      /* J =  6 */
(PID.TID 0000.0001)                 4.550903480584068E+10,      /* J =  7 */
(PID.TID 0000.0001)                 4.480714302630919E+10,      /* J =  8 */
(PID.TID 0000.0001)                 4.405066064501150E+10,      /* J =  9 */
(PID.TID 0000.0001)                 4.324050931920189E+10,      /* J = 10 */
(PID.TID 0000.0001)                 4.237767609347689E+10,      /* J = 11 */
(PID.TID 0000.0001)                 4.146321219721243E+10,      /* J = 12 */
(PID.TID 0000.0001)                 4.049823176380376E+10,      /* J = 13 */
(PID.TID 0000.0001)                 3.948391047326554E+10,      /* J = 14 */
(PID.TID 0000.0001)                 3.842148411984555E+10,      /* J = 15 */
(PID.TID 0000.0001)                 3.731224710640170E+10       /* J = 16 */
(PID.TID 0000.0001)     ;
(PID.TID 0000.0001) rAw =  /* rAw(:,1,:,1) ( m - cartesian, degrees - spherical ) */
(PID.TID 0000.0001)    20 @  4.853087465028468E+10              /* I =  1: 20 */
(PID.TID 0000.0001)     ;
(PID.TID 0000.0001) rAw =  /* rAw(1,:,1,:) ( m - cartesian, degrees - spherical ) */
(PID.TID 0000.0001)                 4.853087465028468E+10,      /* J =  1 */
(PID.TID 0000.0001)                 4.817208842057613E+10,      /* J =  2 */
(PID.TID 0000.0001)                 4.775461192146853E+10,      /* J =  3 */
(PID.TID 0000.0001)                 4.727895378376868E+10,      /* J =  4 */
(PID.TID 0000.0001)                 4.674569352364783E+10,      /* J =  5 */
(PID.TID 0000.0001)                 4.615548083659052E+10,      /* J =  6 */
(PID.TID 0000.0001)                 4.550903480584068E+10,      /* J =  7 */
(PID.TID 0000.0001)                 4.480714302630919E+10,      /* J =  8 */
(PID.TID 0000.0001)                 4.405066064501150E+10,      /* J =  9 */
(PID.TID 0000.0001)                 4.324050931920189E+10,      /* J = 10 */
(PID.TID 0000.0001)                 4.237767609347689E+10,      /* J = 11 */
(PID.TID 0000.0001)                 4.146321219721243E+10,      /* J = 12 */
(PID.TID 0000.0001)                 4.049823176380376E+10,      /* J = 13 */
(PID.TID 0000.0001)                 3.948391047326554E+10,      /* J = 14 */
(PID.TID 0000.0001)                 3.842148411984555E+10,      /* J = 15 */
(PID.TID 0000.0001)                 3.731224710640170E+10       /* J = 16 */
(PID.TID 0000.0001)     ;
(PID.TID 0000.0001) rAs =  /* rAs(:,1,:,1) ( m - cartesian, degrees - spherical ) */
(PID.TID 0000.0001)    20 @  4.868811950398895E+10              /* I =  1: 20 */
(PID.TID 0000.0001)     ;
(PID.TID 0000.0001) rAs =  /* rAs(1,:,1,:) ( m - cartesian, degrees - spherical ) */
(PID.TID 0000.0001)                 4.868811950398895E+10,      /* J =  1 */
(PID.TID 0000.0001)                 4.835884682203275E+10,      /* J =  2 */
(PID.TID 0000.0001)                 4.797065633433311E+10,      /* J =  3 */
(PID.TID 0000.0001)                 4.752402099120341E+10,      /* J =  4 */
(PID.TID 0000.0001)                 4.701948494900998E+10,      /* J =  5 */
(PID.TID 0000.0001)                 4.645766290720268E+10,      /* J =  6 */
(PID.TID 0000.0001)                 4.583923935939733E+10,      /* J =  7 */
(PID.TID 0000.0001)                 4.516496775942609E+10,      /* J =  8 */
(PID.TID 0000.0001)                 4.443566960336993E+10,      /* J =  9 */
(PID.TID 0000.0001)                 4.365223342869232E+10,      /* J = 10 */
(PID.TID 0000.0001)                 4.281561373169274E+10,      /* J = 11 */
(PID.TID 0000.0001)                 4.192682980460106E+10,      /* J = 12 */
(PID.TID 0000.0001)                 4.098696449372525E+10,      /* J = 13 */
(PID.TID 0000.0001)                 3.999716288017197E+10,      /* J = 14 */
(PID.TID 0000.0001)                 3.895863088473959E+10,      /* J = 15 */
(PID.TID 0000.0001)                 3.787263379869144E+10       /* J = 16 */
(PID.TID 0000.0001)     ;
(PID.TID 0000.0001) 
(PID.TID 0000.0001)  MDSREADFIELD_GL: opening file: hFacC.001.001.data
(PID.TID 0000.0001)  MDSREADFIELD_GL: opening file: xx_theta.0000000000.001.001.data
(PID.TID 0000.0001)  MDSREADFIELD_GL: opening file: hFacC.001.001.data
(PID.TID 0000.0001)  MDSREADFIELD_GL: opening file: xx_salt.0000000000.001.001.data
(PID.TID 0000.0001)  MDSREADFIELD_GL: opening file: whflux.001.001.data
(PID.TID 0000.0001)  MDSREADFIELD_GL: opening file: hFacC.001.001.data
(PID.TID 0000.0001)  MDSREADFIELD_GL: opening file: xx_hfl.0000000000.001.001.data
(PID.TID 0000.0001)  MDSREADFIELD_GL: opening file: xx_hfl.0000000000.001.001.data
(PID.TID 0000.0001)  MDSREADFIELD_GL: opening file: wsflux.001.001.data
(PID.TID 0000.0001)  MDSREADFIELD_GL: opening file: hFacC.001.001.data
(PID.TID 0000.0001)  MDSREADFIELD_GL: opening file: xx_sfl.0000000000.001.001.data
(PID.TID 0000.0001)  MDSREADFIELD_GL: opening file: xx_sfl.0000000000.001.001.data
(PID.TID 0000.0001)  MDSREADFIELD_GL: opening file: wtauu.001.001.data
(PID.TID 0000.0001)  MDSREADFIELD_GL: opening file: maskW.001.001.data
(PID.TID 0000.0001)  MDSREADFIELD_GL: opening file: xx_tauu.0000000000.001.001.data
(PID.TID 0000.0001)  MDSREADFIELD_GL: opening file: xx_tauu.0000000000.001.001.data
(PID.TID 0000.0001)  MDSREADFIELD_GL: opening file: wtauv.001.001.data
(PID.TID 0000.0001)  MDSREADFIELD_GL: opening file: maskS.001.001.data
(PID.TID 0000.0001)  MDSREADFIELD_GL: opening file: xx_tauv.0000000000.001.001.data
(PID.TID 0000.0001)  MDSREADFIELD_GL: opening file: xx_tauv.0000000000.001.001.data
(PID.TID 0000.0001) %MON fCori_max                    =   9.5419917861011E-05
(PID.TID 0000.0001) %MON fCori_min                    =   2.7752043431195E-05
(PID.TID 0000.0001) %MON fCori_mean                   =   6.2936249243167E-05
(PID.TID 0000.0001) %MON fCori_sd                     =   2.0885809702547E-05
(PID.TID 0000.0001) %MON fCoriG_max                   =   9.3489668167119E-05
(PID.TID 0000.0001) %MON fCoriG_min                   =   2.5256103669800E-05
(PID.TID 0000.0001) %MON fCoriG_mean                  =   6.0674632558389E-05
(PID.TID 0000.0001) %MON fCoriG_sd                    =   2.1059305790472E-05
(PID.TID 0000.0001) %MON fCoriCos_max                 =   1.4277188648533E-04
(PID.TID 0000.0001) %MON fCoriCos_min                 =   1.0976805892693E-04
(PID.TID 0000.0001) %MON fCoriCos_mean                =   1.2903843359786E-04
(PID.TID 0000.0001) %MON fCoriCos_sd                  =   1.0289879691716E-05
(PID.TID 0000.0001) // CG2D normalisation factor =          0.1575292392863445389492028E-03
(PID.TID 0000.0001) 
(PID.TID 0000.0001)  MDSREADFIELD: opening global file: PH_LevCli.ptmp__020_016_23.data
(PID.TID 0000.0001) // =======================================================
(PID.TID 0000.0001) // Field Initial Temperature at iteration          1
(PID.TID 0000.0001) // CMIN =          1.840084838867188E+01
(PID.TID 0000.0001) // CMAX =          2.607793426513672E+01
(PID.TID 0000.0001) // CINT =          2.843365139431424E-01
(PID.TID 0000.0001) // SYMBOLS (CMIN->CMAX): -abcdefghijklmnopqrstuvwxyz+
(PID.TID 0000.0001) //                  0.0: .
(PID.TID 0000.0001) // RANGE I (Lo:Hi:Step):(   1:  20:   1)
(PID.TID 0000.0001) // RANGE J (Lo:Hi:Step):(  16:   1:  -1)
(PID.TID 0000.0001) // RANGE K (Lo:Hi:Step):(   1:   1:   1)
(PID.TID 0000.0001) // =======================================================
(PID.TID 0000.0001) K =   1
(PID.TID 0000.0001)                I=10      I=20
(PID.TID 0000.0001) |--J--|123456789|123456789|
(PID.TID 0000.0001)     16 ....................
(PID.TID 0000.0001)     15 .jihhgfeedddcba---a.
(PID.TID 0000.0001)     14 .kjiihggffeedcbbabb.
(PID.TID 0000.0001)     13 .lkkjiiiihgfedccbc..
(PID.TID 0000.0001)     12 .mllkkjjjihgfedcc...
(PID.TID 0000.0001)     11 .onnmmllkjihgfeec...
(PID.TID 0000.0001)     10 .rrqqponmmlkihf.....
(PID.TID 0000.0001)      9 .utssrqponmljh......
(PID.TID 0000.0001)      8 .vuttsrqponlig......
(PID.TID 0000.0001)      7 .vuutsrrponkif......
(PID.TID 0000.0001)      6 .wvvuutsrqomjh......
(PID.TID 0000.0001)      5 .yxwwwvutsrpnl......
(PID.TID 0000.0001)      4 .zyyyxxwwvutrq......
(PID.TID 0000.0001)      3 .zzzzyyxxxxwvu......
(PID.TID 0000.0001)      2 .+++++zzz+++zy......
(PID.TID 0000.0001)      1 ....................
(PID.TID 0000.0001) // =======================================================
(PID.TID 0000.0001) // END OF FIELD                                          =
(PID.TID 0000.0001) // =======================================================
(PID.TID 0000.0001) 
(PID.TID 0000.0001)  MDSREADFIELD: opening global file: PH_LevCli.salt__020_016_23.data
(PID.TID 0000.0001) // =======================================================
(PID.TID 0000.0001) // Field Initial Salinity at iteration          1
(PID.TID 0000.0001) // CMIN =          3.501070022583008E+01
(PID.TID 0000.0001) // CMAX =          3.739887619018555E+01
(PID.TID 0000.0001) // CINT =          8.845096164279515E-02
(PID.TID 0000.0001) // SYMBOLS (CMIN->CMAX): -abcdefghijklmnopqrstuvwxyz+
(PID.TID 0000.0001) //                  0.0: .
(PID.TID 0000.0001) // RANGE I (Lo:Hi:Step):(   1:  20:   1)
(PID.TID 0000.0001) // RANGE J (Lo:Hi:Step):(  16:   1:  -1)
(PID.TID 0000.0001) // RANGE K (Lo:Hi:Step):(   1:   1:   1)
(PID.TID 0000.0001) // =======================================================
(PID.TID 0000.0001) K =   1
(PID.TID 0000.0001)                I=10      I=20
(PID.TID 0000.0001) |--J--|123456789|123456789|
(PID.TID 0000.0001)     16 ....................
(PID.TID 0000.0001)     15 .oonnnnmmnnnnnnmllk.
(PID.TID 0000.0001)     14 .ppppoooopppppppooo.
(PID.TID 0000.0001)     13 .qqqqqrrrrrrqqqqqq..
(PID.TID 0000.0001)     12 .tttttttttttssrqp...
(PID.TID 0000.0001)     11 .wwwwwwvvvvuusrpn...
(PID.TID 0000.0001)     10 .zzyyyyyxxwvusr.....
(PID.TID 0000.0001)      9 .++zzzzyxxwutr......
(PID.TID 0000.0001)      8 .+zzyyyxwvusrp......
(PID.TID 0000.0001)      7 .xxxxwwutsrpnm......
(PID.TID 0000.0001)      6 .uuuuutsqponlj......
(PID.TID 0000.0001)      5 .rrrrqqponmkji......
(PID.TID 0000.0001)      4 .poooonmmlkihg......
(PID.TID 0000.0001)      3 .mmlllllkjihec......
(PID.TID 0000.0001)      2 .jjjkkkjjihfd-......
(PID.TID 0000.0001)      1 ....................
(PID.TID 0000.0001) // =======================================================
(PID.TID 0000.0001) // END OF FIELD                                          =
(PID.TID 0000.0001) // =======================================================
(PID.TID 0000.0001) 
(PID.TID 0000.0001) Start initial hydrostatic pressure computation
(PID.TID 0000.0001) Pressure is predetermined for buoyancyRelation OCEANIC
(PID.TID 0000.0001) 
(PID.TID 0000.0001)  MDSREADFIELD: opening file: xx_theta.0000000000.001.001.data
(PID.TID 0000.0001)  MDSREADFIELD: opening file: xx_salt.0000000000.001.001.data
(PID.TID 0000.0001)  MDSREADFIELD: opening file: xx_hfl.0000000000.001.001.data
(PID.TID 0000.0001)  MDSREADFIELD: opening file: xx_hfl.0000000000.001.001.data
(PID.TID 0000.0001)  MDSREADFIELD: opening file: xx_hfl.0000000000.001.001.data
(PID.TID 0000.0001)  MDSREADFIELD: opening file: xx_hfl.0000000000.001.001.data
(PID.TID 0000.0001)  MDSREADFIELD: opening file: xx_sfl.0000000000.001.001.data
(PID.TID 0000.0001)  MDSREADFIELD: opening file: xx_sfl.0000000000.001.001.data
(PID.TID 0000.0001)  MDSREADFIELD: opening file: xx_sfl.0000000000.001.001.data
(PID.TID 0000.0001)  MDSREADFIELD: opening file: xx_sfl.0000000000.001.001.data
(PID.TID 0000.0001)  MDSREADFIELD: opening file: xx_tauu.0000000000.001.001.data
(PID.TID 0000.0001)  MDSREADFIELD: opening file: xx_tauu.0000000000.001.001.data
(PID.TID 0000.0001)  MDSREADFIELD: opening file: xx_tauu.0000000000.001.001.data
(PID.TID 0000.0001)  MDSREADFIELD: opening file: xx_tauu.0000000000.001.001.data
(PID.TID 0000.0001)  MDSREADFIELD: opening file: xx_tauv.0000000000.001.001.data
(PID.TID 0000.0001)  MDSREADFIELD: opening file: xx_tauv.0000000000.001.001.data
(PID.TID 0000.0001)  MDSREADFIELD: opening file: xx_tauv.0000000000.001.001.data
(PID.TID 0000.0001)  MDSREADFIELD: opening file: xx_tauv.0000000000.001.001.data
(PID.TID 0000.0001)  MDS_WRITE_RL_VEC: irec =  00000001   00015456
(PID.TID 0000.0001)  MDS_WRITE_RL_VEC: irec =  00000001   00015456
(PID.TID 0000.0001)  MDS_WRITE_RL_VEC: irec =  00000001   00015456
(PID.TID 0000.0001)  MDS_WRITE_RL_VEC: irec =  00000001   00015456
(PID.TID 0000.0001)  MDS_WRITE_RL_VEC: irec =  00000001   00015456
(PID.TID 0000.0001)  MDS_WRITE_RL_VEC: irec =  00000001   00015456
(PID.TID 0000.0001)  MDS_WRITE_RL_VEC: irec =  00000001   00015456
(PID.TID 0000.0001)  MDS_WRITE_RL_VEC: irec =  00000001   00015456
(PID.TID 0000.0001)  MDS_WRITE_RL_VEC: irec =  00000001   00015456
(PID.TID 0000.0001)  MDS_WRITE_RL_VEC: irec =  00000001   00000672
(PID.TID 0000.0001)  MDS_WRITE_RL_VEC: irec =  00000001   00015456
(PID.TID 0000.0001)  MDS_WRITE_RL_VEC: irec =  00000001   00015456
(PID.TID 0000.0001)  MDS_WRITE_RL_VEC: irec =  00000001   00015456
(PID.TID 0000.0001)  MDS_WRITE_RL_VEC: irec =  00000001   00000672
(PID.TID 0000.0001)  MDS_WRITE_RL_VEC: irec =  00000001   00015456
(PID.TID 0000.0001)  MDS_WRITE_RL_VEC: irec =  00000001   00015456
(PID.TID 0000.0001)  MDS_WRITE_RL_VEC: irec =  00000001   00000672
(PID.TID 0000.0001)  MDS_WRITE_RL_VEC: irec =  00000001   00015456
(PID.TID 0000.0001)  MDS_WRITE_RL_VEC: irec =  00000001   00015456
(PID.TID 0000.0001)  MDS_WRITE_RL_VEC: irec =  00000001   00000672
(PID.TID 0000.0001)  MDS_WRITE_RL_VEC: irec =  00000001   00000672
(PID.TID 0000.0001)  MDS_WRITE_RL_VEC: irec =  00000001   00000672
(PID.TID 0000.0001)  MDS_WRITE_RL_VEC: irec =  00000001   00000672
(PID.TID 0000.0001)  MDS_WRITE_RL_VEC: irec =  00000001   00000672
(PID.TID 0000.0001)  MDS_WRITE_RL_VEC: irec =  00000001   00000672
(PID.TID 0000.0001)  MDS_WRITE_RL_VEC: irec =  00000001   00000672
(PID.TID 0000.0001)  MDS_WRITE_RL_VEC: irec =  00000001   00000672
(PID.TID 0000.0001)  MDS_WRITE_RL_VEC: irec =  00000001   00000672
(PID.TID 0000.0001)  MDS_WRITE_RL_VEC: irec =  00000001   00000672
(PID.TID 0000.0001)  MDS_WRITE_RL_VEC: irec =  00000001   00000672
(PID.TID 0000.0001)  MDS_WRITE_RL_VEC: irec =  00000001   00000672
(PID.TID 0000.0001)  MDS_WRITE_RL_VEC: irec =  00000001   00000672
(PID.TID 0000.0001)  MDS_WRITE_RL_VEC: irec =  00000001   00000672
(PID.TID 0000.0001)  MDS_WRITE_RL_VEC: irec =  00000001   00000672
(PID.TID 0000.0001)  MDS_WRITE_RL_VEC: irec =  00000001   00000672
(PID.TID 0000.0001)  MDS_WRITE_RL_VEC: irec =  00000001   00000672
(PID.TID 0000.0001)  MDS_WRITE_RL_VEC: irec =  00000001   00000672
(PID.TID 0000.0001)  MDS_WRITE_RL_VEC: irec =  00000001   00000672
(PID.TID 0000.0001)  MDS_WRITE_RL_VEC: irec =  00000001   00000672
(PID.TID 0000.0001) 
(PID.TID 0000.0001)  exf_GetFFieldsRec: first, changed, fac:   T   F   0.16666667E+00
(PID.TID 0000.0001)  exf_GetFFieldsRec:      count0, count1:   2   3
(PID.TID 0000.0001) 
(PID.TID 0000.0001)  MDSREADFIELD: opening global file: PH_ustress__020_016_23.data
(PID.TID 0000.0001)  MDSREADFIELD: opening global file: PH_ustress__020_016_23.data
(PID.TID 0000.0001) 
(PID.TID 0000.0001)  exf_GetFFieldsRec: first, changed, fac:   T   F   0.16666667E+00
(PID.TID 0000.0001)  exf_GetFFieldsRec:      count0, count1:   2   3
(PID.TID 0000.0001) 
(PID.TID 0000.0001)  MDSREADFIELD: opening global file: PH_vstress__020_016_23.data
(PID.TID 0000.0001)  MDSREADFIELD: opening global file: PH_vstress__020_016_23.data
(PID.TID 0000.0001) 
(PID.TID 0000.0001)  exf_GetFFieldsRec: first, changed, fac:   T   F   0.20833333E+00
(PID.TID 0000.0001)  exf_GetFFieldsRec:      count0, count1:   1   2
(PID.TID 0000.0001) 
(PID.TID 0000.0001)  MDSREADFIELD: opening global file: PH_totflsfc__020_016_23.data
(PID.TID 0000.0001)  MDSREADFIELD: opening global file: PH_totflsfc__020_016_23.data
(PID.TID 0000.0001) 
(PID.TID 0000.0001)  exf_GetFFieldsRec: first, changed, fac:   T   F   0.20833333E+00
(PID.TID 0000.0001)  exf_GetFFieldsRec:      count0, count1:   1   2
(PID.TID 0000.0001) 
(PID.TID 0000.0001)  MDSREADFIELD: opening global file: PH_pratesfc__020_016_23.data
(PID.TID 0000.0001)  MDSREADFIELD: opening global file: PH_pratesfc__020_016_23.data
(PID.TID 0000.0001) 
(PID.TID 0000.0001)  exf_GetFFieldsRec: first, changed, fac:   T   F   0.20833333E+00
(PID.TID 0000.0001)  exf_GetFFieldsRec:      count0, count1:   1   2
(PID.TID 0000.0001) 
(PID.TID 0000.0001)  MDSREADFIELD: opening global file: PH_swflsfc__020_016_23.data
(PID.TID 0000.0001)  MDSREADFIELD: opening global file: PH_swflsfc__020_016_23.data
(PID.TID 0000.0001)  MDSREADFIELD: opening file: xx_hfl.0000000000.001.001.data
(PID.TID 0000.0001)  MDSREADFIELD: opening file: xx_hfl.0000000000.001.001.data
(PID.TID 0000.0001)  MDSREADFIELD: opening file: xx_sfl.0000000000.001.001.data
(PID.TID 0000.0001)  MDSREADFIELD: opening file: xx_sfl.0000000000.001.001.data
(PID.TID 0000.0001)  MDSREADFIELD: opening file: xx_tauu.0000000000.001.001.data
(PID.TID 0000.0001)  MDSREADFIELD: opening file: xx_tauu.0000000000.001.001.data
(PID.TID 0000.0001)  MDSREADFIELD: opening file: xx_tauv.0000000000.001.001.data
(PID.TID 0000.0001)  MDSREADFIELD: opening file: xx_tauv.0000000000.001.001.data
 cg2d: Sum(rhs),rhsMax =   7.66747776381749E-16  4.50737656431993E-01
(PID.TID 0000.0001)                    cg2d_init_res =    3.97910540907939E+00
(PID.TID 0000.0001)                       cg2d_iters =    50
(PID.TID 0000.0001)                         cg2d_res =    7.14109635808618E-14
(PID.TID 0000.0001) 
(PID.TID 0000.0001)  exf_GetFFieldsRec: first, changed, fac:   F   F   0.83333333E-01
(PID.TID 0000.0001)  exf_GetFFieldsRec:      count0, count1:   2   3
(PID.TID 0000.0001) 
(PID.TID 0000.0001) 
(PID.TID 0000.0001)  exf_GetFFieldsRec: first, changed, fac:   F   F   0.83333333E-01
(PID.TID 0000.0001)  exf_GetFFieldsRec:      count0, count1:   2   3
(PID.TID 0000.0001) 
(PID.TID 0000.0001) 
(PID.TID 0000.0001)  exf_GetFFieldsRec: first, changed, fac:   F   F   0.16666667E+00
(PID.TID 0000.0001)  exf_GetFFieldsRec:      count0, count1:   1   2
(PID.TID 0000.0001) 
(PID.TID 0000.0001) 
(PID.TID 0000.0001)  exf_GetFFieldsRec: first, changed, fac:   F   F   0.16666667E+00
(PID.TID 0000.0001)  exf_GetFFieldsRec:      count0, count1:   1   2
(PID.TID 0000.0001) 
(PID.TID 0000.0001) 
(PID.TID 0000.0001)  exf_GetFFieldsRec: first, changed, fac:   F   F   0.16666667E+00
(PID.TID 0000.0001)  exf_GetFFieldsRec:      count0, count1:   1   2
(PID.TID 0000.0001) 
 cg2d: Sum(rhs),rhsMax =   1.67661023953158E-15  5.55571937118767E-01
(PID.TID 0000.0001) 
(PID.TID 0000.0001)  exf_GetFFieldsRec: first, changed, fac:   F   T   0.10000000E+01
(PID.TID 0000.0001)  exf_GetFFieldsRec:      count0, count1:   3   4
(PID.TID 0000.0001) 
(PID.TID 0000.0001)  MDSREADFIELD: opening global file: PH_ustress__020_016_23.data
(PID.TID 0000.0001) 
(PID.TID 0000.0001)  exf_GetFFieldsRec: first, changed, fac:   F   T   0.10000000E+01
(PID.TID 0000.0001)  exf_GetFFieldsRec:      count0, count1:   3   4
(PID.TID 0000.0001) 
(PID.TID 0000.0001)  MDSREADFIELD: opening global file: PH_vstress__020_016_23.data
(PID.TID 0000.0001) 
(PID.TID 0000.0001)  exf_GetFFieldsRec: first, changed, fac:   F   F   0.12500000E+00
(PID.TID 0000.0001)  exf_GetFFieldsRec:      count0, count1:   1   2
(PID.TID 0000.0001) 
(PID.TID 0000.0001) 
(PID.TID 0000.0001)  exf_GetFFieldsRec: first, changed, fac:   F   F   0.12500000E+00
(PID.TID 0000.0001)  exf_GetFFieldsRec:      count0, count1:   1   2
(PID.TID 0000.0001) 
(PID.TID 0000.0001) 
(PID.TID 0000.0001)  exf_GetFFieldsRec: first, changed, fac:   F   F   0.12500000E+00
(PID.TID 0000.0001)  exf_GetFFieldsRec:      count0, count1:   1   2
(PID.TID 0000.0001) 
 cg2d: Sum(rhs),rhsMax =   3.28209681654812E-15  5.83078086204075E-01
(PID.TID 0000.0001) 
(PID.TID 0000.0001)  exf_GetFFieldsRec: first, changed, fac:   F   F   0.91666667E+00
(PID.TID 0000.0001)  exf_GetFFieldsRec:      count0, count1:   3   4
(PID.TID 0000.0001) 
(PID.TID 0000.0001) 
(PID.TID 0000.0001)  exf_GetFFieldsRec: first, changed, fac:   F   F   0.91666667E+00
(PID.TID 0000.0001)  exf_GetFFieldsRec:      count0, count1:   3   4
(PID.TID 0000.0001) 
(PID.TID 0000.0001) 
(PID.TID 0000.0001)  exf_GetFFieldsRec: first, changed, fac:   F   F   0.83333333E-01
(PID.TID 0000.0001)  exf_GetFFieldsRec:      count0, count1:   1   2
(PID.TID 0000.0001) 
(PID.TID 0000.0001) 
(PID.TID 0000.0001)  exf_GetFFieldsRec: first, changed, fac:   F   F   0.83333333E-01
(PID.TID 0000.0001)  exf_GetFFieldsRec:      count0, count1:   1   2
(PID.TID 0000.0001) 
(PID.TID 0000.0001) 
(PID.TID 0000.0001)  exf_GetFFieldsRec: first, changed, fac:   F   F   0.83333333E-01
(PID.TID 0000.0001)  exf_GetFFieldsRec:      count0, count1:   1   2
(PID.TID 0000.0001) 
 cg2d: Sum(rhs),rhsMax =   2.27769192395755E-15  6.06478011785966E-01
(PID.TID 0000.0001)  MDSREADFIELD: opening file: tbar.0000000000.001.001.data
(PID.TID 0000.0001)  MDSREADFIELD: opening global file: PH_SST_fields__020_016_23.data
(PID.TID 0000.0001)  MDSREADFIELD: opening file: tbar.0000000000.001.001.data
(PID.TID 0000.0001)  MDSREADFIELD: opening global file: PH_Lev.ptmp__020_016_23.data
(PID.TID 0000.0001)  MDSREADFIELD: opening file: sbar.0000000000.001.001.data
(PID.TID 0000.0001)  MDSREADFIELD: opening global file: PH_Lev.salt__020_016_23.data
(PID.TID 0000.0001)  MDSREADFIELD: opening file: psbar.0000000000.001.001.data
(PID.TID 0000.0001)  MDSREADFIELD: opening file: psbar.0000000000.001.001.data
(PID.TID 0000.0001)  MDSREADFIELD: opening global file: PH_TP_mean__020_016_23.data

  cost_ssh: offset_sum =   164.781314

(PID.TID 0000.0001)  MDSREADFIELD: opening file: psbar.0000000000.001.001.data
(PID.TID 0000.0001)  MDSREADFIELD: opening global file: PH_TP_fields__020_016_23.data
(PID.TID 0000.0001)  MDSREADFIELD: opening global file: PH_ERS_fields__020_016_23.data
(PID.TID 0000.0001)  MDSREADFIELD: opening file: psbar.0000000000.001.001.data
(PID.TID 0000.0001)  MDSREADFIELD: opening global file: PH_TP_fields__020_016_23.data
(PID.TID 0000.0001)  MDSREADFIELD: opening global file: PH_ERS_fields__020_016_23.data
(PID.TID 0000.0001)  MDSREADFIELD: opening file: tbar.0000000000.001.001.data
(PID.TID 0000.0001)  MDSREADFIELD: opening global file: PH_SST_fields__020_016_23.data
  --> objf_temp(bi,bj)    =  2414.00375
  --> objf_salt(bi,bj)    =  472.001555
  --> objf_temp0(bi,bj)   =  0.
  --> objf_salt0(bi,bj)   =  0.
  --> objf_tmi(bi,bj)     =  0.
  --> objf_sst(bi,bj)     =  15.011058
  --> objf_sss(bi,bj)     =  0.
  --> objf_h(bi,bj)       =  0.
  --> objf_hmean          =  0.
  --> objf_tauu(bi,bj)    =  0.
  --> objf_tauum(bi,bj)   =  0.
  --> objf_tauv(bi,bj)    =  0.
  --> objf_tauvm(bi,bj)   =  0.
  --> objf_hflux(bi,bj)   =  0.
  --> objf_hflux(bi,bj)   =  0.
  --> objf_hflux(bi,bj)   =  0.
  --> objf_sflux(bi,bj)   =  0.
  --> objf_sflux(bi,bj)   =  0.
  --> objf_sflux(bi,bj)   =  0.
  --> objf_atl(bi,bj)     =  0.
  --> objf_ctdt(bi,bj)    =  0.
  --> objf_ctds(bi,bj)    =  0.
  --> objf_ctdtclim(bi,bj)=  0.
  --> objf_ctdsclim(bi,bj)=  0.
  --> objf_xbt(bi,bj)     =  0.
  --> objf_argot(bi,bj)   =  0.
  --> objf_argos(bi,bj)   =  0.
  --> objf_drift(bi,bj)   =  0.
  --> objf_tdrift(bi,bj)  =  0.
  --> objf_sdrift(bi,bj)  =  0.
  --> objf_wdrift(bi,bj)  =  0.
  --> objf_scatx(bi,bj)   =  0.
  --> objf_scaty(bi,bj)   =  0.
  --> objf_scatxm(bi,bj)  =  0.
  --> objf_scatym(bi,bj)  =  0.
  --> objf_uwind(bi,bj)   =  0.
  --> objf_vwind(bi,bj)   =  0.
  --> objf_atemp(bi,bj)   =  0.
  --> objf_aqh(bi,bj)     =  0.
  --> objf_obcsn(bi,bj)   =  0.
  --> objf_obcss(bi,bj)   =  0.
  --> objf_obcsw(bi,bj)   =  0.
  --> objf_obcse(bi,bj)   =  0.
  --> objf_ageos(bi,bj)   =  0.
  --> objf_curmtr(bi,bj)  =  0.
  --> objf_obcsvol        =  0.
  --> objf_ice(bi,bj)     =  0.
  --> objf_kapgm(bi,bj)   =  0.
  --> objf_diffkr(bi,bj)  =  0.
  --> objf_ini_fin(bi,bj) =  0.
  --> objf_hmean  (GLOBAL) =  0.
  --> objf_obcsvol(GLOBAL) =  0.
  --> fc                   =  2901.01636
(PID.TID 0000.0001)  MDSREADFIELD: opening file: tbar.0000000000.001.001.data
(PID.TID 0000.0001)  MDSREADFIELD: opening global file: PH_SST_fields__020_016_23.data
(PID.TID 0000.0001)  MDSREADFIELD: opening file: adtbar.0000000000.001.001.data
(PID.TID 0000.0001)  MDSREADFIELD: opening file: adtbar.0000000000.001.001.data
(PID.TID 0000.0001)  MDSREADFIELD: opening file: adtbar.0000000000.001.001.data
(PID.TID 0000.0001)  MDSREADFIELD: opening file: adtbar.0000000000.001.001.data
(PID.TID 0000.0001)  MDSREADFIELD: opening file: adtbar.0000000000.001.001.data
(PID.TID 0000.0001)  MDSREADFIELD: opening file: adtbar.0000000000.001.001.data
(PID.TID 0000.0001)  MDSREADFIELD: opening file: adtbar.0000000000.001.001.data
(PID.TID 0000.0001)  MDSREADFIELD: opening file: adtbar.0000000000.001.001.data
(PID.TID 0000.0001)  MDSREADFIELD: opening file: adtbar.0000000000.001.001.data
(PID.TID 0000.0001)  MDSREADFIELD: opening file: adtbar.0000000000.001.001.data
(PID.TID 0000.0001)  MDSREADFIELD: opening file: adtbar.0000000000.001.001.data
(PID.TID 0000.0001)  MDSREADFIELD: opening file: adtbar.0000000000.001.001.data
(PID.TID 0000.0001)  MDSREADFIELD: opening file: adtbar.0000000000.001.001.data
(PID.TID 0000.0001)  MDSREADFIELD: opening file: adtbar.0000000000.001.001.data
(PID.TID 0000.0001)  MDSREADFIELD: opening file: adtbar.0000000000.001.001.data
(PID.TID 0000.0001)  MDSREADFIELD: opening file: adtbar.0000000000.001.001.data
(PID.TID 0000.0001)  MDSREADFIELD: opening file: adtbar.0000000000.001.001.data
(PID.TID 0000.0001)  MDSREADFIELD: opening file: adtbar.0000000000.001.001.data
(PID.TID 0000.0001)  MDSREADFIELD: opening file: adtbar.0000000000.001.001.data
(PID.TID 0000.0001)  MDSREADFIELD: opening file: adtbar.0000000000.001.001.data
(PID.TID 0000.0001)  MDSREADFIELD: opening file: adtbar.0000000000.001.001.data
(PID.TID 0000.0001)  MDSREADFIELD: opening file: adtbar.0000000000.001.001.data
(PID.TID 0000.0001)  MDSREADFIELD: opening file: adtbar.0000000000.001.001.data
(PID.TID 0000.0001)  MDSREADFIELD: opening file: psbar.0000000000.001.001.data
(PID.TID 0000.0001)  MDSREADFIELD: opening file: psbar.0000000000.001.001.data
(PID.TID 0000.0001)  MDSREADFIELD: opening global file: PH_TP_mean__020_016_23.data
(PID.TID 0000.0001)  MDSREADFIELD: opening file: psbar.0000000000.001.001.data
(PID.TID 0000.0001)  MDSREADFIELD: opening global file: PH_TP_fields__020_016_23.data
(PID.TID 0000.0001)  MDSREADFIELD: opening global file: PH_ERS_fields__020_016_23.data
(PID.TID 0000.0001)  MDSREADFIELD: opening file: adpsbar.0000000000.001.001.data
(PID.TID 0000.0001)  MDSREADFIELD: opening file: psbar.0000000000.001.001.data
(PID.TID 0000.0001)  MDSREADFIELD: opening global file: PH_TP_fields__020_016_23.data
(PID.TID 0000.0001)  MDSREADFIELD: opening global file: PH_ERS_fields__020_016_23.data
(PID.TID 0000.0001)  MDSREADFIELD: opening file: adpsbar.0000000000.001.001.data
(PID.TID 0000.0001)  MDSREADFIELD: opening file: adpsbar.0000000000.001.001.data
(PID.TID 0000.0001)  MDSREADFIELD: opening file: adpsbar.0000000000.001.001.data
(PID.TID 0000.0001)  MDSREADFIELD: opening file: sbar.0000000000.001.001.data
(PID.TID 0000.0001)  MDSREADFIELD: opening global file: PH_Lev.salt__020_016_23.data
(PID.TID 0000.0001)  MDSREADFIELD: opening file: adsbar.0000000000.001.001.data
(PID.TID 0000.0001)  MDSREADFIELD: opening file: adsbar.0000000000.001.001.data
(PID.TID 0000.0001)  MDSREADFIELD: opening file: adsbar.0000000000.001.001.data
(PID.TID 0000.0001)  MDSREADFIELD: opening file: adsbar.0000000000.001.001.data
(PID.TID 0000.0001)  MDSREADFIELD: opening file: adsbar.0000000000.001.001.data
(PID.TID 0000.0001)  MDSREADFIELD: opening file: adsbar.0000000000.001.001.data
(PID.TID 0000.0001)  MDSREADFIELD: opening file: adsbar.0000000000.001.001.data
(PID.TID 0000.0001)  MDSREADFIELD: opening file: adsbar.0000000000.001.001.data
(PID.TID 0000.0001)  MDSREADFIELD: opening file: adsbar.0000000000.001.001.data
(PID.TID 0000.0001)  MDSREADFIELD: opening file: adsbar.0000000000.001.001.data
(PID.TID 0000.0001)  MDSREADFIELD: opening file: adsbar.0000000000.001.001.data
(PID.TID 0000.0001)  MDSREADFIELD: opening file: adsbar.0000000000.001.001.data
(PID.TID 0000.0001)  MDSREADFIELD: opening file: adsbar.0000000000.001.001.data
(PID.TID 0000.0001)  MDSREADFIELD: opening file: adsbar.0000000000.001.001.data
(PID.TID 0000.0001)  MDSREADFIELD: opening file: adsbar.0000000000.001.001.data
(PID.TID 0000.0001)  MDSREADFIELD: opening file: adsbar.0000000000.001.001.data
(PID.TID 0000.0001)  MDSREADFIELD: opening file: adsbar.0000000000.001.001.data
(PID.TID 0000.0001)  MDSREADFIELD: opening file: adsbar.0000000000.001.001.data
(PID.TID 0000.0001)  MDSREADFIELD: opening file: adsbar.0000000000.001.001.data
(PID.TID 0000.0001)  MDSREADFIELD: opening file: adsbar.0000000000.001.001.data
(PID.TID 0000.0001)  MDSREADFIELD: opening file: adsbar.0000000000.001.001.data
(PID.TID 0000.0001)  MDSREADFIELD: opening file: adsbar.0000000000.001.001.data
(PID.TID 0000.0001)  MDSREADFIELD: opening file: adsbar.0000000000.001.001.data
(PID.TID 0000.0001)  MDSREADFIELD: opening file: tbar.0000000000.001.001.data
(PID.TID 0000.0001)  MDSREADFIELD: opening global file: PH_Lev.ptmp__020_016_23.data
(PID.TID 0000.0001)  MDSREADFIELD: opening file: adtbar.0000000000.001.001.data
(PID.TID 0000.0001)  MDSREADFIELD: opening file: adtbar.0000000000.001.001.data
(PID.TID 0000.0001)  MDSREADFIELD: opening file: adtbar.0000000000.001.001.data
(PID.TID 0000.0001)  MDSREADFIELD: opening file: adtbar.0000000000.001.001.data
(PID.TID 0000.0001)  MDSREADFIELD: opening file: adtbar.0000000000.001.001.data
(PID.TID 0000.0001)  MDSREADFIELD: opening file: adtbar.0000000000.001.001.data
(PID.TID 0000.0001)  MDSREADFIELD: opening file: adtbar.0000000000.001.001.data
(PID.TID 0000.0001)  MDSREADFIELD: opening file: adtbar.0000000000.001.001.data
(PID.TID 0000.0001)  MDSREADFIELD: opening file: adtbar.0000000000.001.001.data
(PID.TID 0000.0001)  MDSREADFIELD: opening file: adtbar.0000000000.001.001.data
(PID.TID 0000.0001)  MDSREADFIELD: opening file: adtbar.0000000000.001.001.data
(PID.TID 0000.0001)  MDSREADFIELD: opening file: adtbar.0000000000.001.001.data
(PID.TID 0000.0001)  MDSREADFIELD: opening file: adtbar.0000000000.001.001.data
(PID.TID 0000.0001)  MDSREADFIELD: opening file: adtbar.0000000000.001.001.data
(PID.TID 0000.0001)  MDSREADFIELD: opening file: adtbar.0000000000.001.001.data
(PID.TID 0000.0001)  MDSREADFIELD: opening file: adtbar.0000000000.001.001.data
(PID.TID 0000.0001)  MDSREADFIELD: opening file: adtbar.0000000000.001.001.data
(PID.TID 0000.0001)  MDSREADFIELD: opening file: adtbar.0000000000.001.001.data
(PID.TID 0000.0001)  MDSREADFIELD: opening file: adtbar.0000000000.001.001.data
(PID.TID 0000.0001)  MDSREADFIELD: opening file: adtbar.0000000000.001.001.data
(PID.TID 0000.0001)  MDSREADFIELD: opening file: adtbar.0000000000.001.001.data
(PID.TID 0000.0001)  MDSREADFIELD: opening file: adtbar.0000000000.001.001.data
(PID.TID 0000.0001)  MDSREADFIELD: opening file: adtbar.0000000000.001.001.data
(PID.TID 0000.0001)  MDSREADFIELD: opening file: tbar.0000000000.001.001.data
(PID.TID 0000.0001)  MDSREADFIELD: opening global file: PH_SST_fields__020_016_23.data
(PID.TID 0000.0001)  MDSREADFIELD: opening file: adtbar.0000000000.001.001.data
(PID.TID 0000.0001)  MDSREADFIELD: opening file: adtbar.0000000000.001.001.data
(PID.TID 0000.0001)  MDSREADFIELD: opening file: adtbar.0000000000.001.001.data
(PID.TID 0000.0001)  MDSREADFIELD: opening file: adtbar.0000000000.001.001.data
(PID.TID 0000.0001)  MDSREADFIELD: opening file: adtbar.0000000000.001.001.data
(PID.TID 0000.0001)  MDSREADFIELD: opening file: adtbar.0000000000.001.001.data
(PID.TID 0000.0001)  MDSREADFIELD: opening file: adtbar.0000000000.001.001.data
(PID.TID 0000.0001)  MDSREADFIELD: opening file: adtbar.0000000000.001.001.data
(PID.TID 0000.0001)  MDSREADFIELD: opening file: adtbar.0000000000.001.001.data
(PID.TID 0000.0001)  MDSREADFIELD: opening file: adtbar.0000000000.001.001.data
(PID.TID 0000.0001)  MDSREADFIELD: opening file: adtbar.0000000000.001.001.data
(PID.TID 0000.0001)  MDSREADFIELD: opening file: adtbar.0000000000.001.001.data
(PID.TID 0000.0001)  MDSREADFIELD: opening file: adtbar.0000000000.001.001.data
(PID.TID 0000.0001)  MDSREADFIELD: opening file: adtbar.0000000000.001.001.data
(PID.TID 0000.0001)  MDSREADFIELD: opening file: adtbar.0000000000.001.001.data
(PID.TID 0000.0001)  MDSREADFIELD: opening file: adtbar.0000000000.001.001.data
(PID.TID 0000.0001)  MDSREADFIELD: opening file: adtbar.0000000000.001.001.data
(PID.TID 0000.0001)  MDSREADFIELD: opening file: adtbar.0000000000.001.001.data
(PID.TID 0000.0001)  MDSREADFIELD: opening file: adtbar.0000000000.001.001.data
(PID.TID 0000.0001)  MDSREADFIELD: opening file: adtbar.0000000000.001.001.data
(PID.TID 0000.0001)  MDSREADFIELD: opening file: adtbar.0000000000.001.001.data
(PID.TID 0000.0001)  MDSREADFIELD: opening file: adtbar.0000000000.001.001.data
(PID.TID 0000.0001)  MDSREADFIELD: opening file: adtbar.0000000000.001.001.data
(PID.TID 0000.0001)  MDSREADFIELD: opening file: adsbar.0000000000.001.001.data
(PID.TID 0000.0001)  MDSREADFIELD: opening file: adsbar.0000000000.001.001.data
(PID.TID 0000.0001)  MDSREADFIELD: opening file: adsbar.0000000000.001.001.data
(PID.TID 0000.0001)  MDSREADFIELD: opening file: adsbar.0000000000.001.001.data
(PID.TID 0000.0001)  MDSREADFIELD: opening file: adsbar.0000000000.001.001.data
(PID.TID 0000.0001)  MDSREADFIELD: opening file: adsbar.0000000000.001.001.data
(PID.TID 0000.0001)  MDSREADFIELD: opening file: adsbar.0000000000.001.001.data
(PID.TID 0000.0001)  MDSREADFIELD: opening file: adsbar.0000000000.001.001.data
(PID.TID 0000.0001)  MDSREADFIELD: opening file: adsbar.0000000000.001.001.data
(PID.TID 0000.0001)  MDSREADFIELD: opening file: adsbar.0000000000.001.001.data
(PID.TID 0000.0001)  MDSREADFIELD: opening file: adsbar.0000000000.001.001.data
(PID.TID 0000.0001)  MDSREADFIELD: opening file: adsbar.0000000000.001.001.data
(PID.TID 0000.0001)  MDSREADFIELD: opening file: adsbar.0000000000.001.001.data
(PID.TID 0000.0001)  MDSREADFIELD: opening file: adsbar.0000000000.001.001.data
(PID.TID 0000.0001)  MDSREADFIELD: opening file: adsbar.0000000000.001.001.data
(PID.TID 0000.0001)  MDSREADFIELD: opening file: adsbar.0000000000.001.001.data
(PID.TID 0000.0001)  MDSREADFIELD: opening file: adsbar.0000000000.001.001.data
(PID.TID 0000.0001)  MDSREADFIELD: opening file: adsbar.0000000000.001.001.data
(PID.TID 0000.0001)  MDSREADFIELD: opening file: adsbar.0000000000.001.001.data
(PID.TID 0000.0001)  MDSREADFIELD: opening file: adsbar.0000000000.001.001.data
(PID.TID 0000.0001)  MDSREADFIELD: opening file: adsbar.0000000000.001.001.data
(PID.TID 0000.0001)  MDSREADFIELD: opening file: adsbar.0000000000.001.001.data
(PID.TID 0000.0001)  MDSREADFIELD: opening file: adsbar.0000000000.001.001.data
(PID.TID 0000.0001)  MDSREADFIELD: opening file: adtbar.0000000000.001.001.data
(PID.TID 0000.0001)  MDSREADFIELD: opening file: adtbar.0000000000.001.001.data
(PID.TID 0000.0001)  MDSREADFIELD: opening file: adtbar.0000000000.001.001.data
(PID.TID 0000.0001)  MDSREADFIELD: opening file: adtbar.0000000000.001.001.data
(PID.TID 0000.0001)  MDSREADFIELD: opening file: adtbar.0000000000.001.001.data
(PID.TID 0000.0001)  MDSREADFIELD: opening file: adtbar.0000000000.001.001.data
(PID.TID 0000.0001)  MDSREADFIELD: opening file: adtbar.0000000000.001.001.data
(PID.TID 0000.0001)  MDSREADFIELD: opening file: adtbar.0000000000.001.001.data
(PID.TID 0000.0001)  MDSREADFIELD: opening file: adtbar.0000000000.001.001.data
(PID.TID 0000.0001)  MDSREADFIELD: opening file: adtbar.0000000000.001.001.data
(PID.TID 0000.0001)  MDSREADFIELD: opening file: adtbar.0000000000.001.001.data
(PID.TID 0000.0001)  MDSREADFIELD: opening file: adtbar.0000000000.001.001.data
(PID.TID 0000.0001)  MDSREADFIELD: opening file: adtbar.0000000000.001.001.data
(PID.TID 0000.0001)  MDSREADFIELD: opening file: adtbar.0000000000.001.001.data
(PID.TID 0000.0001)  MDSREADFIELD: opening file: adtbar.0000000000.001.001.data
(PID.TID 0000.0001)  MDSREADFIELD: opening file: adtbar.0000000000.001.001.data
(PID.TID 0000.0001)  MDSREADFIELD: opening file: adtbar.0000000000.001.001.data
(PID.TID 0000.0001)  MDSREADFIELD: opening file: adtbar.0000000000.001.001.data
(PID.TID 0000.0001)  MDSREADFIELD: opening file: adtbar.0000000000.001.001.data
(PID.TID 0000.0001)  MDSREADFIELD: opening file: adtbar.0000000000.001.001.data
(PID.TID 0000.0001)  MDSREADFIELD: opening file: adtbar.0000000000.001.001.data
(PID.TID 0000.0001)  MDSREADFIELD: opening file: adtbar.0000000000.001.001.data
(PID.TID 0000.0001)  MDSREADFIELD: opening file: adtbar.0000000000.001.001.data
(PID.TID 0000.0001)  MDSREADFIELD: opening file: adpsbar.0000000000.001.001.data
(PID.TID 0000.0001)  MDSREADVECTOR: opening file: tapelev3_1_the_main_loop_gsnm1.it0000.001.001.data
(PID.TID 0000.0001)  MDS_READ_RL_VEC: irec =  00000001   00015456
(PID.TID 0000.0001)  MDSREADVECTOR: opening file: tapelev3_2_the_main_loop_gtnm1.it0000.001.001.data
(PID.TID 0000.0001)  MDS_READ_RL_VEC: irec =  00000001   00015456
(PID.TID 0000.0001)  MDSREADVECTOR: opening file: tapelev3_3_the_main_loop_gunm1.it0000.001.001.data
(PID.TID 0000.0001)  MDS_READ_RL_VEC: irec =  00000001   00015456
(PID.TID 0000.0001)  MDSREADVECTOR: opening file: tapelev3_4_the_main_loop_gvnm1.it0000.001.001.data
(PID.TID 0000.0001)  MDS_READ_RL_VEC: irec =  00000001   00015456
(PID.TID 0000.0001)  MDSREADVECTOR: opening file: tapelev3_5_the_main_loop_theta.it0000.001.001.data
(PID.TID 0000.0001)  MDS_READ_RL_VEC: irec =  00000001   00015456
(PID.TID 0000.0001)  MDSREADVECTOR: opening file: tapelev3_6_the_main_loop_salt.it0000.001.001.data
(PID.TID 0000.0001)  MDS_READ_RL_VEC: irec =  00000001   00015456
(PID.TID 0000.0001)  MDSREADVECTOR: opening file: tapelev3_7_the_main_loop_uvel.it0000.001.001.data
(PID.TID 0000.0001)  MDS_READ_RL_VEC: irec =  00000001   00015456
(PID.TID 0000.0001)  MDSREADVECTOR: opening file: tapelev3_8_the_main_loop_vvel.it0000.001.001.data
(PID.TID 0000.0001)  MDS_READ_RL_VEC: irec =  00000001   00015456
(PID.TID 0000.0001)  MDSREADVECTOR: opening file: tapelev3_9_the_main_loop_wvel.it0000.001.001.data
(PID.TID 0000.0001)  MDS_READ_RL_VEC: irec =  00000001   00015456
(PID.TID 0000.0001)  MDSREADVECTOR: opening file: tapelev3_10_the_main_loop_etan.it0000.001.001.data
(PID.TID 0000.0001)  MDS_READ_RL_VEC: irec =  00000001   00000672
(PID.TID 0000.0001)  MDSREADVECTOR: opening file: tapelev3_11_the_main_loop_gu.it0000.001.001.data
(PID.TID 0000.0001)  MDS_READ_RL_VEC: irec =  00000001   00015456
(PID.TID 0000.0001)  MDSREADVECTOR: opening file: tapelev3_12_the_main_loop_gv.it0000.001.001.data
(PID.TID 0000.0001)  MDS_READ_RL_VEC: irec =  00000001   00015456
(PID.TID 0000.0001)  MDSREADVECTOR: opening file: tapelev3_13_the_main_loop_totphihyd.it0000.001.001.data
(PID.TID 0000.0001)  MDS_READ_RL_VEC: irec =  00000001   00015456
(PID.TID 0000.0001)  MDSREADVECTOR: opening file: tapelev3_14_the_main_loop_empmr.it0000.001.001.data
(PID.TID 0000.0001)  MDS_READ_RL_VEC: irec =  00000001   00000672
(PID.TID 0000.0001)  MDSREADVECTOR: opening file: tapelev3_15_the_main_loop_uveld.it0000.001.001.data
(PID.TID 0000.0001)  MDS_READ_RL_VEC: irec =  00000001   00015456
(PID.TID 0000.0001)  MDSREADVECTOR: opening file: tapelev3_16_the_main_loop_vveld.it0000.001.001.data
(PID.TID 0000.0001)  MDS_READ_RL_VEC: irec =  00000001   00015456
(PID.TID 0000.0001)  MDSREADVECTOR: opening file: tapelev3_17_the_main_loop_etanm1.it0000.001.001.data
(PID.TID 0000.0001)  MDS_READ_RL_VEC: irec =  00000001   00000672
(PID.TID 0000.0001)  MDSREADVECTOR: opening file: tapelev3_18_the_main_loop_unm1.it0000.001.001.data
(PID.TID 0000.0001)  MDS_READ_RL_VEC: irec =  00000001   00015456
(PID.TID 0000.0001)  MDSREADVECTOR: opening file: tapelev3_19_the_main_loop_vnm1.it0000.001.001.data
(PID.TID 0000.0001)  MDS_READ_RL_VEC: irec =  00000001   00015456
(PID.TID 0000.0001)  MDSREADVECTOR: opening file: tapelev3_20_the_main_loop_etah.it0000.001.001.data
(PID.TID 0000.0001)  MDS_READ_RL_VEC: irec =  00000001   00000672
(PID.TID 0000.0001)  MDSREADVECTOR: opening file: tapelev3_21_the_main_loop_hdivflow.it0000.001.001.data
(PID.TID 0000.0001)  MDS_READ_RL_VEC: irec =  00000001   00000672
(PID.TID 0000.0001)  MDSREADVECTOR: opening file: tapelev3_22_the_main_loop_hflux0.it0000.001.001.data
(PID.TID 0000.0001)  MDS_READ_RL_VEC: irec =  00000001   00000672
(PID.TID 0000.0001)  MDSREADVECTOR: opening file: tapelev3_23_the_main_loop_hflux1.it0000.001.001.data
(PID.TID 0000.0001)  MDS_READ_RL_VEC: irec =  00000001   00000672
(PID.TID 0000.0001)  MDSREADVECTOR: opening file: tapelev3_24_the_main_loop_sflux0.it0000.001.001.data
(PID.TID 0000.0001)  MDS_READ_RL_VEC: irec =  00000001   00000672
(PID.TID 0000.0001)  MDSREADVECTOR: opening file: tapelev3_25_the_main_loop_sflux1.it0000.001.001.data
(PID.TID 0000.0001)  MDS_READ_RL_VEC: irec =  00000001   00000672
(PID.TID 0000.0001)  MDSREADVECTOR: opening file: tapelev3_26_the_main_loop_swflux0.it0000.001.001.data
(PID.TID 0000.0001)  MDS_READ_RL_VEC: irec =  00000001   00000672
(PID.TID 0000.0001)  MDSREADVECTOR: opening file: tapelev3_27_the_main_loop_swflux1.it0000.001.001.data
(PID.TID 0000.0001)  MDS_READ_RL_VEC: irec =  00000001   00000672
(PID.TID 0000.0001)  MDSREADVECTOR: opening file: tapelev3_28_the_main_loop_ustress0.it0000.001.001.data
(PID.TID 0000.0001)  MDS_READ_RL_VEC: irec =  00000001   00000672
(PID.TID 0000.0001)  MDSREADVECTOR: opening file: tapelev3_29_the_main_loop_ustress1.it0000.001.001.data
(PID.TID 0000.0001)  MDS_READ_RL_VEC: irec =  00000001   00000672
(PID.TID 0000.0001)  MDSREADVECTOR: opening file: tapelev3_30_the_main_loop_vstress0.it0000.001.001.data
(PID.TID 0000.0001)  MDS_READ_RL_VEC: irec =  00000001   00000672
(PID.TID 0000.0001)  MDSREADVECTOR: opening file: tapelev3_31_the_main_loop_vstress1.it0000.001.001.data
(PID.TID 0000.0001)  MDS_READ_RL_VEC: irec =  00000001   00000672
(PID.TID 0000.0001)  MDSREADVECTOR: opening file: tapelev3_32_the_main_loop_xx_hflux0.it0000.001.001.data
(PID.TID 0000.0001)  MDS_READ_RL_VEC: irec =  00000001   00000672
(PID.TID 0000.0001)  MDSREADVECTOR: opening file: tapelev3_33_the_main_loop_xx_hflux1.it0000.001.001.data
(PID.TID 0000.0001)  MDS_READ_RL_VEC: irec =  00000001   00000672
(PID.TID 0000.0001)  MDSREADVECTOR: opening file: tapelev3_34_the_main_loop_xx_sflux0.it0000.001.001.data
(PID.TID 0000.0001)  MDS_READ_RL_VEC: irec =  00000001   00000672
(PID.TID 0000.0001)  MDSREADVECTOR: opening file: tapelev3_35_the_main_loop_xx_sflux1.it0000.001.001.data
(PID.TID 0000.0001)  MDS_READ_RL_VEC: irec =  00000001   00000672
(PID.TID 0000.0001)  MDSREADVECTOR: opening file: tapelev3_36_the_main_loop_xx_tauu0.it0000.001.001.data
(PID.TID 0000.0001)  MDS_READ_RL_VEC: irec =  00000001   00000672
(PID.TID 0000.0001)  MDSREADVECTOR: opening file: tapelev3_37_the_main_loop_xx_tauu1.it0000.001.001.data
(PID.TID 0000.0001)  MDS_READ_RL_VEC: irec =  00000001   00000672
(PID.TID 0000.0001)  MDSREADVECTOR: opening file: tapelev3_38_the_main_loop_xx_tauv0.it0000.001.001.data
(PID.TID 0000.0001)  MDS_READ_RL_VEC: irec =  00000001   00000672
(PID.TID 0000.0001)  MDSREADVECTOR: opening file: tapelev3_39_the_main_loop_xx_tauv1.it0000.001.001.data
(PID.TID 0000.0001)  MDS_READ_RL_VEC: irec =  00000001   00000672
(PID.TID 0000.0001)  MDS_WRITE_RL_VEC: irec =  00000001   00015456
(PID.TID 0000.0001)  MDS_WRITE_RL_VEC: irec =  00000001   00015456
(PID.TID 0000.0001)  MDS_WRITE_RL_VEC: irec =  00000001   00015456
(PID.TID 0000.0001)  MDS_WRITE_RL_VEC: irec =  00000001   00015456
(PID.TID 0000.0001)  MDS_WRITE_RL_VEC: irec =  00000001   00015456
(PID.TID 0000.0001)  MDS_WRITE_RL_VEC: irec =  00000001   00015456
(PID.TID 0000.0001)  MDS_WRITE_RL_VEC: irec =  00000001   00015456
(PID.TID 0000.0001)  MDS_WRITE_RL_VEC: irec =  00000001   00015456
(PID.TID 0000.0001)  MDS_WRITE_RL_VEC: irec =  00000001   00015456
(PID.TID 0000.0001)  MDS_WRITE_RL_VEC: irec =  00000001   00000672
(PID.TID 0000.0001)  MDS_WRITE_RL_VEC: irec =  00000001   00015456
(PID.TID 0000.0001)  MDS_WRITE_RL_VEC: irec =  00000001   00015456
(PID.TID 0000.0001)  MDS_WRITE_RL_VEC: irec =  00000001   00015456
(PID.TID 0000.0001)  MDS_WRITE_RL_VEC: irec =  00000001   00000672
(PID.TID 0000.0001)  MDS_WRITE_RL_VEC: irec =  00000001   00015456
(PID.TID 0000.0001)  MDS_WRITE_RL_VEC: irec =  00000001   00015456
(PID.TID 0000.0001)  MDS_WRITE_RL_VEC: irec =  00000001   00000672
(PID.TID 0000.0001)  MDS_WRITE_RL_VEC: irec =  00000001   00015456
(PID.TID 0000.0001)  MDS_WRITE_RL_VEC: irec =  00000001   00015456
(PID.TID 0000.0001)  MDS_WRITE_RL_VEC: irec =  00000001   00000672
(PID.TID 0000.0001)  MDS_WRITE_RL_VEC: irec =  00000001   00000672
(PID.TID 0000.0001)  MDS_WRITE_RL_VEC: irec =  00000001   00000672
(PID.TID 0000.0001)  MDS_WRITE_RL_VEC: irec =  00000001   00000672
(PID.TID 0000.0001)  MDS_WRITE_RL_VEC: irec =  00000001   00000672
(PID.TID 0000.0001)  MDS_WRITE_RL_VEC: irec =  00000001   00000672
(PID.TID 0000.0001)  MDS_WRITE_RL_VEC: irec =  00000001   00000672
(PID.TID 0000.0001)  MDS_WRITE_RL_VEC: irec =  00000001   00000672
(PID.TID 0000.0001)  MDS_WRITE_RL_VEC: irec =  00000001   00000672
(PID.TID 0000.0001)  MDS_WRITE_RL_VEC: irec =  00000001   00000672
(PID.TID 0000.0001)  MDS_WRITE_RL_VEC: irec =  00000001   00000672
(PID.TID 0000.0001)  MDS_WRITE_RL_VEC: irec =  00000001   00000672
(PID.TID 0000.0001)  MDS_WRITE_RL_VEC: irec =  00000001   00000672
(PID.TID 0000.0001)  MDS_WRITE_RL_VEC: irec =  00000001   00000672
(PID.TID 0000.0001)  MDS_WRITE_RL_VEC: irec =  00000001   00000672
(PID.TID 0000.0001)  MDS_WRITE_RL_VEC: irec =  00000001   00000672
(PID.TID 0000.0001)  MDS_WRITE_RL_VEC: irec =  00000001   00000672
(PID.TID 0000.0001)  MDS_WRITE_RL_VEC: irec =  00000001   00000672
(PID.TID 0000.0001)  MDS_WRITE_RL_VEC: irec =  00000001   00000672
(PID.TID 0000.0001)  MDS_WRITE_RL_VEC: irec =  00000001   00000672
(PID.TID 0000.0001) 
(PID.TID 0000.0001)  exf_GetFFieldsRec: first, changed, fac:   T   F   0.16666667E+00
(PID.TID 0000.0001)  exf_GetFFieldsRec:      count0, count1:   2   3
(PID.TID 0000.0001) 
(PID.TID 0000.0001)  MDSREADFIELD: opening global file: PH_ustress__020_016_23.data
(PID.TID 0000.0001)  MDSREADFIELD: opening global file: PH_ustress__020_016_23.data
(PID.TID 0000.0001) 
(PID.TID 0000.0001)  exf_GetFFieldsRec: first, changed, fac:   T   F   0.16666667E+00
(PID.TID 0000.0001)  exf_GetFFieldsRec:      count0, count1:   2   3
(PID.TID 0000.0001) 
(PID.TID 0000.0001)  MDSREADFIELD: opening global file: PH_vstress__020_016_23.data
(PID.TID 0000.0001)  MDSREADFIELD: opening global file: PH_vstress__020_016_23.data
(PID.TID 0000.0001) 
(PID.TID 0000.0001)  exf_GetFFieldsRec: first, changed, fac:   T   F   0.20833333E+00
(PID.TID 0000.0001)  exf_GetFFieldsRec:      count0, count1:   1   2
(PID.TID 0000.0001) 
(PID.TID 0000.0001)  MDSREADFIELD: opening global file: PH_totflsfc__020_016_23.data
(PID.TID 0000.0001)  MDSREADFIELD: opening global file: PH_totflsfc__020_016_23.data
(PID.TID 0000.0001) 
(PID.TID 0000.0001)  exf_GetFFieldsRec: first, changed, fac:   T   F   0.20833333E+00
(PID.TID 0000.0001)  exf_GetFFieldsRec:      count0, count1:   1   2
(PID.TID 0000.0001) 
(PID.TID 0000.0001)  MDSREADFIELD: opening global file: PH_pratesfc__020_016_23.data
(PID.TID 0000.0001)  MDSREADFIELD: opening global file: PH_pratesfc__020_016_23.data
(PID.TID 0000.0001) 
(PID.TID 0000.0001)  exf_GetFFieldsRec: first, changed, fac:   T   F   0.20833333E+00
(PID.TID 0000.0001)  exf_GetFFieldsRec:      count0, count1:   1   2
(PID.TID 0000.0001) 
(PID.TID 0000.0001)  MDSREADFIELD: opening global file: PH_swflsfc__020_016_23.data
(PID.TID 0000.0001)  MDSREADFIELD: opening global file: PH_swflsfc__020_016_23.data
(PID.TID 0000.0001)  MDSREADFIELD: opening file: xx_hfl.0000000000.001.001.data
(PID.TID 0000.0001)  MDSREADFIELD: opening file: xx_hfl.0000000000.001.001.data
(PID.TID 0000.0001)  MDSREADFIELD: opening file: xx_sfl.0000000000.001.001.data
(PID.TID 0000.0001)  MDSREADFIELD: opening file: xx_sfl.0000000000.001.001.data
(PID.TID 0000.0001)  MDSREADFIELD: opening file: xx_tauu.0000000000.001.001.data
(PID.TID 0000.0001)  MDSREADFIELD: opening file: xx_tauu.0000000000.001.001.data
(PID.TID 0000.0001)  MDSREADFIELD: opening file: xx_tauv.0000000000.001.001.data
(PID.TID 0000.0001)  MDSREADFIELD: opening file: xx_tauv.0000000000.001.001.data
 cg2d: Sum(rhs),rhsMax =   7.66747776381749E-16  4.50737656431993E-01
(PID.TID 0000.0001)                    cg2d_init_res =    3.97910540907939E+00
(PID.TID 0000.0001)                       cg2d_iters =    50
(PID.TID 0000.0001)                         cg2d_res =    7.14109635808618E-14
(PID.TID 0000.0001) 
(PID.TID 0000.0001)  exf_GetFFieldsRec: first, changed, fac:   F   F   0.83333333E-01
(PID.TID 0000.0001)  exf_GetFFieldsRec:      count0, count1:   2   3
(PID.TID 0000.0001) 
(PID.TID 0000.0001) 
(PID.TID 0000.0001)  exf_GetFFieldsRec: first, changed, fac:   F   F   0.83333333E-01
(PID.TID 0000.0001)  exf_GetFFieldsRec:      count0, count1:   2   3
(PID.TID 0000.0001) 
(PID.TID 0000.0001) 
(PID.TID 0000.0001)  exf_GetFFieldsRec: first, changed, fac:   F   F   0.16666667E+00
(PID.TID 0000.0001)  exf_GetFFieldsRec:      count0, count1:   1   2
(PID.TID 0000.0001) 
(PID.TID 0000.0001) 
(PID.TID 0000.0001)  exf_GetFFieldsRec: first, changed, fac:   F   F   0.16666667E+00
(PID.TID 0000.0001)  exf_GetFFieldsRec:      count0, count1:   1   2
(PID.TID 0000.0001) 
(PID.TID 0000.0001) 
(PID.TID 0000.0001)  exf_GetFFieldsRec: first, changed, fac:   F   F   0.16666667E+00
(PID.TID 0000.0001)  exf_GetFFieldsRec:      count0, count1:   1   2
(PID.TID 0000.0001) 
 cg2d: Sum(rhs),rhsMax =   1.67661023953158E-15  5.55571937118767E-01
(PID.TID 0000.0001) 
(PID.TID 0000.0001)  exf_GetFFieldsRec: first, changed, fac:   F   T   0.10000000E+01
(PID.TID 0000.0001)  exf_GetFFieldsRec:      count0, count1:   3   4
(PID.TID 0000.0001) 
(PID.TID 0000.0001)  MDSREADFIELD: opening global file: PH_ustress__020_016_23.data
(PID.TID 0000.0001) 
(PID.TID 0000.0001)  exf_GetFFieldsRec: first, changed, fac:   F   T   0.10000000E+01
(PID.TID 0000.0001)  exf_GetFFieldsRec:      count0, count1:   3   4
(PID.TID 0000.0001) 
(PID.TID 0000.0001)  MDSREADFIELD: opening global file: PH_vstress__020_016_23.data
(PID.TID 0000.0001) 
(PID.TID 0000.0001)  exf_GetFFieldsRec: first, changed, fac:   F   F   0.12500000E+00
(PID.TID 0000.0001)  exf_GetFFieldsRec:      count0, count1:   1   2
(PID.TID 0000.0001) 
(PID.TID 0000.0001) 
(PID.TID 0000.0001)  exf_GetFFieldsRec: first, changed, fac:   F   F   0.12500000E+00
(PID.TID 0000.0001)  exf_GetFFieldsRec:      count0, count1:   1   2
(PID.TID 0000.0001) 
(PID.TID 0000.0001) 
(PID.TID 0000.0001)  exf_GetFFieldsRec: first, changed, fac:   F   F   0.12500000E+00
(PID.TID 0000.0001)  exf_GetFFieldsRec:      count0, count1:   1   2
(PID.TID 0000.0001) 
 cg2d: Sum(rhs),rhsMax =   3.28209681654812E-15  5.83078086204075E-01
(PID.TID 0000.0001) 
(PID.TID 0000.0001)  exf_GetFFieldsRec: first, changed, fac:   F   F   0.91666667E+00
(PID.TID 0000.0001)  exf_GetFFieldsRec:      count0, count1:   3   4
(PID.TID 0000.0001) 
(PID.TID 0000.0001) 
(PID.TID 0000.0001)  exf_GetFFieldsRec: first, changed, fac:   F   F   0.91666667E+00
(PID.TID 0000.0001)  exf_GetFFieldsRec:      count0, count1:   3   4
(PID.TID 0000.0001) 
(PID.TID 0000.0001) 
(PID.TID 0000.0001)  exf_GetFFieldsRec: first, changed, fac:   F   F   0.83333333E-01
(PID.TID 0000.0001)  exf_GetFFieldsRec:      count0, count1:   1   2
(PID.TID 0000.0001) 
(PID.TID 0000.0001) 
(PID.TID 0000.0001)  exf_GetFFieldsRec: first, changed, fac:   F   F   0.83333333E-01
(PID.TID 0000.0001)  exf_GetFFieldsRec:      count0, count1:   1   2
(PID.TID 0000.0001) 
(PID.TID 0000.0001) 
(PID.TID 0000.0001)  exf_GetFFieldsRec: first, changed, fac:   F   F   0.83333333E-01
(PID.TID 0000.0001)  exf_GetFFieldsRec:      count0, count1:   1   2
(PID.TID 0000.0001) 
 cg2d: Sum(rhs),rhsMax =   2.27769192395755E-15  6.06478011785966E-01
(PID.TID 0000.0001)  MDSREADVECTOR: opening file: tapelev2_1_the_main_loop_gsnm1.it0000.001.001.data
(PID.TID 0000.0001)  MDS_READ_RL_VEC: irec =  00000001   00015456
(PID.TID 0000.0001)  MDSREADVECTOR: opening file: tapelev2_2_the_main_loop_gtnm1.it0000.001.001.data
(PID.TID 0000.0001)  MDS_READ_RL_VEC: irec =  00000001   00015456
(PID.TID 0000.0001)  MDSREADVECTOR: opening file: tapelev2_3_the_main_loop_gunm1.it0000.001.001.data
(PID.TID 0000.0001)  MDS_READ_RL_VEC: irec =  00000001   00015456
(PID.TID 0000.0001)  MDSREADVECTOR: opening file: tapelev2_4_the_main_loop_gvnm1.it0000.001.001.data
(PID.TID 0000.0001)  MDS_READ_RL_VEC: irec =  00000001   00015456
(PID.TID 0000.0001)  MDSREADVECTOR: opening file: tapelev2_5_the_main_loop_theta.it0000.001.001.data
(PID.TID 0000.0001)  MDS_READ_RL_VEC: irec =  00000001   00015456
(PID.TID 0000.0001)  MDSREADVECTOR: opening file: tapelev2_6_the_main_loop_salt.it0000.001.001.data
(PID.TID 0000.0001)  MDS_READ_RL_VEC: irec =  00000001   00015456
(PID.TID 0000.0001)  MDSREADVECTOR: opening file: tapelev2_7_the_main_loop_uvel.it0000.001.001.data
(PID.TID 0000.0001)  MDS_READ_RL_VEC: irec =  00000001   00015456
(PID.TID 0000.0001)  MDSREADVECTOR: opening file: tapelev2_8_the_main_loop_vvel.it0000.001.001.data
(PID.TID 0000.0001)  MDS_READ_RL_VEC: irec =  00000001   00015456
(PID.TID 0000.0001)  MDSREADVECTOR: opening file: tapelev2_9_the_main_loop_wvel.it0000.001.001.data
(PID.TID 0000.0001)  MDS_READ_RL_VEC: irec =  00000001   00015456
(PID.TID 0000.0001)  MDSREADVECTOR: opening file: tapelev2_10_the_main_loop_etan.it0000.001.001.data
(PID.TID 0000.0001)  MDS_READ_RL_VEC: irec =  00000001   00000672
(PID.TID 0000.0001)  MDSREADVECTOR: opening file: tapelev2_11_the_main_loop_gu.it0000.001.001.data
(PID.TID 0000.0001)  MDS_READ_RL_VEC: irec =  00000001   00015456
(PID.TID 0000.0001)  MDSREADVECTOR: opening file: tapelev2_12_the_main_loop_gv.it0000.001.001.data
(PID.TID 0000.0001)  MDS_READ_RL_VEC: irec =  00000001   00015456
(PID.TID 0000.0001)  MDSREADVECTOR: opening file: tapelev2_13_the_main_loop_totphihyd.it0000.001.001.data
(PID.TID 0000.0001)  MDS_READ_RL_VEC: irec =  00000001   00015456
(PID.TID 0000.0001)  MDSREADVECTOR: opening file: tapelev2_14_the_main_loop_empmr.it0000.001.001.data
(PID.TID 0000.0001)  MDS_READ_RL_VEC: irec =  00000001   00000672
(PID.TID 0000.0001)  MDSREADVECTOR: opening file: tapelev2_15_the_main_loop_uveld.it0000.001.001.data
(PID.TID 0000.0001)  MDS_READ_RL_VEC: irec =  00000001   00015456
(PID.TID 0000.0001)  MDSREADVECTOR: opening file: tapelev2_16_the_main_loop_vveld.it0000.001.001.data
(PID.TID 0000.0001)  MDS_READ_RL_VEC: irec =  00000001   00015456
(PID.TID 0000.0001)  MDSREADVECTOR: opening file: tapelev2_17_the_main_loop_etanm1.it0000.001.001.data
(PID.TID 0000.0001)  MDS_READ_RL_VEC: irec =  00000001   00000672
(PID.TID 0000.0001)  MDSREADVECTOR: opening file: tapelev2_18_the_main_loop_unm1.it0000.001.001.data
(PID.TID 0000.0001)  MDS_READ_RL_VEC: irec =  00000001   00015456
(PID.TID 0000.0001)  MDSREADVECTOR: opening file: tapelev2_19_the_main_loop_vnm1.it0000.001.001.data
(PID.TID 0000.0001)  MDS_READ_RL_VEC: irec =  00000001   00015456
(PID.TID 0000.0001)  MDSREADVECTOR: opening file: tapelev2_20_the_main_loop_etah.it0000.001.001.data
(PID.TID 0000.0001)  MDS_READ_RL_VEC: irec =  00000001   00000672
(PID.TID 0000.0001)  MDSREADVECTOR: opening file: tapelev2_21_the_main_loop_hdivflow.it0000.001.001.data
(PID.TID 0000.0001)  MDS_READ_RL_VEC: irec =  00000001   00000672
(PID.TID 0000.0001)  MDSREADVECTOR: opening file: tapelev2_22_the_main_loop_hflux0.it0000.001.001.data
(PID.TID 0000.0001)  MDS_READ_RL_VEC: irec =  00000001   00000672
(PID.TID 0000.0001)  MDSREADVECTOR: opening file: tapelev2_23_the_main_loop_hflux1.it0000.001.001.data
(PID.TID 0000.0001)  MDS_READ_RL_VEC: irec =  00000001   00000672
(PID.TID 0000.0001)  MDSREADVECTOR: opening file: tapelev2_24_the_main_loop_sflux0.it0000.001.001.data
(PID.TID 0000.0001)  MDS_READ_RL_VEC: irec =  00000001   00000672
(PID.TID 0000.0001)  MDSREADVECTOR: opening file: tapelev2_25_the_main_loop_sflux1.it0000.001.001.data
(PID.TID 0000.0001)  MDS_READ_RL_VEC: irec =  00000001   00000672
(PID.TID 0000.0001)  MDSREADVECTOR: opening file: tapelev2_26_the_main_loop_swflux0.it0000.001.001.data
(PID.TID 0000.0001)  MDS_READ_RL_VEC: irec =  00000001   00000672
(PID.TID 0000.0001)  MDSREADVECTOR: opening file: tapelev2_27_the_main_loop_swflux1.it0000.001.001.data
(PID.TID 0000.0001)  MDS_READ_RL_VEC: irec =  00000001   00000672
(PID.TID 0000.0001)  MDSREADVECTOR: opening file: tapelev2_28_the_main_loop_ustress0.it0000.001.001.data
(PID.TID 0000.0001)  MDS_READ_RL_VEC: irec =  00000001   00000672
(PID.TID 0000.0001)  MDSREADVECTOR: opening file: tapelev2_29_the_main_loop_ustress1.it0000.001.001.data
(PID.TID 0000.0001)  MDS_READ_RL_VEC: irec =  00000001   00000672
(PID.TID 0000.0001)  MDSREADVECTOR: opening file: tapelev2_30_the_main_loop_vstress0.it0000.001.001.data
(PID.TID 0000.0001)  MDS_READ_RL_VEC: irec =  00000001   00000672
(PID.TID 0000.0001)  MDSREADVECTOR: opening file: tapelev2_31_the_main_loop_vstress1.it0000.001.001.data
(PID.TID 0000.0001)  MDS_READ_RL_VEC: irec =  00000001   00000672
(PID.TID 0000.0001)  MDSREADVECTOR: opening file: tapelev2_32_the_main_loop_xx_hflux0.it0000.001.001.data
(PID.TID 0000.0001)  MDS_READ_RL_VEC: irec =  00000001   00000672
(PID.TID 0000.0001)  MDSREADVECTOR: opening file: tapelev2_33_the_main_loop_xx_hflux1.it0000.001.001.data
(PID.TID 0000.0001)  MDS_READ_RL_VEC: irec =  00000001   00000672
(PID.TID 0000.0001)  MDSREADVECTOR: opening file: tapelev2_34_the_main_loop_xx_sflux0.it0000.001.001.data
(PID.TID 0000.0001)  MDS_READ_RL_VEC: irec =  00000001   00000672
(PID.TID 0000.0001)  MDSREADVECTOR: opening file: tapelev2_35_the_main_loop_xx_sflux1.it0000.001.001.data
(PID.TID 0000.0001)  MDS_READ_RL_VEC: irec =  00000001   00000672
(PID.TID 0000.0001)  MDSREADVECTOR: opening file: tapelev2_36_the_main_loop_xx_tauu0.it0000.001.001.data
(PID.TID 0000.0001)  MDS_READ_RL_VEC: irec =  00000001   00000672
(PID.TID 0000.0001)  MDSREADVECTOR: opening file: tapelev2_37_the_main_loop_xx_tauu1.it0000.001.001.data
(PID.TID 0000.0001)  MDS_READ_RL_VEC: irec =  00000001   00000672
(PID.TID 0000.0001)  MDSREADVECTOR: opening file: tapelev2_38_the_main_loop_xx_tauv0.it0000.001.001.data
(PID.TID 0000.0001)  MDS_READ_RL_VEC: irec =  00000001   00000672
(PID.TID 0000.0001)  MDSREADVECTOR: opening file: tapelev2_39_the_main_loop_xx_tauv1.it0000.001.001.data
(PID.TID 0000.0001)  MDS_READ_RL_VEC: irec =  00000001   00000672
(PID.TID 0000.0001) 
(PID.TID 0000.0001)  exf_GetFFieldsRec: first, changed, fac:   T   F   0.16666667E+00
(PID.TID 0000.0001)  exf_GetFFieldsRec:      count0, count1:   2   3
(PID.TID 0000.0001) 
(PID.TID 0000.0001)  MDSREADFIELD: opening global file: PH_ustress__020_016_23.data
(PID.TID 0000.0001)  MDSREADFIELD: opening global file: PH_ustress__020_016_23.data
(PID.TID 0000.0001) 
(PID.TID 0000.0001)  exf_GetFFieldsRec: first, changed, fac:   T   F   0.16666667E+00
(PID.TID 0000.0001)  exf_GetFFieldsRec:      count0, count1:   2   3
(PID.TID 0000.0001) 
(PID.TID 0000.0001)  MDSREADFIELD: opening global file: PH_vstress__020_016_23.data
(PID.TID 0000.0001)  MDSREADFIELD: opening global file: PH_vstress__020_016_23.data
(PID.TID 0000.0001) 
(PID.TID 0000.0001)  exf_GetFFieldsRec: first, changed, fac:   T   F   0.20833333E+00
(PID.TID 0000.0001)  exf_GetFFieldsRec:      count0, count1:   1   2
(PID.TID 0000.0001) 
(PID.TID 0000.0001)  MDSREADFIELD: opening global file: PH_totflsfc__020_016_23.data
(PID.TID 0000.0001)  MDSREADFIELD: opening global file: PH_totflsfc__020_016_23.data
(PID.TID 0000.0001) 
(PID.TID 0000.0001)  exf_GetFFieldsRec: first, changed, fac:   T   F   0.20833333E+00
(PID.TID 0000.0001)  exf_GetFFieldsRec:      count0, count1:   1   2
(PID.TID 0000.0001) 
(PID.TID 0000.0001)  MDSREADFIELD: opening global file: PH_pratesfc__020_016_23.data
(PID.TID 0000.0001)  MDSREADFIELD: opening global file: PH_pratesfc__020_016_23.data
(PID.TID 0000.0001) 
(PID.TID 0000.0001)  exf_GetFFieldsRec: first, changed, fac:   T   F   0.20833333E+00
(PID.TID 0000.0001)  exf_GetFFieldsRec:      count0, count1:   1   2
(PID.TID 0000.0001) 
(PID.TID 0000.0001)  MDSREADFIELD: opening global file: PH_swflsfc__020_016_23.data
(PID.TID 0000.0001)  MDSREADFIELD: opening global file: PH_swflsfc__020_016_23.data
(PID.TID 0000.0001)  MDSREADFIELD: opening file: xx_hfl.0000000000.001.001.data
(PID.TID 0000.0001)  MDSREADFIELD: opening file: xx_hfl.0000000000.001.001.data
(PID.TID 0000.0001)  MDSREADFIELD: opening file: xx_sfl.0000000000.001.001.data
(PID.TID 0000.0001)  MDSREADFIELD: opening file: xx_sfl.0000000000.001.001.data
(PID.TID 0000.0001)  MDSREADFIELD: opening file: xx_tauu.0000000000.001.001.data
(PID.TID 0000.0001)  MDSREADFIELD: opening file: xx_tauu.0000000000.001.001.data
(PID.TID 0000.0001)  MDSREADFIELD: opening file: xx_tauv.0000000000.001.001.data
(PID.TID 0000.0001)  MDSREADFIELD: opening file: xx_tauv.0000000000.001.001.data
 cg2d: Sum(rhs),rhsMax =   7.66747776381749E-16  4.50737656431993E-01
(PID.TID 0000.0001)                    cg2d_init_res =    3.97910540907939E+00
(PID.TID 0000.0001)                       cg2d_iters =    50
(PID.TID 0000.0001)                         cg2d_res =    7.14109635808618E-14
(PID.TID 0000.0001) 
(PID.TID 0000.0001)  exf_GetFFieldsRec: first, changed, fac:   F   F   0.83333333E-01
(PID.TID 0000.0001)  exf_GetFFieldsRec:      count0, count1:   2   3
(PID.TID 0000.0001) 
(PID.TID 0000.0001) 
(PID.TID 0000.0001)  exf_GetFFieldsRec: first, changed, fac:   F   F   0.83333333E-01
(PID.TID 0000.0001)  exf_GetFFieldsRec:      count0, count1:   2   3
(PID.TID 0000.0001) 
(PID.TID 0000.0001) 
(PID.TID 0000.0001)  exf_GetFFieldsRec: first, changed, fac:   F   F   0.16666667E+00
(PID.TID 0000.0001)  exf_GetFFieldsRec:      count0, count1:   1   2
(PID.TID 0000.0001) 
(PID.TID 0000.0001) 
(PID.TID 0000.0001)  exf_GetFFieldsRec: first, changed, fac:   F   F   0.16666667E+00
(PID.TID 0000.0001)  exf_GetFFieldsRec:      count0, count1:   1   2
(PID.TID 0000.0001) 
(PID.TID 0000.0001) 
(PID.TID 0000.0001)  exf_GetFFieldsRec: first, changed, fac:   F   F   0.16666667E+00
(PID.TID 0000.0001)  exf_GetFFieldsRec:      count0, count1:   1   2
(PID.TID 0000.0001) 
 cg2d: Sum(rhs),rhsMax =   1.67661023953158E-15  5.55571937118767E-01
(PID.TID 0000.0001) 
(PID.TID 0000.0001)  exf_GetFFieldsRec: first, changed, fac:   F   T   0.10000000E+01
(PID.TID 0000.0001)  exf_GetFFieldsRec:      count0, count1:   3   4
(PID.TID 0000.0001) 
(PID.TID 0000.0001)  MDSREADFIELD: opening global file: PH_ustress__020_016_23.data
(PID.TID 0000.0001) 
(PID.TID 0000.0001)  exf_GetFFieldsRec: first, changed, fac:   F   T   0.10000000E+01
(PID.TID 0000.0001)  exf_GetFFieldsRec:      count0, count1:   3   4
(PID.TID 0000.0001) 
(PID.TID 0000.0001)  MDSREADFIELD: opening global file: PH_vstress__020_016_23.data
(PID.TID 0000.0001) 
(PID.TID 0000.0001)  exf_GetFFieldsRec: first, changed, fac:   F   F   0.12500000E+00
(PID.TID 0000.0001)  exf_GetFFieldsRec:      count0, count1:   1   2
(PID.TID 0000.0001) 
(PID.TID 0000.0001) 
(PID.TID 0000.0001)  exf_GetFFieldsRec: first, changed, fac:   F   F   0.12500000E+00
(PID.TID 0000.0001)  exf_GetFFieldsRec:      count0, count1:   1   2
(PID.TID 0000.0001) 
(PID.TID 0000.0001) 
(PID.TID 0000.0001)  exf_GetFFieldsRec: first, changed, fac:   F   F   0.12500000E+00
(PID.TID 0000.0001)  exf_GetFFieldsRec:      count0, count1:   1   2
(PID.TID 0000.0001) 
 cg2d: Sum(rhs),rhsMax =   3.28209681654812E-15  5.83078086204075E-01
(PID.TID 0000.0001) 
(PID.TID 0000.0001)  exf_GetFFieldsRec: first, changed, fac:   F   F   0.91666667E+00
(PID.TID 0000.0001)  exf_GetFFieldsRec:      count0, count1:   3   4
(PID.TID 0000.0001) 
(PID.TID 0000.0001) 
(PID.TID 0000.0001)  exf_GetFFieldsRec: first, changed, fac:   F   F   0.91666667E+00
(PID.TID 0000.0001)  exf_GetFFieldsRec:      count0, count1:   3   4
(PID.TID 0000.0001) 
(PID.TID 0000.0001) 
(PID.TID 0000.0001)  exf_GetFFieldsRec: first, changed, fac:   F   F   0.83333333E-01
(PID.TID 0000.0001)  exf_GetFFieldsRec:      count0, count1:   1   2
(PID.TID 0000.0001) 
(PID.TID 0000.0001) 
(PID.TID 0000.0001)  exf_GetFFieldsRec: first, changed, fac:   F   F   0.83333333E-01
(PID.TID 0000.0001)  exf_GetFFieldsRec:      count0, count1:   1   2
(PID.TID 0000.0001) 
(PID.TID 0000.0001) 
(PID.TID 0000.0001)  exf_GetFFieldsRec: first, changed, fac:   F   F   0.83333333E-01
(PID.TID 0000.0001)  exf_GetFFieldsRec:      count0, count1:   1   2
(PID.TID 0000.0001) 
 cg2d: Sum(rhs),rhsMax =   2.27769192395755E-15  6.06478011785966E-01
(PID.TID 0000.0001) 
(PID.TID 0000.0001)  exf_GetFFieldsRec: first, changed, fac:   F   F   0.91666667E+00
(PID.TID 0000.0001)  exf_GetFFieldsRec:      count0, count1:   3   4
(PID.TID 0000.0001) 
(PID.TID 0000.0001) 
(PID.TID 0000.0001)  exf_GetFFieldsRec: first, changed, fac:   F   F   0.91666667E+00
(PID.TID 0000.0001)  exf_GetFFieldsRec:      count0, count1:   3   4
(PID.TID 0000.0001) 
(PID.TID 0000.0001) 
(PID.TID 0000.0001)  exf_GetFFieldsRec: first, changed, fac:   F   F   0.83333333E-01
(PID.TID 0000.0001)  exf_GetFFieldsRec:      count0, count1:   1   2
(PID.TID 0000.0001) 
(PID.TID 0000.0001) 
(PID.TID 0000.0001)  exf_GetFFieldsRec: first, changed, fac:   F   F   0.83333333E-01
(PID.TID 0000.0001)  exf_GetFFieldsRec:      count0, count1:   1   2
(PID.TID 0000.0001) 
(PID.TID 0000.0001) 
(PID.TID 0000.0001)  exf_GetFFieldsRec: first, changed, fac:   F   F   0.83333333E-01
(PID.TID 0000.0001)  exf_GetFFieldsRec:      count0, count1:   1   2
(PID.TID 0000.0001) 
 cg2d: Sum(rhs),rhsMax =   0.00000000000000E+00  0.00000000000000E+00
(PID.TID 0000.0001) 
(PID.TID 0000.0001)  exf_GetFFieldsRec: first, changed, fac:   F   F   0.83333333E-01
(PID.TID 0000.0001)  exf_GetFFieldsRec:      count0, count1:   1   2
(PID.TID 0000.0001) 
(PID.TID 0000.0001) 
(PID.TID 0000.0001)  exf_GetFFieldsRec: first, changed, fac:   F   F   0.83333333E-01
(PID.TID 0000.0001)  exf_GetFFieldsRec:      count0, count1:   1   2
(PID.TID 0000.0001) 
(PID.TID 0000.0001) 
(PID.TID 0000.0001)  exf_GetFFieldsRec: first, changed, fac:   F   F   0.83333333E-01
(PID.TID 0000.0001)  exf_GetFFieldsRec:      count0, count1:   1   2
(PID.TID 0000.0001) 
(PID.TID 0000.0001) 
(PID.TID 0000.0001)  exf_GetFFieldsRec: first, changed, fac:   F   F   0.91666667E+00
(PID.TID 0000.0001)  exf_GetFFieldsRec:      count0, count1:   3   4
(PID.TID 0000.0001) 
(PID.TID 0000.0001) 
(PID.TID 0000.0001)  exf_GetFFieldsRec: first, changed, fac:   F   F   0.91666667E+00
(PID.TID 0000.0001)  exf_GetFFieldsRec:      count0, count1:   3   4
(PID.TID 0000.0001) 
(PID.TID 0000.0001) 
(PID.TID 0000.0001)  exf_GetFFieldsRec: first, changed, fac:   F   T   0.10000000E+01
(PID.TID 0000.0001)  exf_GetFFieldsRec:      count0, count1:   3   4
(PID.TID 0000.0001) 
(PID.TID 0000.0001)  MDSREADFIELD: opening global file: PH_ustress__020_016_23.data
(PID.TID 0000.0001) 
(PID.TID 0000.0001)  exf_GetFFieldsRec: first, changed, fac:   F   T   0.10000000E+01
(PID.TID 0000.0001)  exf_GetFFieldsRec:      count0, count1:   3   4
(PID.TID 0000.0001) 
(PID.TID 0000.0001)  MDSREADFIELD: opening global file: PH_vstress__020_016_23.data
(PID.TID 0000.0001) 
(PID.TID 0000.0001)  exf_GetFFieldsRec: first, changed, fac:   F   F   0.12500000E+00
(PID.TID 0000.0001)  exf_GetFFieldsRec:      count0, count1:   1   2
(PID.TID 0000.0001) 
(PID.TID 0000.0001) 
(PID.TID 0000.0001)  exf_GetFFieldsRec: first, changed, fac:   F   F   0.12500000E+00
(PID.TID 0000.0001)  exf_GetFFieldsRec:      count0, count1:   1   2
(PID.TID 0000.0001) 
(PID.TID 0000.0001) 
(PID.TID 0000.0001)  exf_GetFFieldsRec: first, changed, fac:   F   F   0.12500000E+00
(PID.TID 0000.0001)  exf_GetFFieldsRec:      count0, count1:   1   2
(PID.TID 0000.0001) 
 cg2d: Sum(rhs),rhsMax =   2.72351585728359E-16  2.18235869401486E-04
(PID.TID 0000.0001) 
(PID.TID 0000.0001)  exf_GetFFieldsRec: first, changed, fac:   F   F   0.12500000E+00
(PID.TID 0000.0001)  exf_GetFFieldsRec:      count0, count1:   1   2
(PID.TID 0000.0001) 
(PID.TID 0000.0001) 
(PID.TID 0000.0001)  exf_GetFFieldsRec: first, changed, fac:   F   F   0.12500000E+00
(PID.TID 0000.0001)  exf_GetFFieldsRec:      count0, count1:   1   2
(PID.TID 0000.0001) 
(PID.TID 0000.0001) 
(PID.TID 0000.0001)  exf_GetFFieldsRec: first, changed, fac:   F   F   0.12500000E+00
(PID.TID 0000.0001)  exf_GetFFieldsRec:      count0, count1:   1   2
(PID.TID 0000.0001) 
(PID.TID 0000.0001) 
(PID.TID 0000.0001)  exf_GetFFieldsRec: first, changed, fac:   F   T   0.10000000E+01
(PID.TID 0000.0001)  exf_GetFFieldsRec:      count0, count1:   3   4
(PID.TID 0000.0001) 
(PID.TID 0000.0001)  MDSREADFIELD: opening global file: PH_vstress__020_016_23.data
(PID.TID 0000.0001) 
(PID.TID 0000.0001)  exf_GetFFieldsRec: first, changed, fac:   F   T   0.10000000E+01
(PID.TID 0000.0001)  exf_GetFFieldsRec:      count0, count1:   3   4
(PID.TID 0000.0001) 
(PID.TID 0000.0001)  MDSREADFIELD: opening global file: PH_ustress__020_016_23.data
(PID.TID 0000.0001) 
(PID.TID 0000.0001)  exf_GetFFieldsRec: first, changed, fac:   F   F   0.83333333E-01
(PID.TID 0000.0001)  exf_GetFFieldsRec:      count0, count1:   2   3
(PID.TID 0000.0001) 
(PID.TID 0000.0001) 
(PID.TID 0000.0001)  exf_GetFFieldsRec: first, changed, fac:   F   F   0.83333333E-01
(PID.TID 0000.0001)  exf_GetFFieldsRec:      count0, count1:   2   3
(PID.TID 0000.0001) 
(PID.TID 0000.0001) 
(PID.TID 0000.0001)  exf_GetFFieldsRec: first, changed, fac:   F   F   0.16666667E+00
(PID.TID 0000.0001)  exf_GetFFieldsRec:      count0, count1:   1   2
(PID.TID 0000.0001) 
(PID.TID 0000.0001) 
(PID.TID 0000.0001)  exf_GetFFieldsRec: first, changed, fac:   F   F   0.16666667E+00
(PID.TID 0000.0001)  exf_GetFFieldsRec:      count0, count1:   1   2
(PID.TID 0000.0001) 
(PID.TID 0000.0001) 
(PID.TID 0000.0001)  exf_GetFFieldsRec: first, changed, fac:   F   F   0.16666667E+00
(PID.TID 0000.0001)  exf_GetFFieldsRec:      count0, count1:   1   2
(PID.TID 0000.0001) 
 cg2d: Sum(rhs),rhsMax =   7.91901266783412E-16  3.67962325483216E-04
(PID.TID 0000.0001) 
(PID.TID 0000.0001)  exf_GetFFieldsRec: first, changed, fac:   F   F   0.16666667E+00
(PID.TID 0000.0001)  exf_GetFFieldsRec:      count0, count1:   1   2
(PID.TID 0000.0001) 
(PID.TID 0000.0001) 
(PID.TID 0000.0001)  exf_GetFFieldsRec: first, changed, fac:   F   F   0.16666667E+00
(PID.TID 0000.0001)  exf_GetFFieldsRec:      count0, count1:   1   2
(PID.TID 0000.0001) 
(PID.TID 0000.0001) 
(PID.TID 0000.0001)  exf_GetFFieldsRec: first, changed, fac:   F   F   0.16666667E+00
(PID.TID 0000.0001)  exf_GetFFieldsRec:      count0, count1:   1   2
(PID.TID 0000.0001) 
(PID.TID 0000.0001) 
(PID.TID 0000.0001)  exf_GetFFieldsRec: first, changed, fac:   F   F   0.83333333E-01
(PID.TID 0000.0001)  exf_GetFFieldsRec:      count0, count1:   2   3
(PID.TID 0000.0001) 
(PID.TID 0000.0001) 
(PID.TID 0000.0001)  exf_GetFFieldsRec: first, changed, fac:   F   F   0.83333333E-01
(PID.TID 0000.0001)  exf_GetFFieldsRec:      count0, count1:   2   3
(PID.TID 0000.0001) 
(PID.TID 0000.0001)  MDSREADFIELD: opening file: adpsbar.0000000000.001.001.data
(PID.TID 0000.0001) 
(PID.TID 0000.0001)  exf_GetFFieldsRec: first, changed, fac:   T   F   0.16666667E+00
(PID.TID 0000.0001)  exf_GetFFieldsRec:      count0, count1:   2   3
(PID.TID 0000.0001) 
(PID.TID 0000.0001)  MDSREADFIELD: opening global file: PH_ustress__020_016_23.data
(PID.TID 0000.0001)  MDSREADFIELD: opening global file: PH_ustress__020_016_23.data
(PID.TID 0000.0001) 
(PID.TID 0000.0001)  exf_GetFFieldsRec: first, changed, fac:   T   F   0.16666667E+00
(PID.TID 0000.0001)  exf_GetFFieldsRec:      count0, count1:   2   3
(PID.TID 0000.0001) 
(PID.TID 0000.0001)  MDSREADFIELD: opening global file: PH_vstress__020_016_23.data
(PID.TID 0000.0001)  MDSREADFIELD: opening global file: PH_vstress__020_016_23.data
(PID.TID 0000.0001) 
(PID.TID 0000.0001)  exf_GetFFieldsRec: first, changed, fac:   T   F   0.20833333E+00
(PID.TID 0000.0001)  exf_GetFFieldsRec:      count0, count1:   1   2
(PID.TID 0000.0001) 
(PID.TID 0000.0001)  MDSREADFIELD: opening global file: PH_totflsfc__020_016_23.data
(PID.TID 0000.0001)  MDSREADFIELD: opening global file: PH_totflsfc__020_016_23.data
(PID.TID 0000.0001) 
(PID.TID 0000.0001)  exf_GetFFieldsRec: first, changed, fac:   T   F   0.20833333E+00
(PID.TID 0000.0001)  exf_GetFFieldsRec:      count0, count1:   1   2
(PID.TID 0000.0001) 
(PID.TID 0000.0001)  MDSREADFIELD: opening global file: PH_pratesfc__020_016_23.data
(PID.TID 0000.0001)  MDSREADFIELD: opening global file: PH_pratesfc__020_016_23.data
(PID.TID 0000.0001) 
(PID.TID 0000.0001)  exf_GetFFieldsRec: first, changed, fac:   T   F   0.20833333E+00
(PID.TID 0000.0001)  exf_GetFFieldsRec:      count0, count1:   1   2
(PID.TID 0000.0001) 
(PID.TID 0000.0001)  MDSREADFIELD: opening global file: PH_swflsfc__020_016_23.data
(PID.TID 0000.0001)  MDSREADFIELD: opening global file: PH_swflsfc__020_016_23.data
(PID.TID 0000.0001)  MDSREADFIELD: opening file: xx_hfl.0000000000.001.001.data
(PID.TID 0000.0001)  MDSREADFIELD: opening file: xx_hfl.0000000000.001.001.data
(PID.TID 0000.0001)  MDSREADFIELD: opening file: xx_sfl.0000000000.001.001.data
(PID.TID 0000.0001)  MDSREADFIELD: opening file: xx_sfl.0000000000.001.001.data
(PID.TID 0000.0001)  MDSREADFIELD: opening file: xx_tauu.0000000000.001.001.data
(PID.TID 0000.0001)  MDSREADFIELD: opening file: xx_tauu.0000000000.001.001.data
(PID.TID 0000.0001)  MDSREADFIELD: opening file: xx_tauv.0000000000.001.001.data
(PID.TID 0000.0001)  MDSREADFIELD: opening file: xx_tauv.0000000000.001.001.data
 cg2d: Sum(rhs),rhsMax =   2.71310751642773E-15  5.06289524579204E-04
(PID.TID 0000.0001)  MDSREADFIELD: opening file: adxx_tauv.0000000000.001.001.data
(PID.TID 0000.0001)  MDSREADFIELD: opening file: adxx_tauv.0000000000.001.001.data
(PID.TID 0000.0001)  MDSREADFIELD: opening file: adxx_tauu.0000000000.001.001.data
(PID.TID 0000.0001)  MDSREADFIELD: opening file: adxx_tauu.0000000000.001.001.data
(PID.TID 0000.0001)  MDSREADFIELD: opening file: adxx_sfl.0000000000.001.001.data
(PID.TID 0000.0001)  MDSREADFIELD: opening file: adxx_sfl.0000000000.001.001.data
(PID.TID 0000.0001)  MDSREADFIELD: opening file: adxx_hfl.0000000000.001.001.data
(PID.TID 0000.0001)  MDSREADFIELD: opening file: adxx_hfl.0000000000.001.001.data
(PID.TID 0000.0001) 
(PID.TID 0000.0001)  exf_GetFFieldsRec: first, changed, fac:   T   F   0.20833333E+00
(PID.TID 0000.0001)  exf_GetFFieldsRec:      count0, count1:   1   2
(PID.TID 0000.0001) 
(PID.TID 0000.0001)  MDSREADFIELD: opening global file: PH_swflsfc__020_016_23.data
(PID.TID 0000.0001)  MDSREADFIELD: opening global file: PH_swflsfc__020_016_23.data
(PID.TID 0000.0001) 
(PID.TID 0000.0001)  exf_GetFFieldsRec: first, changed, fac:   T   F   0.20833333E+00
(PID.TID 0000.0001)  exf_GetFFieldsRec:      count0, count1:   1   2
(PID.TID 0000.0001) 
(PID.TID 0000.0001)  MDSREADFIELD: opening global file: PH_pratesfc__020_016_23.data
(PID.TID 0000.0001)  MDSREADFIELD: opening global file: PH_pratesfc__020_016_23.data
(PID.TID 0000.0001) 
(PID.TID 0000.0001)  exf_GetFFieldsRec: first, changed, fac:   T   F   0.20833333E+00
(PID.TID 0000.0001)  exf_GetFFieldsRec:      count0, count1:   1   2
(PID.TID 0000.0001) 
(PID.TID 0000.0001)  MDSREADFIELD: opening global file: PH_totflsfc__020_016_23.data
(PID.TID 0000.0001)  MDSREADFIELD: opening global file: PH_totflsfc__020_016_23.data
(PID.TID 0000.0001) 
(PID.TID 0000.0001)  exf_GetFFieldsRec: first, changed, fac:   T   F   0.16666667E+00
(PID.TID 0000.0001)  exf_GetFFieldsRec:      count0, count1:   2   3
(PID.TID 0000.0001) 
(PID.TID 0000.0001)  MDSREADFIELD: opening global file: PH_vstress__020_016_23.data
(PID.TID 0000.0001)  MDSREADFIELD: opening global file: PH_vstress__020_016_23.data
(PID.TID 0000.0001) 
(PID.TID 0000.0001)  exf_GetFFieldsRec: first, changed, fac:   T   F   0.16666667E+00
(PID.TID 0000.0001)  exf_GetFFieldsRec:      count0, count1:   2   3
(PID.TID 0000.0001) 
(PID.TID 0000.0001)  MDSREADFIELD: opening global file: PH_ustress__020_016_23.data
(PID.TID 0000.0001)  MDSREADFIELD: opening global file: PH_ustress__020_016_23.data
(PID.TID 0000.0001)  MDSREADFIELD: opening file: xx_tauv.0000000000.001.001.data
(PID.TID 0000.0001)  MDSREADFIELD: opening file: xx_tauv.0000000000.001.001.data
(PID.TID 0000.0001)  MDSREADFIELD: opening file: xx_tauv.0000000000.001.001.data
(PID.TID 0000.0001)  MDSREADFIELD: opening file: adxx_tauv.0000000000.001.001.data
(PID.TID 0000.0001)  MDSREADFIELD: opening file: xx_tauv.0000000000.001.001.data
(PID.TID 0000.0001)  MDSREADFIELD: opening file: adxx_tauv.0000000000.001.001.data
(PID.TID 0000.0001)  MDSREADFIELD: opening file: xx_tauv.0000000000.001.001.data
(PID.TID 0000.0001)  MDSREADFIELD: opening file: xx_tauv.0000000000.001.001.data
(PID.TID 0000.0001)  MDSREADFIELD: opening file: adxx_tauv.0000000000.001.001.data
(PID.TID 0000.0001)  MDSREADFIELD: opening file: adxx_tauv.0000000000.001.001.data
(PID.TID 0000.0001)  MDSREADFIELD: opening file: xx_tauu.0000000000.001.001.data
(PID.TID 0000.0001)  MDSREADFIELD: opening file: xx_tauu.0000000000.001.001.data
(PID.TID 0000.0001)  MDSREADFIELD: opening file: xx_tauu.0000000000.001.001.data
(PID.TID 0000.0001)  MDSREADFIELD: opening file: adxx_tauu.0000000000.001.001.data
(PID.TID 0000.0001)  MDSREADFIELD: opening file: xx_tauu.0000000000.001.001.data
(PID.TID 0000.0001)  MDSREADFIELD: opening file: adxx_tauu.0000000000.001.001.data
(PID.TID 0000.0001)  MDSREADFIELD: opening file: xx_tauu.0000000000.001.001.data
(PID.TID 0000.0001)  MDSREADFIELD: opening file: xx_tauu.0000000000.001.001.data
(PID.TID 0000.0001)  MDSREADFIELD: opening file: adxx_tauu.0000000000.001.001.data
(PID.TID 0000.0001)  MDSREADFIELD: opening file: adxx_tauu.0000000000.001.001.data
(PID.TID 0000.0001)  MDSREADFIELD: opening file: xx_sfl.0000000000.001.001.data
(PID.TID 0000.0001)  MDSREADFIELD: opening file: xx_sfl.0000000000.001.001.data
(PID.TID 0000.0001)  MDSREADFIELD: opening file: xx_sfl.0000000000.001.001.data
(PID.TID 0000.0001)  MDSREADFIELD: opening file: adxx_sfl.0000000000.001.001.data
(PID.TID 0000.0001)  MDSREADFIELD: opening file: xx_sfl.0000000000.001.001.data
(PID.TID 0000.0001)  MDSREADFIELD: opening file: adxx_sfl.0000000000.001.001.data
(PID.TID 0000.0001)  MDSREADFIELD: opening file: xx_sfl.0000000000.001.001.data
(PID.TID 0000.0001)  MDSREADFIELD: opening file: xx_sfl.0000000000.001.001.data
(PID.TID 0000.0001)  MDSREADFIELD: opening file: adxx_sfl.0000000000.001.001.data
(PID.TID 0000.0001)  MDSREADFIELD: opening file: adxx_sfl.0000000000.001.001.data
(PID.TID 0000.0001)  MDSREADFIELD: opening file: xx_hfl.0000000000.001.001.data
(PID.TID 0000.0001)  MDSREADFIELD: opening file: xx_hfl.0000000000.001.001.data
(PID.TID 0000.0001)  MDSREADFIELD: opening file: xx_hfl.0000000000.001.001.data
(PID.TID 0000.0001)  MDSREADFIELD: opening file: adxx_hfl.0000000000.001.001.data
(PID.TID 0000.0001)  MDSREADFIELD: opening file: xx_hfl.0000000000.001.001.data
(PID.TID 0000.0001)  MDSREADFIELD: opening file: adxx_hfl.0000000000.001.001.data
(PID.TID 0000.0001)  MDSREADFIELD: opening file: xx_hfl.0000000000.001.001.data
(PID.TID 0000.0001)  MDSREADFIELD: opening file: xx_hfl.0000000000.001.001.data
(PID.TID 0000.0001)  MDSREADFIELD: opening file: adxx_hfl.0000000000.001.001.data
(PID.TID 0000.0001)  MDSREADFIELD: opening file: adxx_hfl.0000000000.001.001.data
(PID.TID 0000.0001)  MDSREADFIELD: opening global file: PH_LevCli.ptmp__020_016_23.data
(PID.TID 0000.0001) // =======================================================
(PID.TID 0000.0001) // Field Initial Temperature at iteration          1
(PID.TID 0000.0001) // CMIN =          1.840084838867188E+01
(PID.TID 0000.0001) // CMAX =          2.607793426513672E+01
(PID.TID 0000.0001) // CINT =          2.843365139431424E-01
(PID.TID 0000.0001) // SYMBOLS (CMIN->CMAX): -abcdefghijklmnopqrstuvwxyz+
(PID.TID 0000.0001) //                  0.0: .
(PID.TID 0000.0001) // RANGE I (Lo:Hi:Step):(   1:  20:   1)
(PID.TID 0000.0001) // RANGE J (Lo:Hi:Step):(  16:   1:  -1)
(PID.TID 0000.0001) // RANGE K (Lo:Hi:Step):(   1:   1:   1)
(PID.TID 0000.0001) // =======================================================
(PID.TID 0000.0001) K =   1
(PID.TID 0000.0001)                I=10      I=20
(PID.TID 0000.0001) |--J--|123456789|123456789|
(PID.TID 0000.0001)     16 ....................
(PID.TID 0000.0001)     15 .jihhgfeedddcba---a.
(PID.TID 0000.0001)     14 .kjiihggffeedcbbabb.
(PID.TID 0000.0001)     13 .lkkjiiiihgfedccbc..
(PID.TID 0000.0001)     12 .mllkkjjjihgfedcc...
(PID.TID 0000.0001)     11 .onnmmllkjihgfeec...
(PID.TID 0000.0001)     10 .rrqqponmmlkihf.....
(PID.TID 0000.0001)      9 .utssrqponmljh......
(PID.TID 0000.0001)      8 .vuttsrqponlig......
(PID.TID 0000.0001)      7 .vuutsrrponkif......
(PID.TID 0000.0001)      6 .wvvuutsrqomjh......
(PID.TID 0000.0001)      5 .yxwwwvutsrpnl......
(PID.TID 0000.0001)      4 .zyyyxxwwvutrq......
(PID.TID 0000.0001)      3 .zzzzyyxxxxwvu......
(PID.TID 0000.0001)      2 .+++++zzz+++zy......
(PID.TID 0000.0001)      1 ....................
(PID.TID 0000.0001) // =======================================================
(PID.TID 0000.0001) // END OF FIELD                                          =
(PID.TID 0000.0001) // =======================================================
(PID.TID 0000.0001) 
(PID.TID 0000.0001)  MDSREADFIELD: opening global file: PH_LevCli.salt__020_016_23.data
(PID.TID 0000.0001) // =======================================================
(PID.TID 0000.0001) // Field Initial Salinity at iteration          1
(PID.TID 0000.0001) // CMIN =          3.501070022583008E+01
(PID.TID 0000.0001) // CMAX =          3.739887619018555E+01
(PID.TID 0000.0001) // CINT =          8.845096164279515E-02
(PID.TID 0000.0001) // SYMBOLS (CMIN->CMAX): -abcdefghijklmnopqrstuvwxyz+
(PID.TID 0000.0001) //                  0.0: .
(PID.TID 0000.0001) // RANGE I (Lo:Hi:Step):(   1:  20:   1)
(PID.TID 0000.0001) // RANGE J (Lo:Hi:Step):(  16:   1:  -1)
(PID.TID 0000.0001) // RANGE K (Lo:Hi:Step):(   1:   1:   1)
(PID.TID 0000.0001) // =======================================================
(PID.TID 0000.0001) K =   1
(PID.TID 0000.0001)                I=10      I=20
(PID.TID 0000.0001) |--J--|123456789|123456789|
(PID.TID 0000.0001)     16 ....................
(PID.TID 0000.0001)     15 .oonnnnmmnnnnnnmllk.
(PID.TID 0000.0001)     14 .ppppoooopppppppooo.
(PID.TID 0000.0001)     13 .qqqqqrrrrrrqqqqqq..
(PID.TID 0000.0001)     12 .tttttttttttssrqp...
(PID.TID 0000.0001)     11 .wwwwwwvvvvuusrpn...
(PID.TID 0000.0001)     10 .zzyyyyyxxwvusr.....
(PID.TID 0000.0001)      9 .++zzzzyxxwutr......
(PID.TID 0000.0001)      8 .+zzyyyxwvusrp......
(PID.TID 0000.0001)      7 .xxxxwwutsrpnm......
(PID.TID 0000.0001)      6 .uuuuutsqponlj......
(PID.TID 0000.0001)      5 .rrrrqqponmkji......
(PID.TID 0000.0001)      4 .poooonmmlkihg......
(PID.TID 0000.0001)      3 .mmlllllkjihec......
(PID.TID 0000.0001)      2 .jjjkkkjjihfd-......
(PID.TID 0000.0001)      1 ....................
(PID.TID 0000.0001) // =======================================================
(PID.TID 0000.0001) // END OF FIELD                                          =
(PID.TID 0000.0001) // =======================================================
(PID.TID 0000.0001) 
(PID.TID 0000.0001) Start initial hydrostatic pressure computation
(PID.TID 0000.0001) Pressure is predetermined for buoyancyRelation OCEANIC
(PID.TID 0000.0001) 
(PID.TID 0000.0001)  MDSREADFIELD: opening global file: PH_LevCli.ptmp__020_016_23.data
(PID.TID 0000.0001) // =======================================================
(PID.TID 0000.0001) // Field Initial Temperature at iteration          1
(PID.TID 0000.0001) // CMIN =          1.840084838867188E+01
(PID.TID 0000.0001) // CMAX =          2.607793426513672E+01
(PID.TID 0000.0001) // CINT =          2.843365139431424E-01
(PID.TID 0000.0001) // SYMBOLS (CMIN->CMAX): -abcdefghijklmnopqrstuvwxyz+
(PID.TID 0000.0001) //                  0.0: .
(PID.TID 0000.0001) // RANGE I (Lo:Hi:Step):(   1:  20:   1)
(PID.TID 0000.0001) // RANGE J (Lo:Hi:Step):(  16:   1:  -1)
(PID.TID 0000.0001) // RANGE K (Lo:Hi:Step):(   1:   1:   1)
(PID.TID 0000.0001) // =======================================================
(PID.TID 0000.0001) K =   1
(PID.TID 0000.0001)                I=10      I=20
(PID.TID 0000.0001) |--J--|123456789|123456789|
(PID.TID 0000.0001)     16 ....................
(PID.TID 0000.0001)     15 .jihhgfeedddcba---a.
(PID.TID 0000.0001)     14 .kjiihggffeedcbbabb.
(PID.TID 0000.0001)     13 .lkkjiiiihgfedccbc..
(PID.TID 0000.0001)     12 .mllkkjjjihgfedcc...
(PID.TID 0000.0001)     11 .onnmmllkjihgfeec...
(PID.TID 0000.0001)     10 .rrqqponmmlkihf.....
(PID.TID 0000.0001)      9 .utssrqponmljh......
(PID.TID 0000.0001)      8 .vuttsrqponlig......
(PID.TID 0000.0001)      7 .vuutsrrponkif......
(PID.TID 0000.0001)      6 .wvvuutsrqomjh......
(PID.TID 0000.0001)      5 .yxwwwvutsrpnl......
(PID.TID 0000.0001)      4 .zyyyxxwwvutrq......
(PID.TID 0000.0001)      3 .zzzzyyxxxxwvu......
(PID.TID 0000.0001)      2 .+++++zzz+++zy......
(PID.TID 0000.0001)      1 ....................
(PID.TID 0000.0001) // =======================================================
(PID.TID 0000.0001) // END OF FIELD                                          =
(PID.TID 0000.0001) // =======================================================
(PID.TID 0000.0001) 
(PID.TID 0000.0001)  MDSREADFIELD: opening global file: PH_LevCli.salt__020_016_23.data
(PID.TID 0000.0001) // =======================================================
(PID.TID 0000.0001) // Field Initial Salinity at iteration          1
(PID.TID 0000.0001) // CMIN =          3.501070022583008E+01
(PID.TID 0000.0001) // CMAX =          3.739887619018555E+01
(PID.TID 0000.0001) // CINT =          8.845096164279515E-02
(PID.TID 0000.0001) // SYMBOLS (CMIN->CMAX): -abcdefghijklmnopqrstuvwxyz+
(PID.TID 0000.0001) //                  0.0: .
(PID.TID 0000.0001) // RANGE I (Lo:Hi:Step):(   1:  20:   1)
(PID.TID 0000.0001) // RANGE J (Lo:Hi:Step):(  16:   1:  -1)
(PID.TID 0000.0001) // RANGE K (Lo:Hi:Step):(   1:   1:   1)
(PID.TID 0000.0001) // =======================================================
(PID.TID 0000.0001) K =   1
(PID.TID 0000.0001)                I=10      I=20
(PID.TID 0000.0001) |--J--|123456789|123456789|
(PID.TID 0000.0001)     16 ....................
(PID.TID 0000.0001)     15 .oonnnnmmnnnnnnmllk.
(PID.TID 0000.0001)     14 .ppppoooopppppppooo.
(PID.TID 0000.0001)     13 .qqqqqrrrrrrqqqqqq..
(PID.TID 0000.0001)     12 .tttttttttttssrqp...
(PID.TID 0000.0001)     11 .wwwwwwvvvvuusrpn...
(PID.TID 0000.0001)     10 .zzyyyyyxxwvusr.....
(PID.TID 0000.0001)      9 .++zzzzyxxwutr......
(PID.TID 0000.0001)      8 .+zzyyyxwvusrp......
(PID.TID 0000.0001)      7 .xxxxwwutsrpnm......
(PID.TID 0000.0001)      6 .uuuuutsqponlj......
(PID.TID 0000.0001)      5 .rrrrqqponmkji......
(PID.TID 0000.0001)      4 .poooonmmlkihg......
(PID.TID 0000.0001)      3 .mmlllllkjihec......
(PID.TID 0000.0001)      2 .jjjkkkjjihfd-......
(PID.TID 0000.0001)      1 ....................
(PID.TID 0000.0001) // =======================================================
(PID.TID 0000.0001) // END OF FIELD                                          =
(PID.TID 0000.0001) // =======================================================
(PID.TID 0000.0001) 
(PID.TID 0000.0001) Start initial hydrostatic pressure computation
(PID.TID 0000.0001) Pressure is predetermined for buoyancyRelation OCEANIC
(PID.TID 0000.0001) 
(PID.TID 0000.0001)  MDSREADFIELD: opening file: xx_theta.0000000000.001.001.data
(PID.TID 0000.0001)  MDSREADFIELD: opening file: adxx_salt.0000000000.001.001.data
(PID.TID 0000.0001)  MDSREADFIELD: opening file: adxx_salt.0000000000.001.001.data
(PID.TID 0000.0001)  MDSREADFIELD: opening file: adxx_salt.0000000000.001.001.data
(PID.TID 0000.0001)  MDSREADFIELD: opening file: adxx_salt.0000000000.001.001.data
(PID.TID 0000.0001)  MDSREADFIELD: opening file: adxx_salt.0000000000.001.001.data
(PID.TID 0000.0001)  MDSREADFIELD: opening file: adxx_salt.0000000000.001.001.data
(PID.TID 0000.0001)  MDSREADFIELD: opening file: adxx_salt.0000000000.001.001.data
(PID.TID 0000.0001)  MDSREADFIELD: opening file: adxx_salt.0000000000.001.001.data
(PID.TID 0000.0001)  MDSREADFIELD: opening file: adxx_salt.0000000000.001.001.data
(PID.TID 0000.0001)  MDSREADFIELD: opening file: adxx_salt.0000000000.001.001.data
(PID.TID 0000.0001)  MDSREADFIELD: opening file: adxx_salt.0000000000.001.001.data
(PID.TID 0000.0001)  MDSREADFIELD: opening file: adxx_salt.0000000000.001.001.data
(PID.TID 0000.0001)  MDSREADFIELD: opening file: adxx_salt.0000000000.001.001.data
(PID.TID 0000.0001)  MDSREADFIELD: opening file: adxx_salt.0000000000.001.001.data
(PID.TID 0000.0001)  MDSREADFIELD: opening file: adxx_salt.0000000000.001.001.data
(PID.TID 0000.0001)  MDSREADFIELD: opening file: adxx_salt.0000000000.001.001.data
(PID.TID 0000.0001)  MDSREADFIELD: opening file: adxx_salt.0000000000.001.001.data
(PID.TID 0000.0001)  MDSREADFIELD: opening file: adxx_salt.0000000000.001.001.data
(PID.TID 0000.0001)  MDSREADFIELD: opening file: adxx_salt.0000000000.001.001.data
(PID.TID 0000.0001)  MDSREADFIELD: opening file: adxx_salt.0000000000.001.001.data
(PID.TID 0000.0001)  MDSREADFIELD: opening file: adxx_salt.0000000000.001.001.data
(PID.TID 0000.0001)  MDSREADFIELD: opening file: adxx_salt.0000000000.001.001.data
(PID.TID 0000.0001)  MDSREADFIELD: opening file: adxx_salt.0000000000.001.001.data
(PID.TID 0000.0001)  MDSREADFIELD: opening file: adxx_theta.0000000000.001.001.data
(PID.TID 0000.0001)  MDSREADFIELD: opening file: adxx_theta.0000000000.001.001.data
(PID.TID 0000.0001)  MDSREADFIELD: opening file: adxx_theta.0000000000.001.001.data
(PID.TID 0000.0001)  MDSREADFIELD: opening file: adxx_theta.0000000000.001.001.data
(PID.TID 0000.0001)  MDSREADFIELD: opening file: adxx_theta.0000000000.001.001.data
(PID.TID 0000.0001)  MDSREADFIELD: opening file: adxx_theta.0000000000.001.001.data
(PID.TID 0000.0001)  MDSREADFIELD: opening file: adxx_theta.0000000000.001.001.data
(PID.TID 0000.0001)  MDSREADFIELD: opening file: adxx_theta.0000000000.001.001.data
(PID.TID 0000.0001)  MDSREADFIELD: opening file: adxx_theta.0000000000.001.001.data
(PID.TID 0000.0001)  MDSREADFIELD: opening file: adxx_theta.0000000000.001.001.data
(PID.TID 0000.0001)  MDSREADFIELD: opening file: adxx_theta.0000000000.001.001.data
(PID.TID 0000.0001)  MDSREADFIELD: opening file: adxx_theta.0000000000.001.001.data
(PID.TID 0000.0001)  MDSREADFIELD: opening file: adxx_theta.0000000000.001.001.data
(PID.TID 0000.0001)  MDSREADFIELD: opening file: adxx_theta.0000000000.001.001.data
(PID.TID 0000.0001)  MDSREADFIELD: opening file: adxx_theta.0000000000.001.001.data
(PID.TID 0000.0001)  MDSREADFIELD: opening file: adxx_theta.0000000000.001.001.data
(PID.TID 0000.0001)  MDSREADFIELD: opening file: adxx_theta.0000000000.001.001.data
(PID.TID 0000.0001)  MDSREADFIELD: opening file: adxx_theta.0000000000.001.001.data
(PID.TID 0000.0001)  MDSREADFIELD: opening file: adxx_theta.0000000000.001.001.data
(PID.TID 0000.0001)  MDSREADFIELD: opening file: adxx_theta.0000000000.001.001.data
(PID.TID 0000.0001)  MDSREADFIELD: opening file: adxx_theta.0000000000.001.001.data
(PID.TID 0000.0001)  MDSREADFIELD: opening file: adxx_theta.0000000000.001.001.data
(PID.TID 0000.0001)  MDSREADFIELD: opening file: adxx_theta.0000000000.001.001.data
(PID.TID 0000.0001)  MDSREADFIELD_GL: opening file: hFacC.001.001.data
(PID.TID 0000.0001)  MDSREADFIELD_GL: opening file: adxx_theta.0000000000.001.001.data
(PID.TID 0000.0001)  MDSREADFIELD_GL: opening file: hFacC.001.001.data
(PID.TID 0000.0001)  MDSREADFIELD_GL: opening file: adxx_salt.0000000000.001.001.data
(PID.TID 0000.0001)  MDSREADFIELD_GL: opening file: whflux.001.001.data
(PID.TID 0000.0001)  MDSREADFIELD_GL: opening file: hFacC.001.001.data
(PID.TID 0000.0001)  MDSREADFIELD_GL: opening file: adxx_hfl.0000000000.001.001.data
(PID.TID 0000.0001)  MDSREADFIELD_GL: opening file: adxx_hfl.0000000000.001.001.data
(PID.TID 0000.0001)  MDSREADFIELD_GL: opening file: wsflux.001.001.data
(PID.TID 0000.0001)  MDSREADFIELD_GL: opening file: hFacC.001.001.data
(PID.TID 0000.0001)  MDSREADFIELD_GL: opening file: adxx_sfl.0000000000.001.001.data
(PID.TID 0000.0001)  MDSREADFIELD_GL: opening file: adxx_sfl.0000000000.001.001.data
(PID.TID 0000.0001)  MDSREADFIELD_GL: opening file: wtauu.001.001.data
(PID.TID 0000.0001)  MDSREADFIELD_GL: opening file: maskW.001.001.data
(PID.TID 0000.0001)  MDSREADFIELD_GL: opening file: adxx_tauu.0000000000.001.001.data
(PID.TID 0000.0001)  MDSREADFIELD_GL: opening file: adxx_tauu.0000000000.001.001.data
(PID.TID 0000.0001)  MDSREADFIELD_GL: opening file: wtauv.001.001.data
(PID.TID 0000.0001)  MDSREADFIELD_GL: opening file: maskS.001.001.data
(PID.TID 0000.0001)  MDSREADFIELD_GL: opening file: adxx_tauv.0000000000.001.001.data
(PID.TID 0000.0001)  MDSREADFIELD_GL: opening file: adxx_tauv.0000000000.001.001.data
 ph-grd 3 -------------------------------
 ph-grd 3  proc    #    i    j    k            fc ref        fc + eps        fc - eps
 ph-grd 3  proc    #    i    j    k          adj grad         fd grad      1 - fd/adj
(PID.TID 0000.0001)  MDSREADFIELD: opening file: adxx_hfl.0000000000.001.001.data
(PID.TID 0000.0001)  MDSREADFIELD: opening file: xx_hfl.0000000000.001.001.data
(PID.TID 0000.0001) 
(PID.TID 0000.0001)  cal_TimeStamp: iter =          0 time =  0.00000000E+00
(PID.TID 0000.0001)                 date =   19920102      220000
(PID.TID 0000.0001) 
(PID.TID 0000.0001) %MON fCori_max                    =   9.5419917861011E-05
(PID.TID 0000.0001) %MON fCori_min                    =   2.7752043431195E-05
(PID.TID 0000.0001) %MON fCori_mean                   =   6.2936249243167E-05
(PID.TID 0000.0001) %MON fCori_sd                     =   2.0885809702547E-05
(PID.TID 0000.0001) %MON fCoriG_max                   =   9.3489668167119E-05
(PID.TID 0000.0001) %MON fCoriG_min                   =   2.5256103669800E-05
(PID.TID 0000.0001) %MON fCoriG_mean                  =   6.0674632558389E-05
(PID.TID 0000.0001) %MON fCoriG_sd                    =   2.1059305790472E-05
(PID.TID 0000.0001) %MON fCoriCos_max                 =   1.4277188648533E-04
(PID.TID 0000.0001) %MON fCoriCos_min                 =   1.0976805892693E-04
(PID.TID 0000.0001) %MON fCoriCos_mean                =   1.2903843359786E-04
(PID.TID 0000.0001) %MON fCoriCos_sd                  =   1.0289879691716E-05
(PID.TID 0000.0001) // CG2D normalisation factor =          0.1575292392863445389492028E-03
(PID.TID 0000.0001) 
(PID.TID 0000.0001)  MDSREADFIELD: opening global file: PH_LevCli.ptmp__020_016_23.data
(PID.TID 0000.0001) // =======================================================
(PID.TID 0000.0001) // Field Initial Temperature at iteration          1
(PID.TID 0000.0001) // CMIN =          1.840084838867188E+01
(PID.TID 0000.0001) // CMAX =          2.607793426513672E+01
(PID.TID 0000.0001) // CINT =          2.843365139431424E-01
(PID.TID 0000.0001) // SYMBOLS (CMIN->CMAX): -abcdefghijklmnopqrstuvwxyz+
(PID.TID 0000.0001) //                  0.0: .
(PID.TID 0000.0001) // RANGE I (Lo:Hi:Step):(   1:  20:   1)
(PID.TID 0000.0001) // RANGE J (Lo:Hi:Step):(  16:   1:  -1)
(PID.TID 0000.0001) // RANGE K (Lo:Hi:Step):(   1:   1:   1)
(PID.TID 0000.0001) // =======================================================
(PID.TID 0000.0001) K =   1
(PID.TID 0000.0001)                I=10      I=20
(PID.TID 0000.0001) |--J--|123456789|123456789|
(PID.TID 0000.0001)     16 ....................
(PID.TID 0000.0001)     15 .jihhgfeedddcba---a.
(PID.TID 0000.0001)     14 .kjiihggffeedcbbabb.
(PID.TID 0000.0001)     13 .lkkjiiiihgfedccbc..
(PID.TID 0000.0001)     12 .mllkkjjjihgfedcc...
(PID.TID 0000.0001)     11 .onnmmllkjihgfeec...
(PID.TID 0000.0001)     10 .rrqqponmmlkihf.....
(PID.TID 0000.0001)      9 .utssrqponmljh......
(PID.TID 0000.0001)      8 .vuttsrqponlig......
(PID.TID 0000.0001)      7 .vuutsrrponkif......
(PID.TID 0000.0001)      6 .wvvuutsrqomjh......
(PID.TID 0000.0001)      5 .yxwwwvutsrpnl......
(PID.TID 0000.0001)      4 .zyyyxxwwvutrq......
(PID.TID 0000.0001)      3 .zzzzyyxxxxwvu......
(PID.TID 0000.0001)      2 .+++++zzz+++zy......
(PID.TID 0000.0001)      1 ....................
(PID.TID 0000.0001) // =======================================================
(PID.TID 0000.0001) // END OF FIELD                                          =
(PID.TID 0000.0001) // =======================================================
(PID.TID 0000.0001) 
(PID.TID 0000.0001)  MDSREADFIELD: opening global file: PH_LevCli.salt__020_016_23.data
(PID.TID 0000.0001) // =======================================================
(PID.TID 0000.0001) // Field Initial Salinity at iteration          1
(PID.TID 0000.0001) // CMIN =          3.501070022583008E+01
(PID.TID 0000.0001) // CMAX =          3.739887619018555E+01
(PID.TID 0000.0001) // CINT =          8.845096164279515E-02
(PID.TID 0000.0001) // SYMBOLS (CMIN->CMAX): -abcdefghijklmnopqrstuvwxyz+
(PID.TID 0000.0001) //                  0.0: .
(PID.TID 0000.0001) // RANGE I (Lo:Hi:Step):(   1:  20:   1)
(PID.TID 0000.0001) // RANGE J (Lo:Hi:Step):(  16:   1:  -1)
(PID.TID 0000.0001) // RANGE K (Lo:Hi:Step):(   1:   1:   1)
(PID.TID 0000.0001) // =======================================================
(PID.TID 0000.0001) K =   1
(PID.TID 0000.0001)                I=10      I=20
(PID.TID 0000.0001) |--J--|123456789|123456789|
(PID.TID 0000.0001)     16 ....................
(PID.TID 0000.0001)     15 .oonnnnmmnnnnnnmllk.
(PID.TID 0000.0001)     14 .ppppoooopppppppooo.
(PID.TID 0000.0001)     13 .qqqqqrrrrrrqqqqqq..
(PID.TID 0000.0001)     12 .tttttttttttssrqp...
(PID.TID 0000.0001)     11 .wwwwwwvvvvuusrpn...
(PID.TID 0000.0001)     10 .zzyyyyyxxwvusr.....
(PID.TID 0000.0001)      9 .++zzzzyxxwutr......
(PID.TID 0000.0001)      8 .+zzyyyxwvusrp......
(PID.TID 0000.0001)      7 .xxxxwwutsrpnm......
(PID.TID 0000.0001)      6 .uuuuutsqponlj......
(PID.TID 0000.0001)      5 .rrrrqqponmkji......
(PID.TID 0000.0001)      4 .poooonmmlkihg......
(PID.TID 0000.0001)      3 .mmlllllkjihec......
(PID.TID 0000.0001)      2 .jjjkkkjjihfd-......
(PID.TID 0000.0001)      1 ....................
(PID.TID 0000.0001) // =======================================================
(PID.TID 0000.0001) // END OF FIELD                                          =
(PID.TID 0000.0001) // =======================================================
(PID.TID 0000.0001) 
(PID.TID 0000.0001) Start initial hydrostatic pressure computation
(PID.TID 0000.0001) Pressure is predetermined for buoyancyRelation OCEANIC
(PID.TID 0000.0001) 
(PID.TID 0000.0001)  MDSREADFIELD: opening file: xx_theta.0000000000.001.001.data
(PID.TID 0000.0001)  MDSREADFIELD: opening file: xx_salt.0000000000.001.001.data
(PID.TID 0000.0001) // =======================================================
(PID.TID 0000.0001) // Model current state
(PID.TID 0000.0001) // =======================================================
(PID.TID 0000.0001) 
(PID.TID 0000.0001) // =======================================================
(PID.TID 0000.0001) // Begin MONITOR dynamic field statistics
(PID.TID 0000.0001) // =======================================================
(PID.TID 0000.0001) %MON time_tsnumber                =                     0
(PID.TID 0000.0001) %MON time_secondsf                =   0.0000000000000E+00
(PID.TID 0000.0001) %MON dynstat_eta_max              =   0.0000000000000E+00
(PID.TID 0000.0001) %MON dynstat_eta_min              =   0.0000000000000E+00
(PID.TID 0000.0001) %MON dynstat_eta_mean             =   0.0000000000000E+00
(PID.TID 0000.0001) %MON dynstat_eta_sd               =   0.0000000000000E+00
(PID.TID 0000.0001) %MON dynstat_eta_del2             =   0.0000000000000E+00
(PID.TID 0000.0001) %MON dynstat_uvel_max             =   0.0000000000000E+00
(PID.TID 0000.0001) %MON dynstat_uvel_min             =   0.0000000000000E+00
(PID.TID 0000.0001) %MON dynstat_uvel_mean            =   0.0000000000000E+00
(PID.TID 0000.0001) %MON dynstat_uvel_sd              =   0.0000000000000E+00
(PID.TID 0000.0001) %MON dynstat_uvel_del2            =   0.0000000000000E+00
(PID.TID 0000.0001) %MON dynstat_vvel_max             =   0.0000000000000E+00
(PID.TID 0000.0001) %MON dynstat_vvel_min             =   0.0000000000000E+00
(PID.TID 0000.0001) %MON dynstat_vvel_mean            =   0.0000000000000E+00
(PID.TID 0000.0001) %MON dynstat_vvel_sd              =   0.0000000000000E+00
(PID.TID 0000.0001) %MON dynstat_vvel_del2            =   0.0000000000000E+00
(PID.TID 0000.0001) %MON dynstat_wvel_max             =   0.0000000000000E+00
(PID.TID 0000.0001) %MON dynstat_wvel_min             =   0.0000000000000E+00
(PID.TID 0000.0001) %MON dynstat_wvel_mean            =   0.0000000000000E+00
(PID.TID 0000.0001) %MON dynstat_wvel_sd              =   0.0000000000000E+00
(PID.TID 0000.0001) %MON dynstat_wvel_del2            =   0.0000000000000E+00
(PID.TID 0000.0001) %MON dynstat_theta_max            =   2.6077934265137E+01
(PID.TID 0000.0001) %MON dynstat_theta_min            =   1.8064365386963E+00
(PID.TID 0000.0001) %MON dynstat_theta_mean           =   5.4784105600004E+00
(PID.TID 0000.0001) %MON dynstat_theta_sd             =   4.5923951934310E+00
(PID.TID 0000.0001) %MON dynstat_theta_del2           =   5.0898848572070E-02
(PID.TID 0000.0001) %MON dynstat_salt_max             =   3.7401638031006E+01
(PID.TID 0000.0001) %MON dynstat_salt_min             =   3.4726768493652E+01
(PID.TID 0000.0001) %MON dynstat_salt_mean            =   3.5157555715946E+01
(PID.TID 0000.0001) %MON dynstat_salt_sd              =   4.1377404390946E-01
(PID.TID 0000.0001) %MON dynstat_salt_del2            =   1.2632116608019E-02
(PID.TID 0000.0001) %MON advcfl_uvel_max              =   0.0000000000000E+00
(PID.TID 0000.0001) %MON advcfl_vvel_max              =   0.0000000000000E+00
(PID.TID 0000.0001) %MON advcfl_wvel_max              =   0.0000000000000E+00
(PID.TID 0000.0001) %MON advcfl_W_hf_max              =   0.0000000000000E+00
(PID.TID 0000.0001) %MON pe_b_mean                    =   0.0000000000000E+00
(PID.TID 0000.0001) %MON ke_max                       =   0.0000000000000E+00
(PID.TID 0000.0001) %MON ke_mean                      =   0.0000000000000E+00
(PID.TID 0000.0001) %MON ke_vol                       =   3.6027486600263E+16
(PID.TID 0000.0001) %MON vort_r_min                   =   0.0000000000000E+00
(PID.TID 0000.0001) %MON vort_r_max                   =   0.0000000000000E+00
(PID.TID 0000.0001) %MON vort_a_mean                  =   6.1944475191297E-05
(PID.TID 0000.0001) %MON vort_a_sd                    =   1.9197697516419E-05
(PID.TID 0000.0001) %MON vort_p_mean                  =   7.7881882182936E-05
(PID.TID 0000.0001) %MON vort_p_sd                    =   5.6365002634549E-05
(PID.TID 0000.0001) %MON surfExpan_theta_mean         =   0.0000000000000E+00
(PID.TID 0000.0001) %MON surfExpan_salt_mean          =   0.0000000000000E+00
(PID.TID 0000.0001) // =======================================================
(PID.TID 0000.0001) // End MONITOR dynamic field statistics
(PID.TID 0000.0001) // =======================================================
(PID.TID 0000.0001)  MDSREADFIELD: opening file: xx_hfl.0000000000.001.001.data
(PID.TID 0000.0001)  MDSREADFIELD: opening file: xx_hfl.0000000000.001.001.data
(PID.TID 0000.0001)  MDSREADFIELD: opening file: xx_hfl.0000000000.001.001.data
(PID.TID 0000.0001)  MDSREADFIELD: opening file: xx_hfl.0000000000.001.001.data
(PID.TID 0000.0001)  MDSREADFIELD: opening file: xx_sfl.0000000000.001.001.data
(PID.TID 0000.0001)  MDSREADFIELD: opening file: xx_sfl.0000000000.001.001.data
(PID.TID 0000.0001)  MDSREADFIELD: opening file: xx_sfl.0000000000.001.001.data
(PID.TID 0000.0001)  MDSREADFIELD: opening file: xx_sfl.0000000000.001.001.data
(PID.TID 0000.0001)  MDSREADFIELD: opening file: xx_tauu.0000000000.001.001.data
(PID.TID 0000.0001)  MDSREADFIELD: opening file: xx_tauu.0000000000.001.001.data
(PID.TID 0000.0001)  MDSREADFIELD: opening file: xx_tauu.0000000000.001.001.data
(PID.TID 0000.0001)  MDSREADFIELD: opening file: xx_tauu.0000000000.001.001.data
(PID.TID 0000.0001)  MDSREADFIELD: opening file: xx_tauv.0000000000.001.001.data
(PID.TID 0000.0001)  MDSREADFIELD: opening file: xx_tauv.0000000000.001.001.data
(PID.TID 0000.0001)  MDSREADFIELD: opening file: xx_tauv.0000000000.001.001.data
(PID.TID 0000.0001)  MDSREADFIELD: opening file: xx_tauv.0000000000.001.001.data
(PID.TID 0000.0001) 
(PID.TID 0000.0001)  exf_GetFFieldsRec: first, changed, fac:   T   F   0.16666667E+00
(PID.TID 0000.0001)  exf_GetFFieldsRec:      count0, count1:   2   3
(PID.TID 0000.0001) 
(PID.TID 0000.0001)  MDSREADFIELD: opening global file: PH_ustress__020_016_23.data
(PID.TID 0000.0001)  MDSREADFIELD: opening global file: PH_ustress__020_016_23.data
(PID.TID 0000.0001) 
(PID.TID 0000.0001)  exf_GetFFieldsRec: first, changed, fac:   T   F   0.16666667E+00
(PID.TID 0000.0001)  exf_GetFFieldsRec:      count0, count1:   2   3
(PID.TID 0000.0001) 
(PID.TID 0000.0001)  MDSREADFIELD: opening global file: PH_vstress__020_016_23.data
(PID.TID 0000.0001)  MDSREADFIELD: opening global file: PH_vstress__020_016_23.data
(PID.TID 0000.0001) 
(PID.TID 0000.0001)  exf_GetFFieldsRec: first, changed, fac:   T   F   0.20833333E+00
(PID.TID 0000.0001)  exf_GetFFieldsRec:      count0, count1:   1   2
(PID.TID 0000.0001) 
(PID.TID 0000.0001)  MDSREADFIELD: opening global file: PH_totflsfc__020_016_23.data
(PID.TID 0000.0001)  MDSREADFIELD: opening global file: PH_totflsfc__020_016_23.data
(PID.TID 0000.0001) 
(PID.TID 0000.0001)  exf_GetFFieldsRec: first, changed, fac:   T   F   0.20833333E+00
(PID.TID 0000.0001)  exf_GetFFieldsRec:      count0, count1:   1   2
(PID.TID 0000.0001) 
(PID.TID 0000.0001)  MDSREADFIELD: opening global file: PH_pratesfc__020_016_23.data
(PID.TID 0000.0001)  MDSREADFIELD: opening global file: PH_pratesfc__020_016_23.data
(PID.TID 0000.0001) 
(PID.TID 0000.0001)  exf_GetFFieldsRec: first, changed, fac:   T   F   0.20833333E+00
(PID.TID 0000.0001)  exf_GetFFieldsRec:      count0, count1:   1   2
(PID.TID 0000.0001) 
(PID.TID 0000.0001)  MDSREADFIELD: opening global file: PH_swflsfc__020_016_23.data
(PID.TID 0000.0001)  MDSREADFIELD: opening global file: PH_swflsfc__020_016_23.data
(PID.TID 0000.0001)  MDSREADFIELD: opening file: xx_hfl.0000000000.001.001.data
(PID.TID 0000.0001)  MDSREADFIELD: opening file: xx_hfl.0000000000.001.001.data
(PID.TID 0000.0001)  MDSREADFIELD: opening file: xx_sfl.0000000000.001.001.data
(PID.TID 0000.0001)  MDSREADFIELD: opening file: xx_sfl.0000000000.001.001.data
(PID.TID 0000.0001)  MDSREADFIELD: opening file: xx_tauu.0000000000.001.001.data
(PID.TID 0000.0001)  MDSREADFIELD: opening file: xx_tauu.0000000000.001.001.data
(PID.TID 0000.0001)  MDSREADFIELD: opening file: xx_tauv.0000000000.001.001.data
(PID.TID 0000.0001)  MDSREADFIELD: opening file: xx_tauv.0000000000.001.001.data
 pathei: in check_exp: iter/time/rec/yprefix  0  0. 1 kf_
 pathei: in check_exp: date   0
 pathei: in check_exp: theta   21.9700623
 pathei: in check_exp: salt    37.1130981
 pathei: in check_exp: uvel    0.
 pathei: in check_exp: vvel    0.
 pathei: in check_exp: qnet    147.296121
 pathei: in check_exp: empmr   2.83352032E-08
 pathei: in check_exp: fu     -0.0133724209
 pathei: in check_exp: fv     -0.02042173
 cg2d: Sum(rhs),rhsMax =   7.66747776381749E-16  4.50737656431993E-01
(PID.TID 0000.0001)                    cg2d_init_res =    3.97910540907939E+00
(PID.TID 0000.0001)                       cg2d_iters =    50
(PID.TID 0000.0001)                         cg2d_res =    7.14109634481505E-14
(PID.TID 0000.0001) 
(PID.TID 0000.0001)  exf_GetFFieldsRec: first, changed, fac:   F   F   0.83333333E-01
(PID.TID 0000.0001)  exf_GetFFieldsRec:      count0, count1:   2   3
(PID.TID 0000.0001) 
(PID.TID 0000.0001) 
(PID.TID 0000.0001)  exf_GetFFieldsRec: first, changed, fac:   F   F   0.83333333E-01
(PID.TID 0000.0001)  exf_GetFFieldsRec:      count0, count1:   2   3
(PID.TID 0000.0001) 
(PID.TID 0000.0001) 
(PID.TID 0000.0001)  exf_GetFFieldsRec: first, changed, fac:   F   F   0.16666667E+00
(PID.TID 0000.0001)  exf_GetFFieldsRec:      count0, count1:   1   2
(PID.TID 0000.0001) 
(PID.TID 0000.0001) 
(PID.TID 0000.0001)  exf_GetFFieldsRec: first, changed, fac:   F   F   0.16666667E+00
(PID.TID 0000.0001)  exf_GetFFieldsRec:      count0, count1:   1   2
(PID.TID 0000.0001) 
(PID.TID 0000.0001) 
(PID.TID 0000.0001)  exf_GetFFieldsRec: first, changed, fac:   F   F   0.16666667E+00
(PID.TID 0000.0001)  exf_GetFFieldsRec:      count0, count1:   1   2
(PID.TID 0000.0001) 
 cg2d: Sum(rhs),rhsMax =   1.64885466391596E-15  5.55571937118767E-01
(PID.TID 0000.0001) 
(PID.TID 0000.0001)  exf_GetFFieldsRec: first, changed, fac:   F   T   0.10000000E+01
(PID.TID 0000.0001)  exf_GetFFieldsRec:      count0, count1:   3   4
(PID.TID 0000.0001) 
(PID.TID 0000.0001)  MDSREADFIELD: opening global file: PH_ustress__020_016_23.data
(PID.TID 0000.0001) 
(PID.TID 0000.0001)  exf_GetFFieldsRec: first, changed, fac:   F   T   0.10000000E+01
(PID.TID 0000.0001)  exf_GetFFieldsRec:      count0, count1:   3   4
(PID.TID 0000.0001) 
(PID.TID 0000.0001)  MDSREADFIELD: opening global file: PH_vstress__020_016_23.data
(PID.TID 0000.0001) 
(PID.TID 0000.0001)  exf_GetFFieldsRec: first, changed, fac:   F   F   0.12500000E+00
(PID.TID 0000.0001)  exf_GetFFieldsRec:      count0, count1:   1   2
(PID.TID 0000.0001) 
(PID.TID 0000.0001) 
(PID.TID 0000.0001)  exf_GetFFieldsRec: first, changed, fac:   F   F   0.12500000E+00
(PID.TID 0000.0001)  exf_GetFFieldsRec:      count0, count1:   1   2
(PID.TID 0000.0001) 
(PID.TID 0000.0001) 
(PID.TID 0000.0001)  exf_GetFFieldsRec: first, changed, fac:   F   F   0.12500000E+00
(PID.TID 0000.0001)  exf_GetFFieldsRec:      count0, count1:   1   2
(PID.TID 0000.0001) 
 cg2d: Sum(rhs),rhsMax =   5.89805981832114E-16  5.83078086204071E-01
(PID.TID 0000.0001) 
(PID.TID 0000.0001)  exf_GetFFieldsRec: first, changed, fac:   F   F   0.91666667E+00
(PID.TID 0000.0001)  exf_GetFFieldsRec:      count0, count1:   3   4
(PID.TID 0000.0001) 
(PID.TID 0000.0001) 
(PID.TID 0000.0001)  exf_GetFFieldsRec: first, changed, fac:   F   F   0.91666667E+00
(PID.TID 0000.0001)  exf_GetFFieldsRec:      count0, count1:   3   4
(PID.TID 0000.0001) 
(PID.TID 0000.0001) 
(PID.TID 0000.0001)  exf_GetFFieldsRec: first, changed, fac:   F   F   0.83333333E-01
(PID.TID 0000.0001)  exf_GetFFieldsRec:      count0, count1:   1   2
(PID.TID 0000.0001) 
(PID.TID 0000.0001) 
(PID.TID 0000.0001)  exf_GetFFieldsRec: first, changed, fac:   F   F   0.83333333E-01
(PID.TID 0000.0001)  exf_GetFFieldsRec:      count0, count1:   1   2
(PID.TID 0000.0001) 
(PID.TID 0000.0001) 
(PID.TID 0000.0001)  exf_GetFFieldsRec: first, changed, fac:   F   F   0.83333333E-01
(PID.TID 0000.0001)  exf_GetFFieldsRec:      count0, count1:   1   2
(PID.TID 0000.0001) 
 cg2d: Sum(rhs),rhsMax =  -2.38871422642006E-15  6.06478011785929E-01
(PID.TID 0000.0001)  MDSREADFIELD: opening file: tbar.0000000000.001.001.data
(PID.TID 0000.0001)  MDSREADFIELD: opening global file: PH_SST_fields__020_016_23.data
(PID.TID 0000.0001)  MDSREADFIELD: opening file: tbar.0000000000.001.001.data
(PID.TID 0000.0001)  MDSREADFIELD: opening global file: PH_Lev.ptmp__020_016_23.data
(PID.TID 0000.0001)  MDSREADFIELD: opening file: sbar.0000000000.001.001.data
(PID.TID 0000.0001)  MDSREADFIELD: opening global file: PH_Lev.salt__020_016_23.data
(PID.TID 0000.0001)  MDSREADFIELD: opening file: psbar.0000000000.001.001.data
(PID.TID 0000.0001)  MDSREADFIELD: opening file: psbar.0000000000.001.001.data
(PID.TID 0000.0001)  MDSREADFIELD: opening global file: PH_TP_mean__020_016_23.data

  cost_ssh: offset_sum =   164.781314

(PID.TID 0000.0001)  MDSREADFIELD: opening file: psbar.0000000000.001.001.data
(PID.TID 0000.0001)  MDSREADFIELD: opening global file: PH_TP_fields__020_016_23.data
(PID.TID 0000.0001)  MDSREADFIELD: opening global file: PH_ERS_fields__020_016_23.data
(PID.TID 0000.0001)  MDSREADFIELD: opening file: psbar.0000000000.001.001.data
(PID.TID 0000.0001)  MDSREADFIELD: opening global file: PH_TP_fields__020_016_23.data
(PID.TID 0000.0001)  MDSREADFIELD: opening global file: PH_ERS_fields__020_016_23.data
(PID.TID 0000.0001)  MDSREADFIELD: opening file: tbar.0000000000.001.001.data
(PID.TID 0000.0001)  MDSREADFIELD: opening global file: PH_SST_fields__020_016_23.data
  --> objf_temp(bi,bj)    =  2414.00375
  --> objf_salt(bi,bj)    =  472.001555
  --> objf_temp0(bi,bj)   =  0.
  --> objf_salt0(bi,bj)   =  0.
  --> objf_tmi(bi,bj)     =  0.
  --> objf_sst(bi,bj)     =  15.011058
  --> objf_sss(bi,bj)     =  0.
  --> objf_h(bi,bj)       =  0.
  --> objf_hmean          =  0.
  --> objf_tauu(bi,bj)    =  0.
  --> objf_tauum(bi,bj)   =  0.
  --> objf_tauv(bi,bj)    =  0.
  --> objf_tauvm(bi,bj)   =  0.
  --> objf_hflux(bi,bj)   =  8.05823601E-12
  --> objf_hflux(bi,bj)   =  0.
  --> objf_hflux(bi,bj)   =  0.
  --> objf_sflux(bi,bj)   =  0.
  --> objf_sflux(bi,bj)   =  0.
  --> objf_sflux(bi,bj)   =  0.
  --> objf_atl(bi,bj)     =  0.
  --> objf_ctdt(bi,bj)    =  0.
  --> objf_ctds(bi,bj)    =  0.
  --> objf_ctdtclim(bi,bj)=  0.
  --> objf_ctdsclim(bi,bj)=  0.
  --> objf_xbt(bi,bj)     =  0.
  --> objf_argot(bi,bj)   =  0.
  --> objf_argos(bi,bj)   =  0.
  --> objf_drift(bi,bj)   =  0.
  --> objf_tdrift(bi,bj)  =  0.
  --> objf_sdrift(bi,bj)  =  0.
  --> objf_wdrift(bi,bj)  =  0.
  --> objf_scatx(bi,bj)   =  0.
  --> objf_scaty(bi,bj)   =  0.
  --> objf_scatxm(bi,bj)  =  0.
  --> objf_scatym(bi,bj)  =  0.
  --> objf_uwind(bi,bj)   =  0.
  --> objf_vwind(bi,bj)   =  0.
  --> objf_atemp(bi,bj)   =  0.
  --> objf_aqh(bi,bj)     =  0.
  --> objf_obcsn(bi,bj)   =  0.
  --> objf_obcss(bi,bj)   =  0.
  --> objf_obcsw(bi,bj)   =  0.
  --> objf_obcse(bi,bj)   =  0.
  --> objf_ageos(bi,bj)   =  0.
  --> objf_curmtr(bi,bj)  =  0.
  --> objf_obcsvol        =  0.
  --> objf_ice(bi,bj)     =  0.
  --> objf_kapgm(bi,bj)   =  0.
  --> objf_diffkr(bi,bj)  =  0.
  --> objf_ini_fin(bi,bj) =  0.
  --> objf_hmean  (GLOBAL) =  0.
  --> objf_obcsvol(GLOBAL) =  0.
  --> fc                   =  2901.01636
(PID.TID 0000.0001)  MDSREADFIELD: opening file: xx_hfl.0000000000.001.001.data
(PID.TID 0000.0001)  MDSREADFIELD: opening file: xx_hfl.0000000000.001.001.data
(PID.TID 0000.0001) 
(PID.TID 0000.0001)  cal_TimeStamp: iter =          0 time =  0.00000000E+00
(PID.TID 0000.0001)                 date =   19920102      220000
(PID.TID 0000.0001) 
(PID.TID 0000.0001) %MON surfExpanfCori_max           =   9.5419917861011E-05
(PID.TID 0000.0001) %MON surfExpanfCori_min           =   2.7752043431195E-05
(PID.TID 0000.0001) %MON surfExpanfCori_mean          =   6.2936249243167E-05
(PID.TID 0000.0001) %MON surfExpanfCori_sd            =   2.0885809702547E-05
(PID.TID 0000.0001) %MON surfExpanfCoriG_max          =   9.3489668167119E-05
(PID.TID 0000.0001) %MON surfExpanfCoriG_min          =   2.5256103669800E-05
(PID.TID 0000.0001) %MON surfExpanfCoriG_mean         =   6.0674632558389E-05
(PID.TID 0000.0001) %MON surfExpanfCoriG_sd           =   2.1059305790472E-05
(PID.TID 0000.0001) %MON surfExpanfCoriCos_max        =   1.4277188648533E-04
(PID.TID 0000.0001) %MON surfExpanfCoriCos_min        =   1.0976805892693E-04
(PID.TID 0000.0001) %MON surfExpanfCoriCos_mean       =   1.2903843359786E-04
(PID.TID 0000.0001) %MON surfExpanfCoriCos_sd         =   1.0289879691716E-05
(PID.TID 0000.0001) // CG2D normalisation factor =          0.1575292392863445389492028E-03
(PID.TID 0000.0001) 
(PID.TID 0000.0001)  MDSREADFIELD: opening global file: PH_LevCli.ptmp__020_016_23.data
(PID.TID 0000.0001) // =======================================================
(PID.TID 0000.0001) // Field Initial Temperature at iteration          1
(PID.TID 0000.0001) // CMIN =          1.840084838867188E+01
(PID.TID 0000.0001) // CMAX =          2.607793426513672E+01
(PID.TID 0000.0001) // CINT =          2.843365139431424E-01
(PID.TID 0000.0001) // SYMBOLS (CMIN->CMAX): -abcdefghijklmnopqrstuvwxyz+
(PID.TID 0000.0001) //                  0.0: .
(PID.TID 0000.0001) // RANGE I (Lo:Hi:Step):(   1:  20:   1)
(PID.TID 0000.0001) // RANGE J (Lo:Hi:Step):(  16:   1:  -1)
(PID.TID 0000.0001) // RANGE K (Lo:Hi:Step):(   1:   1:   1)
(PID.TID 0000.0001) // =======================================================
(PID.TID 0000.0001) K =   1
(PID.TID 0000.0001)                I=10      I=20
(PID.TID 0000.0001) |--J--|123456789|123456789|
(PID.TID 0000.0001)     16 ....................
(PID.TID 0000.0001)     15 .jihhgfeedddcba---a.
(PID.TID 0000.0001)     14 .kjiihggffeedcbbabb.
(PID.TID 0000.0001)     13 .lkkjiiiihgfedccbc..
(PID.TID 0000.0001)     12 .mllkkjjjihgfedcc...
(PID.TID 0000.0001)     11 .onnmmllkjihgfeec...
(PID.TID 0000.0001)     10 .rrqqponmmlkihf.....
(PID.TID 0000.0001)      9 .utssrqponmljh......
(PID.TID 0000.0001)      8 .vuttsrqponlig......
(PID.TID 0000.0001)      7 .vuutsrrponkif......
(PID.TID 0000.0001)      6 .wvvuutsrqomjh......
(PID.TID 0000.0001)      5 .yxwwwvutsrpnl......
(PID.TID 0000.0001)      4 .zyyyxxwwvutrq......
(PID.TID 0000.0001)      3 .zzzzyyxxxxwvu......
(PID.TID 0000.0001)      2 .+++++zzz+++zy......
(PID.TID 0000.0001)      1 ....................
(PID.TID 0000.0001) // =======================================================
(PID.TID 0000.0001) // END OF FIELD                                          =
(PID.TID 0000.0001) // =======================================================
(PID.TID 0000.0001) 
(PID.TID 0000.0001)  MDSREADFIELD: opening global file: PH_LevCli.salt__020_016_23.data
(PID.TID 0000.0001) // =======================================================
(PID.TID 0000.0001) // Field Initial Salinity at iteration          1
(PID.TID 0000.0001) // CMIN =          3.501070022583008E+01
(PID.TID 0000.0001) // CMAX =          3.739887619018555E+01
(PID.TID 0000.0001) // CINT =          8.845096164279515E-02
(PID.TID 0000.0001) // SYMBOLS (CMIN->CMAX): -abcdefghijklmnopqrstuvwxyz+
(PID.TID 0000.0001) //                  0.0: .
(PID.TID 0000.0001) // RANGE I (Lo:Hi:Step):(   1:  20:   1)
(PID.TID 0000.0001) // RANGE J (Lo:Hi:Step):(  16:   1:  -1)
(PID.TID 0000.0001) // RANGE K (Lo:Hi:Step):(   1:   1:   1)
(PID.TID 0000.0001) // =======================================================
(PID.TID 0000.0001) K =   1
(PID.TID 0000.0001)                I=10      I=20
(PID.TID 0000.0001) |--J--|123456789|123456789|
(PID.TID 0000.0001)     16 ....................
(PID.TID 0000.0001)     15 .oonnnnmmnnnnnnmllk.
(PID.TID 0000.0001)     14 .ppppoooopppppppooo.
(PID.TID 0000.0001)     13 .qqqqqrrrrrrqqqqqq..
(PID.TID 0000.0001)     12 .tttttttttttssrqp...
(PID.TID 0000.0001)     11 .wwwwwwvvvvuusrpn...
(PID.TID 0000.0001)     10 .zzyyyyyxxwvusr.....
(PID.TID 0000.0001)      9 .++zzzzyxxwutr......
(PID.TID 0000.0001)      8 .+zzyyyxwvusrp......
(PID.TID 0000.0001)      7 .xxxxwwutsrpnm......
(PID.TID 0000.0001)      6 .uuuuutsqponlj......
(PID.TID 0000.0001)      5 .rrrrqqponmkji......
(PID.TID 0000.0001)      4 .poooonmmlkihg......
(PID.TID 0000.0001)      3 .mmlllllkjihec......
(PID.TID 0000.0001)      2 .jjjkkkjjihfd-......
(PID.TID 0000.0001)      1 ....................
(PID.TID 0000.0001) // =======================================================
(PID.TID 0000.0001) // END OF FIELD                                          =
(PID.TID 0000.0001) // =======================================================
(PID.TID 0000.0001) 
(PID.TID 0000.0001) Start initial hydrostatic pressure computation
(PID.TID 0000.0001) Pressure is predetermined for buoyancyRelation OCEANIC
(PID.TID 0000.0001) 
(PID.TID 0000.0001)  MDSREADFIELD: opening file: xx_theta.0000000000.001.001.data
(PID.TID 0000.0001)  MDSREADFIELD: opening file: xx_salt.0000000000.001.001.data
(PID.TID 0000.0001) // =======================================================
(PID.TID 0000.0001) // Model current state
(PID.TID 0000.0001) // =======================================================
(PID.TID 0000.0001) 
(PID.TID 0000.0001) // =======================================================
(PID.TID 0000.0001) // Begin MONITOR dynamic field statistics
(PID.TID 0000.0001) // =======================================================
(PID.TID 0000.0001) %MON time_tsnumber                =                     0
(PID.TID 0000.0001) %MON time_secondsf                =   0.0000000000000E+00
(PID.TID 0000.0001) %MON dynstat_eta_max              =   0.0000000000000E+00
(PID.TID 0000.0001) %MON dynstat_eta_min              =   0.0000000000000E+00
(PID.TID 0000.0001) %MON dynstat_eta_mean             =   0.0000000000000E+00
(PID.TID 0000.0001) %MON dynstat_eta_sd               =   0.0000000000000E+00
(PID.TID 0000.0001) %MON dynstat_eta_del2             =   0.0000000000000E+00
(PID.TID 0000.0001) %MON dynstat_uvel_max             =   0.0000000000000E+00
(PID.TID 0000.0001) %MON dynstat_uvel_min             =   0.0000000000000E+00
(PID.TID 0000.0001) %MON dynstat_uvel_mean            =   0.0000000000000E+00
(PID.TID 0000.0001) %MON dynstat_uvel_sd              =   0.0000000000000E+00
(PID.TID 0000.0001) %MON dynstat_uvel_del2            =   0.0000000000000E+00
(PID.TID 0000.0001) %MON dynstat_vvel_max             =   0.0000000000000E+00
(PID.TID 0000.0001) %MON dynstat_vvel_min             =   0.0000000000000E+00
(PID.TID 0000.0001) %MON dynstat_vvel_mean            =   0.0000000000000E+00
(PID.TID 0000.0001) %MON dynstat_vvel_sd              =   0.0000000000000E+00
(PID.TID 0000.0001) %MON dynstat_vvel_del2            =   0.0000000000000E+00
(PID.TID 0000.0001) %MON dynstat_wvel_max             =   0.0000000000000E+00
(PID.TID 0000.0001) %MON dynstat_wvel_min             =   0.0000000000000E+00
(PID.TID 0000.0001) %MON dynstat_wvel_mean            =   0.0000000000000E+00
(PID.TID 0000.0001) %MON dynstat_wvel_sd              =   0.0000000000000E+00
(PID.TID 0000.0001) %MON dynstat_wvel_del2            =   0.0000000000000E+00
(PID.TID 0000.0001) %MON dynstat_theta_max            =   2.6077934265137E+01
(PID.TID 0000.0001) %MON dynstat_theta_min            =   1.8064365386963E+00
(PID.TID 0000.0001) %MON dynstat_theta_mean           =   5.4784105600004E+00
(PID.TID 0000.0001) %MON dynstat_theta_sd             =   4.5923951934310E+00
(PID.TID 0000.0001) %MON dynstat_theta_del2           =   5.0898848572070E-02
(PID.TID 0000.0001) %MON dynstat_salt_max             =   3.7401638031006E+01
(PID.TID 0000.0001) %MON dynstat_salt_min             =   3.4726768493652E+01
(PID.TID 0000.0001) %MON dynstat_salt_mean            =   3.5157555715946E+01
(PID.TID 0000.0001) %MON dynstat_salt_sd              =   4.1377404390946E-01
(PID.TID 0000.0001) %MON dynstat_salt_del2            =   1.2632116608019E-02
(PID.TID 0000.0001) %MON advcfl_uvel_max              =   0.0000000000000E+00
(PID.TID 0000.0001) %MON advcfl_vvel_max              =   0.0000000000000E+00
(PID.TID 0000.0001) %MON advcfl_wvel_max              =   0.0000000000000E+00
(PID.TID 0000.0001) %MON advcfl_W_hf_max              =   0.0000000000000E+00
(PID.TID 0000.0001) %MON pe_b_mean                    =   0.0000000000000E+00
(PID.TID 0000.0001) %MON ke_max                       =   0.0000000000000E+00
(PID.TID 0000.0001) %MON ke_mean                      =   0.0000000000000E+00
(PID.TID 0000.0001) %MON ke_vol                       =   3.6027486600263E+16
(PID.TID 0000.0001) %MON vort_r_min                   =   0.0000000000000E+00
(PID.TID 0000.0001) %MON vort_r_max                   =   0.0000000000000E+00
(PID.TID 0000.0001) %MON vort_a_mean                  =   6.1944475191297E-05
(PID.TID 0000.0001) %MON vort_a_sd                    =   1.9197697516419E-05
(PID.TID 0000.0001) %MON vort_p_mean                  =   7.7881882182936E-05
(PID.TID 0000.0001) %MON vort_p_sd                    =   5.6365002634549E-05
(PID.TID 0000.0001) %MON surfExpan_theta_mean         =   0.0000000000000E+00
(PID.TID 0000.0001) %MON surfExpan_salt_mean          =   0.0000000000000E+00
(PID.TID 0000.0001) // =======================================================
(PID.TID 0000.0001) // End MONITOR dynamic field statistics
(PID.TID 0000.0001) // =======================================================
(PID.TID 0000.0001)  MDSREADFIELD: opening file: xx_hfl.0000000000.001.001.data
(PID.TID 0000.0001)  MDSREADFIELD: opening file: xx_hfl.0000000000.001.001.data
(PID.TID 0000.0001)  MDSREADFIELD: opening file: xx_hfl.0000000000.001.001.data
(PID.TID 0000.0001)  MDSREADFIELD: opening file: xx_hfl.0000000000.001.001.data
(PID.TID 0000.0001)  MDSREADFIELD: opening file: xx_sfl.0000000000.001.001.data
(PID.TID 0000.0001)  MDSREADFIELD: opening file: xx_sfl.0000000000.001.001.data
(PID.TID 0000.0001)  MDSREADFIELD: opening file: xx_sfl.0000000000.001.001.data
(PID.TID 0000.0001)  MDSREADFIELD: opening file: xx_sfl.0000000000.001.001.data
(PID.TID 0000.0001)  MDSREADFIELD: opening file: xx_tauu.0000000000.001.001.data
(PID.TID 0000.0001)  MDSREADFIELD: opening file: xx_tauu.0000000000.001.001.data
(PID.TID 0000.0001)  MDSREADFIELD: opening file: xx_tauu.0000000000.001.001.data
(PID.TID 0000.0001)  MDSREADFIELD: opening file: xx_tauu.0000000000.001.001.data
(PID.TID 0000.0001)  MDSREADFIELD: opening file: xx_tauv.0000000000.001.001.data
(PID.TID 0000.0001)  MDSREADFIELD: opening file: xx_tauv.0000000000.001.001.data
(PID.TID 0000.0001)  MDSREADFIELD: opening file: xx_tauv.0000000000.001.001.data
(PID.TID 0000.0001)  MDSREADFIELD: opening file: xx_tauv.0000000000.001.001.data
(PID.TID 0000.0001) 
(PID.TID 0000.0001)  exf_GetFFieldsRec: first, changed, fac:   T   F   0.16666667E+00
(PID.TID 0000.0001)  exf_GetFFieldsRec:      count0, count1:   2   3
(PID.TID 0000.0001) 
(PID.TID 0000.0001)  MDSREADFIELD: opening global file: PH_ustress__020_016_23.data
(PID.TID 0000.0001)  MDSREADFIELD: opening global file: PH_ustress__020_016_23.data
(PID.TID 0000.0001) 
(PID.TID 0000.0001)  exf_GetFFieldsRec: first, changed, fac:   T   F   0.16666667E+00
(PID.TID 0000.0001)  exf_GetFFieldsRec:      count0, count1:   2   3
(PID.TID 0000.0001) 
(PID.TID 0000.0001)  MDSREADFIELD: opening global file: PH_vstress__020_016_23.data
(PID.TID 0000.0001)  MDSREADFIELD: opening global file: PH_vstress__020_016_23.data
(PID.TID 0000.0001) 
(PID.TID 0000.0001)  exf_GetFFieldsRec: first, changed, fac:   T   F   0.20833333E+00
(PID.TID 0000.0001)  exf_GetFFieldsRec:      count0, count1:   1   2
(PID.TID 0000.0001) 
(PID.TID 0000.0001)  MDSREADFIELD: opening global file: PH_totflsfc__020_016_23.data
(PID.TID 0000.0001)  MDSREADFIELD: opening global file: PH_totflsfc__020_016_23.data
(PID.TID 0000.0001) 
(PID.TID 0000.0001)  exf_GetFFieldsRec: first, changed, fac:   T   F   0.20833333E+00
(PID.TID 0000.0001)  exf_GetFFieldsRec:      count0, count1:   1   2
(PID.TID 0000.0001) 
(PID.TID 0000.0001)  MDSREADFIELD: opening global file: PH_pratesfc__020_016_23.data
(PID.TID 0000.0001)  MDSREADFIELD: opening global file: PH_pratesfc__020_016_23.data
(PID.TID 0000.0001) 
(PID.TID 0000.0001)  exf_GetFFieldsRec: first, changed, fac:   T   F   0.20833333E+00
(PID.TID 0000.0001)  exf_GetFFieldsRec:      count0, count1:   1   2
(PID.TID 0000.0001) 
(PID.TID 0000.0001)  MDSREADFIELD: opening global file: PH_swflsfc__020_016_23.data
(PID.TID 0000.0001)  MDSREADFIELD: opening global file: PH_swflsfc__020_016_23.data
(PID.TID 0000.0001)  MDSREADFIELD: opening file: xx_hfl.0000000000.001.001.data
(PID.TID 0000.0001)  MDSREADFIELD: opening file: xx_hfl.0000000000.001.001.data
(PID.TID 0000.0001)  MDSREADFIELD: opening file: xx_sfl.0000000000.001.001.data
(PID.TID 0000.0001)  MDSREADFIELD: opening file: xx_sfl.0000000000.001.001.data
(PID.TID 0000.0001)  MDSREADFIELD: opening file: xx_tauu.0000000000.001.001.data
(PID.TID 0000.0001)  MDSREADFIELD: opening file: xx_tauu.0000000000.001.001.data
(PID.TID 0000.0001)  MDSREADFIELD: opening file: xx_tauv.0000000000.001.001.data
(PID.TID 0000.0001)  MDSREADFIELD: opening file: xx_tauv.0000000000.001.001.data
 pathei: in check_exp: iter/time/rec/yprefix  0  0. 1 kf_
 pathei: in check_exp: date   0
 pathei: in check_exp: theta   21.9700623
 pathei: in check_exp: salt    37.1130981
 pathei: in check_exp: uvel    0.
 pathei: in check_exp: vvel    0.
 pathei: in check_exp: qnet    147.296121
 pathei: in check_exp: empmr   2.83352032E-08
 pathei: in check_exp: fu     -0.0133724209
 pathei: in check_exp: fv     -0.02042173
 cg2d: Sum(rhs),rhsMax =   7.66747776381749E-16  4.50737656431993E-01
(PID.TID 0000.0001)                    cg2d_init_res =    3.97910540907939E+00
(PID.TID 0000.0001)                       cg2d_iters =    50
(PID.TID 0000.0001)                         cg2d_res =    7.14109633532557E-14
(PID.TID 0000.0001) 
(PID.TID 0000.0001)  exf_GetFFieldsRec: first, changed, fac:   F   F   0.83333333E-01
(PID.TID 0000.0001)  exf_GetFFieldsRec:      count0, count1:   2   3
(PID.TID 0000.0001) 
(PID.TID 0000.0001) 
(PID.TID 0000.0001)  exf_GetFFieldsRec: first, changed, fac:   F   F   0.83333333E-01
(PID.TID 0000.0001)  exf_GetFFieldsRec:      count0, count1:   2   3
(PID.TID 0000.0001) 
(PID.TID 0000.0001) 
(PID.TID 0000.0001)  exf_GetFFieldsRec: first, changed, fac:   F   F   0.16666667E+00
(PID.TID 0000.0001)  exf_GetFFieldsRec:      count0, count1:   1   2
(PID.TID 0000.0001) 
(PID.TID 0000.0001) 
(PID.TID 0000.0001)  exf_GetFFieldsRec: first, changed, fac:   F   F   0.16666667E+00
(PID.TID 0000.0001)  exf_GetFFieldsRec:      count0, count1:   1   2
(PID.TID 0000.0001) 
(PID.TID 0000.0001) 
(PID.TID 0000.0001)  exf_GetFFieldsRec: first, changed, fac:   F   F   0.16666667E+00
(PID.TID 0000.0001)  exf_GetFFieldsRec:      count0, count1:   1   2
(PID.TID 0000.0001) 
 cg2d: Sum(rhs),rhsMax =   5.63785129692462E-17  5.55571937118767E-01
(PID.TID 0000.0001) 
(PID.TID 0000.0001)  exf_GetFFieldsRec: first, changed, fac:   F   T   0.10000000E+01
(PID.TID 0000.0001)  exf_GetFFieldsRec:      count0, count1:   3   4
(PID.TID 0000.0001) 
(PID.TID 0000.0001)  MDSREADFIELD: opening global file: PH_ustress__020_016_23.data
(PID.TID 0000.0001) 
(PID.TID 0000.0001)  exf_GetFFieldsRec: first, changed, fac:   F   T   0.10000000E+01
(PID.TID 0000.0001)  exf_GetFFieldsRec:      count0, count1:   3   4
(PID.TID 0000.0001) 
(PID.TID 0000.0001)  MDSREADFIELD: opening global file: PH_vstress__020_016_23.data
(PID.TID 0000.0001) 
(PID.TID 0000.0001)  exf_GetFFieldsRec: first, changed, fac:   F   F   0.12500000E+00
(PID.TID 0000.0001)  exf_GetFFieldsRec:      count0, count1:   1   2
(PID.TID 0000.0001) 
(PID.TID 0000.0001) 
(PID.TID 0000.0001)  exf_GetFFieldsRec: first, changed, fac:   F   F   0.12500000E+00
(PID.TID 0000.0001)  exf_GetFFieldsRec:      count0, count1:   1   2
(PID.TID 0000.0001) 
(PID.TID 0000.0001) 
(PID.TID 0000.0001)  exf_GetFFieldsRec: first, changed, fac:   F   F   0.12500000E+00
(PID.TID 0000.0001)  exf_GetFFieldsRec:      count0, count1:   1   2
(PID.TID 0000.0001) 
 cg2d: Sum(rhs),rhsMax =   2.75127143289922E-15  5.83078086204081E-01
(PID.TID 0000.0001) 
(PID.TID 0000.0001)  exf_GetFFieldsRec: first, changed, fac:   F   F   0.91666667E+00
(PID.TID 0000.0001)  exf_GetFFieldsRec:      count0, count1:   3   4
(PID.TID 0000.0001) 
(PID.TID 0000.0001) 
(PID.TID 0000.0001)  exf_GetFFieldsRec: first, changed, fac:   F   F   0.91666667E+00
(PID.TID 0000.0001)  exf_GetFFieldsRec:      count0, count1:   3   4
(PID.TID 0000.0001) 
(PID.TID 0000.0001) 
(PID.TID 0000.0001)  exf_GetFFieldsRec: first, changed, fac:   F   F   0.83333333E-01
(PID.TID 0000.0001)  exf_GetFFieldsRec:      count0, count1:   1   2
(PID.TID 0000.0001) 
(PID.TID 0000.0001) 
(PID.TID 0000.0001)  exf_GetFFieldsRec: first, changed, fac:   F   F   0.83333333E-01
(PID.TID 0000.0001)  exf_GetFFieldsRec:      count0, count1:   1   2
(PID.TID 0000.0001) 
(PID.TID 0000.0001) 
(PID.TID 0000.0001)  exf_GetFFieldsRec: first, changed, fac:   F   F   0.83333333E-01
(PID.TID 0000.0001)  exf_GetFFieldsRec:      count0, count1:   1   2
(PID.TID 0000.0001) 
 cg2d: Sum(rhs),rhsMax =   1.95850280437782E-15  6.06478011786002E-01
(PID.TID 0000.0001)  MDSREADFIELD: opening file: tbar.0000000000.001.001.data
(PID.TID 0000.0001)  MDSREADFIELD: opening global file: PH_SST_fields__020_016_23.data
(PID.TID 0000.0001)  MDSREADFIELD: opening file: tbar.0000000000.001.001.data
(PID.TID 0000.0001)  MDSREADFIELD: opening global file: PH_Lev.ptmp__020_016_23.data
(PID.TID 0000.0001)  MDSREADFIELD: opening file: sbar.0000000000.001.001.data
(PID.TID 0000.0001)  MDSREADFIELD: opening global file: PH_Lev.salt__020_016_23.data
(PID.TID 0000.0001)  MDSREADFIELD: opening file: psbar.0000000000.001.001.data
(PID.TID 0000.0001)  MDSREADFIELD: opening file: psbar.0000000000.001.001.data
(PID.TID 0000.0001)  MDSREADFIELD: opening global file: PH_TP_mean__020_016_23.data

  cost_ssh: offset_sum =   164.781314

(PID.TID 0000.0001)  MDSREADFIELD: opening file: psbar.0000000000.001.001.data
(PID.TID 0000.0001)  MDSREADFIELD: opening global file: PH_TP_fields__020_016_23.data
(PID.TID 0000.0001)  MDSREADFIELD: opening global file: PH_ERS_fields__020_016_23.data
(PID.TID 0000.0001)  MDSREADFIELD: opening file: psbar.0000000000.001.001.data
(PID.TID 0000.0001)  MDSREADFIELD: opening global file: PH_TP_fields__020_016_23.data
(PID.TID 0000.0001)  MDSREADFIELD: opening global file: PH_ERS_fields__020_016_23.data
(PID.TID 0000.0001)  MDSREADFIELD: opening file: tbar.0000000000.001.001.data
(PID.TID 0000.0001)  MDSREADFIELD: opening global file: PH_SST_fields__020_016_23.data
  --> objf_temp(bi,bj)    =  2414.00375
  --> objf_salt(bi,bj)    =  472.001555
  --> objf_temp0(bi,bj)   =  0.
  --> objf_salt0(bi,bj)   =  0.
  --> objf_tmi(bi,bj)     =  0.
  --> objf_sst(bi,bj)     =  15.011058
  --> objf_sss(bi,bj)     =  0.
  --> objf_h(bi,bj)       =  0.
  --> objf_hmean          =  0.
  --> objf_tauu(bi,bj)    =  0.
  --> objf_tauum(bi,bj)   =  0.
  --> objf_tauv(bi,bj)    =  0.
  --> objf_tauvm(bi,bj)   =  0.
  --> objf_hflux(bi,bj)   =  8.05823601E-12
  --> objf_hflux(bi,bj)   =  0.
  --> objf_hflux(bi,bj)   =  0.
  --> objf_sflux(bi,bj)   =  0.
  --> objf_sflux(bi,bj)   =  0.
  --> objf_sflux(bi,bj)   =  0.
  --> objf_atl(bi,bj)     =  0.
  --> objf_ctdt(bi,bj)    =  0.
  --> objf_ctds(bi,bj)    =  0.
  --> objf_ctdtclim(bi,bj)=  0.
  --> objf_ctdsclim(bi,bj)=  0.
  --> objf_xbt(bi,bj)     =  0.
  --> objf_argot(bi,bj)   =  0.
  --> objf_argos(bi,bj)   =  0.
  --> objf_drift(bi,bj)   =  0.
  --> objf_tdrift(bi,bj)  =  0.
  --> objf_sdrift(bi,bj)  =  0.
  --> objf_wdrift(bi,bj)  =  0.
  --> objf_scatx(bi,bj)   =  0.
  --> objf_scaty(bi,bj)   =  0.
  --> objf_scatxm(bi,bj)  =  0.
  --> objf_scatym(bi,bj)  =  0.
  --> objf_uwind(bi,bj)   =  0.
  --> objf_vwind(bi,bj)   =  0.
  --> objf_atemp(bi,bj)   =  0.
  --> objf_aqh(bi,bj)     =  0.
  --> objf_obcsn(bi,bj)   =  0.
  --> objf_obcss(bi,bj)   =  0.
  --> objf_obcsw(bi,bj)   =  0.
  --> objf_obcse(bi,bj)   =  0.
  --> objf_ageos(bi,bj)   =  0.
  --> objf_curmtr(bi,bj)  =  0.
  --> objf_obcsvol        =  0.
  --> objf_ice(bi,bj)     =  0.
  --> objf_kapgm(bi,bj)   =  0.
  --> objf_diffkr(bi,bj)  =  0.
  --> objf_ini_fin(bi,bj) =  0.
  --> objf_hmean  (GLOBAL) =  0.
  --> objf_obcsvol(GLOBAL) =  0.
  --> fc                   =  2901.01636
(PID.TID 0000.0001)  MDSREADFIELD: opening file: xx_hfl.0000000000.001.001.data
 ph-grd 3 -------------------------------
 ph-grd 3     0    1    2    2    1   0.290101636E+04 0.290101636E+04 0.290101636E+04
 ph-grd 3     0    1    1    1    0   -.511940072E-04 -.511863618E-04 0.149342060E-03
 ph-grd  ierr ---------------------------
 ph-grd  ierr =  0, icomp =  1, ichknum =  1
(PID.TID 0000.0001)  MDSREADFIELD: opening file: adxx_hfl.0000000000.001.001.data
(PID.TID 0000.0001)  MDSREADFIELD: opening file: xx_hfl.0000000000.001.001.data
(PID.TID 0000.0001) 
(PID.TID 0000.0001)  cal_TimeStamp: iter =          0 time =  0.00000000E+00
(PID.TID 0000.0001)                 date =   19920102      220000
(PID.TID 0000.0001) 
(PID.TID 0000.0001) %MON surfExpanfCori_max           =   9.5419917861011E-05
(PID.TID 0000.0001) %MON surfExpanfCori_min           =   2.7752043431195E-05
(PID.TID 0000.0001) %MON surfExpanfCori_mean          =   6.2936249243167E-05
(PID.TID 0000.0001) %MON surfExpanfCori_sd            =   2.0885809702547E-05
(PID.TID 0000.0001) %MON surfExpanfCoriG_max          =   9.3489668167119E-05
(PID.TID 0000.0001) %MON surfExpanfCoriG_min          =   2.5256103669800E-05
(PID.TID 0000.0001) %MON surfExpanfCoriG_mean         =   6.0674632558389E-05
(PID.TID 0000.0001) %MON surfExpanfCoriG_sd           =   2.1059305790472E-05
(PID.TID 0000.0001) %MON surfExpanfCoriCos_max        =   1.4277188648533E-04
(PID.TID 0000.0001) %MON surfExpanfCoriCos_min        =   1.0976805892693E-04
(PID.TID 0000.0001) %MON surfExpanfCoriCos_mean       =   1.2903843359786E-04
(PID.TID 0000.0001) %MON surfExpanfCoriCos_sd         =   1.0289879691716E-05
(PID.TID 0000.0001) // CG2D normalisation factor =          0.1575292392863445389492028E-03
(PID.TID 0000.0001) 
(PID.TID 0000.0001)  MDSREADFIELD: opening global file: PH_LevCli.ptmp__020_016_23.data
(PID.TID 0000.0001) // =======================================================
(PID.TID 0000.0001) // Field Initial Temperature at iteration          1
(PID.TID 0000.0001) // CMIN =          1.840084838867188E+01
(PID.TID 0000.0001) // CMAX =          2.607793426513672E+01
(PID.TID 0000.0001) // CINT =          2.843365139431424E-01
(PID.TID 0000.0001) // SYMBOLS (CMIN->CMAX): -abcdefghijklmnopqrstuvwxyz+
(PID.TID 0000.0001) //                  0.0: .
(PID.TID 0000.0001) // RANGE I (Lo:Hi:Step):(   1:  20:   1)
(PID.TID 0000.0001) // RANGE J (Lo:Hi:Step):(  16:   1:  -1)
(PID.TID 0000.0001) // RANGE K (Lo:Hi:Step):(   1:   1:   1)
(PID.TID 0000.0001) // =======================================================
(PID.TID 0000.0001) K =   1
(PID.TID 0000.0001)                I=10      I=20
(PID.TID 0000.0001) |--J--|123456789|123456789|
(PID.TID 0000.0001)     16 ....................
(PID.TID 0000.0001)     15 .jihhgfeedddcba---a.
(PID.TID 0000.0001)     14 .kjiihggffeedcbbabb.
(PID.TID 0000.0001)     13 .lkkjiiiihgfedccbc..
(PID.TID 0000.0001)     12 .mllkkjjjihgfedcc...
(PID.TID 0000.0001)     11 .onnmmllkjihgfeec...
(PID.TID 0000.0001)     10 .rrqqponmmlkihf.....
(PID.TID 0000.0001)      9 .utssrqponmljh......
(PID.TID 0000.0001)      8 .vuttsrqponlig......
(PID.TID 0000.0001)      7 .vuutsrrponkif......
(PID.TID 0000.0001)      6 .wvvuutsrqomjh......
(PID.TID 0000.0001)      5 .yxwwwvutsrpnl......
(PID.TID 0000.0001)      4 .zyyyxxwwvutrq......
(PID.TID 0000.0001)      3 .zzzzyyxxxxwvu......
(PID.TID 0000.0001)      2 .+++++zzz+++zy......
(PID.TID 0000.0001)      1 ....................
(PID.TID 0000.0001) // =======================================================
(PID.TID 0000.0001) // END OF FIELD                                          =
(PID.TID 0000.0001) // =======================================================
(PID.TID 0000.0001) 
(PID.TID 0000.0001)  MDSREADFIELD: opening global file: PH_LevCli.salt__020_016_23.data
(PID.TID 0000.0001) // =======================================================
(PID.TID 0000.0001) // Field Initial Salinity at iteration          1
(PID.TID 0000.0001) // CMIN =          3.501070022583008E+01
(PID.TID 0000.0001) // CMAX =          3.739887619018555E+01
(PID.TID 0000.0001) // CINT =          8.845096164279515E-02
(PID.TID 0000.0001) // SYMBOLS (CMIN->CMAX): -abcdefghijklmnopqrstuvwxyz+
(PID.TID 0000.0001) //                  0.0: .
(PID.TID 0000.0001) // RANGE I (Lo:Hi:Step):(   1:  20:   1)
(PID.TID 0000.0001) // RANGE J (Lo:Hi:Step):(  16:   1:  -1)
(PID.TID 0000.0001) // RANGE K (Lo:Hi:Step):(   1:   1:   1)
(PID.TID 0000.0001) // =======================================================
(PID.TID 0000.0001) K =   1
(PID.TID 0000.0001)                I=10      I=20
(PID.TID 0000.0001) |--J--|123456789|123456789|
(PID.TID 0000.0001)     16 ....................
(PID.TID 0000.0001)     15 .oonnnnmmnnnnnnmllk.
(PID.TID 0000.0001)     14 .ppppoooopppppppooo.
(PID.TID 0000.0001)     13 .qqqqqrrrrrrqqqqqq..
(PID.TID 0000.0001)     12 .tttttttttttssrqp...
(PID.TID 0000.0001)     11 .wwwwwwvvvvuusrpn...
(PID.TID 0000.0001)     10 .zzyyyyyxxwvusr.....
(PID.TID 0000.0001)      9 .++zzzzyxxwutr......
(PID.TID 0000.0001)      8 .+zzyyyxwvusrp......
(PID.TID 0000.0001)      7 .xxxxwwutsrpnm......
(PID.TID 0000.0001)      6 .uuuuutsqponlj......
(PID.TID 0000.0001)      5 .rrrrqqponmkji......
(PID.TID 0000.0001)      4 .poooonmmlkihg......
(PID.TID 0000.0001)      3 .mmlllllkjihec......
(PID.TID 0000.0001)      2 .jjjkkkjjihfd-......
(PID.TID 0000.0001)      1 ....................
(PID.TID 0000.0001) // =======================================================
(PID.TID 0000.0001) // END OF FIELD                                          =
(PID.TID 0000.0001) // =======================================================
(PID.TID 0000.0001) 
(PID.TID 0000.0001) Start initial hydrostatic pressure computation
(PID.TID 0000.0001) Pressure is predetermined for buoyancyRelation OCEANIC
(PID.TID 0000.0001) 
(PID.TID 0000.0001)  MDSREADFIELD: opening file: xx_theta.0000000000.001.001.data
(PID.TID 0000.0001)  MDSREADFIELD: opening file: xx_salt.0000000000.001.001.data
(PID.TID 0000.0001) // =======================================================
(PID.TID 0000.0001) // Model current state
(PID.TID 0000.0001) // =======================================================
(PID.TID 0000.0001) 
(PID.TID 0000.0001) // =======================================================
(PID.TID 0000.0001) // Begin MONITOR dynamic field statistics
(PID.TID 0000.0001) // =======================================================
(PID.TID 0000.0001) %MON time_tsnumber                =                     0
(PID.TID 0000.0001) %MON time_secondsf                =   0.0000000000000E+00
(PID.TID 0000.0001) %MON dynstat_eta_max              =   0.0000000000000E+00
(PID.TID 0000.0001) %MON dynstat_eta_min              =   0.0000000000000E+00
(PID.TID 0000.0001) %MON dynstat_eta_mean             =   0.0000000000000E+00
(PID.TID 0000.0001) %MON dynstat_eta_sd               =   0.0000000000000E+00
(PID.TID 0000.0001) %MON dynstat_eta_del2             =   0.0000000000000E+00
(PID.TID 0000.0001) %MON dynstat_uvel_max             =   0.0000000000000E+00
(PID.TID 0000.0001) %MON dynstat_uvel_min             =   0.0000000000000E+00
(PID.TID 0000.0001) %MON dynstat_uvel_mean            =   0.0000000000000E+00
(PID.TID 0000.0001) %MON dynstat_uvel_sd              =   0.0000000000000E+00
(PID.TID 0000.0001) %MON dynstat_uvel_del2            =   0.0000000000000E+00
(PID.TID 0000.0001) %MON dynstat_vvel_max             =   0.0000000000000E+00
(PID.TID 0000.0001) %MON dynstat_vvel_min             =   0.0000000000000E+00
(PID.TID 0000.0001) %MON dynstat_vvel_mean            =   0.0000000000000E+00
(PID.TID 0000.0001) %MON dynstat_vvel_sd              =   0.0000000000000E+00
(PID.TID 0000.0001) %MON dynstat_vvel_del2            =   0.0000000000000E+00
(PID.TID 0000.0001) %MON dynstat_wvel_max             =   0.0000000000000E+00
(PID.TID 0000.0001) %MON dynstat_wvel_min             =   0.0000000000000E+00
(PID.TID 0000.0001) %MON dynstat_wvel_mean            =   0.0000000000000E+00
(PID.TID 0000.0001) %MON dynstat_wvel_sd              =   0.0000000000000E+00
(PID.TID 0000.0001) %MON dynstat_wvel_del2            =   0.0000000000000E+00
(PID.TID 0000.0001) %MON dynstat_theta_max            =   2.6077934265137E+01
(PID.TID 0000.0001) %MON dynstat_theta_min            =   1.8064365386963E+00
(PID.TID 0000.0001) %MON dynstat_theta_mean           =   5.4784105600004E+00
(PID.TID 0000.0001) %MON dynstat_theta_sd             =   4.5923951934310E+00
(PID.TID 0000.0001) %MON dynstat_theta_del2           =   5.0898848572070E-02
(PID.TID 0000.0001) %MON dynstat_salt_max             =   3.7401638031006E+01
(PID.TID 0000.0001) %MON dynstat_salt_min             =   3.4726768493652E+01
(PID.TID 0000.0001) %MON dynstat_salt_mean            =   3.5157555715946E+01
(PID.TID 0000.0001) %MON dynstat_salt_sd              =   4.1377404390946E-01
(PID.TID 0000.0001) %MON dynstat_salt_del2            =   1.2632116608019E-02
(PID.TID 0000.0001) %MON advcfl_uvel_max              =   0.0000000000000E+00
(PID.TID 0000.0001) %MON advcfl_vvel_max              =   0.0000000000000E+00
(PID.TID 0000.0001) %MON advcfl_wvel_max              =   0.0000000000000E+00
(PID.TID 0000.0001) %MON advcfl_W_hf_max              =   0.0000000000000E+00
(PID.TID 0000.0001) %MON pe_b_mean                    =   0.0000000000000E+00
(PID.TID 0000.0001) %MON ke_max                       =   0.0000000000000E+00
(PID.TID 0000.0001) %MON ke_mean                      =   0.0000000000000E+00
(PID.TID 0000.0001) %MON ke_vol                       =   3.6027486600263E+16
(PID.TID 0000.0001) %MON vort_r_min                   =   0.0000000000000E+00
(PID.TID 0000.0001) %MON vort_r_max                   =   0.0000000000000E+00
(PID.TID 0000.0001) %MON vort_a_mean                  =   6.1944475191297E-05
(PID.TID 0000.0001) %MON vort_a_sd                    =   1.9197697516419E-05
(PID.TID 0000.0001) %MON vort_p_mean                  =   7.7881882182936E-05
(PID.TID 0000.0001) %MON vort_p_sd                    =   5.6365002634549E-05
(PID.TID 0000.0001) %MON surfExpan_theta_mean         =   0.0000000000000E+00
(PID.TID 0000.0001) %MON surfExpan_salt_mean          =   0.0000000000000E+00
(PID.TID 0000.0001) // =======================================================
(PID.TID 0000.0001) // End MONITOR dynamic field statistics
(PID.TID 0000.0001) // =======================================================
(PID.TID 0000.0001)  MDSREADFIELD: opening file: xx_hfl.0000000000.001.001.data
(PID.TID 0000.0001)  MDSREADFIELD: opening file: xx_hfl.0000000000.001.001.data
(PID.TID 0000.0001)  MDSREADFIELD: opening file: xx_hfl.0000000000.001.001.data
(PID.TID 0000.0001)  MDSREADFIELD: opening file: xx_hfl.0000000000.001.001.data
(PID.TID 0000.0001)  MDSREADFIELD: opening file: xx_sfl.0000000000.001.001.data
(PID.TID 0000.0001)  MDSREADFIELD: opening file: xx_sfl.0000000000.001.001.data
(PID.TID 0000.0001)  MDSREADFIELD: opening file: xx_sfl.0000000000.001.001.data
(PID.TID 0000.0001)  MDSREADFIELD: opening file: xx_sfl.0000000000.001.001.data
(PID.TID 0000.0001)  MDSREADFIELD: opening file: xx_tauu.0000000000.001.001.data
(PID.TID 0000.0001)  MDSREADFIELD: opening file: xx_tauu.0000000000.001.001.data
(PID.TID 0000.0001)  MDSREADFIELD: opening file: xx_tauu.0000000000.001.001.data
(PID.TID 0000.0001)  MDSREADFIELD: opening file: xx_tauu.0000000000.001.001.data
(PID.TID 0000.0001)  MDSREADFIELD: opening file: xx_tauv.0000000000.001.001.data
(PID.TID 0000.0001)  MDSREADFIELD: opening file: xx_tauv.0000000000.001.001.data
(PID.TID 0000.0001)  MDSREADFIELD: opening file: xx_tauv.0000000000.001.001.data
(PID.TID 0000.0001)  MDSREADFIELD: opening file: xx_tauv.0000000000.001.001.data
(PID.TID 0000.0001) 
(PID.TID 0000.0001)  exf_GetFFieldsRec: first, changed, fac:   T   F   0.16666667E+00
(PID.TID 0000.0001)  exf_GetFFieldsRec:      count0, count1:   2   3
(PID.TID 0000.0001) 
(PID.TID 0000.0001)  MDSREADFIELD: opening global file: PH_ustress__020_016_23.data
(PID.TID 0000.0001)  MDSREADFIELD: opening global file: PH_ustress__020_016_23.data
(PID.TID 0000.0001) 
(PID.TID 0000.0001)  exf_GetFFieldsRec: first, changed, fac:   T   F   0.16666667E+00
(PID.TID 0000.0001)  exf_GetFFieldsRec:      count0, count1:   2   3
(PID.TID 0000.0001) 
(PID.TID 0000.0001)  MDSREADFIELD: opening global file: PH_vstress__020_016_23.data
(PID.TID 0000.0001)  MDSREADFIELD: opening global file: PH_vstress__020_016_23.data
(PID.TID 0000.0001) 
(PID.TID 0000.0001)  exf_GetFFieldsRec: first, changed, fac:   T   F   0.20833333E+00
(PID.TID 0000.0001)  exf_GetFFieldsRec:      count0, count1:   1   2
(PID.TID 0000.0001) 
(PID.TID 0000.0001)  MDSREADFIELD: opening global file: PH_totflsfc__020_016_23.data
(PID.TID 0000.0001)  MDSREADFIELD: opening global file: PH_totflsfc__020_016_23.data
(PID.TID 0000.0001) 
(PID.TID 0000.0001)  exf_GetFFieldsRec: first, changed, fac:   T   F   0.20833333E+00
(PID.TID 0000.0001)  exf_GetFFieldsRec:      count0, count1:   1   2
(PID.TID 0000.0001) 
(PID.TID 0000.0001)  MDSREADFIELD: opening global file: PH_pratesfc__020_016_23.data
(PID.TID 0000.0001)  MDSREADFIELD: opening global file: PH_pratesfc__020_016_23.data
(PID.TID 0000.0001) 
(PID.TID 0000.0001)  exf_GetFFieldsRec: first, changed, fac:   T   F   0.20833333E+00
(PID.TID 0000.0001)  exf_GetFFieldsRec:      count0, count1:   1   2
(PID.TID 0000.0001) 
(PID.TID 0000.0001)  MDSREADFIELD: opening global file: PH_swflsfc__020_016_23.data
(PID.TID 0000.0001)  MDSREADFIELD: opening global file: PH_swflsfc__020_016_23.data
(PID.TID 0000.0001)  MDSREADFIELD: opening file: xx_hfl.0000000000.001.001.data
(PID.TID 0000.0001)  MDSREADFIELD: opening file: xx_hfl.0000000000.001.001.data
(PID.TID 0000.0001)  MDSREADFIELD: opening file: xx_sfl.0000000000.001.001.data
(PID.TID 0000.0001)  MDSREADFIELD: opening file: xx_sfl.0000000000.001.001.data
(PID.TID 0000.0001)  MDSREADFIELD: opening file: xx_tauu.0000000000.001.001.data
(PID.TID 0000.0001)  MDSREADFIELD: opening file: xx_tauu.0000000000.001.001.data
(PID.TID 0000.0001)  MDSREADFIELD: opening file: xx_tauv.0000000000.001.001.data
(PID.TID 0000.0001)  MDSREADFIELD: opening file: xx_tauv.0000000000.001.001.data
 pathei: in check_exp: iter/time/rec/yprefix  0  0. 1 kf_
 pathei: in check_exp: date   0
 pathei: in check_exp: theta   21.9700623
 pathei: in check_exp: salt    37.1130981
 pathei: in check_exp: uvel    0.
 pathei: in check_exp: vvel    0.
 pathei: in check_exp: qnet    147.296121
 pathei: in check_exp: empmr   2.83352032E-08
 pathei: in check_exp: fu     -0.0133724209
 pathei: in check_exp: fv     -0.02042173
 cg2d: Sum(rhs),rhsMax =   7.66747776381749E-16  4.50737656431993E-01
(PID.TID 0000.0001)                    cg2d_init_res =    3.97910540907939E+00
(PID.TID 0000.0001)                       cg2d_iters =    50
(PID.TID 0000.0001)                         cg2d_res =    7.14109632320996E-14
(PID.TID 0000.0001) 
(PID.TID 0000.0001)  exf_GetFFieldsRec: first, changed, fac:   F   F   0.83333333E-01
(PID.TID 0000.0001)  exf_GetFFieldsRec:      count0, count1:   2   3
(PID.TID 0000.0001) 
(PID.TID 0000.0001) 
(PID.TID 0000.0001)  exf_GetFFieldsRec: first, changed, fac:   F   F   0.83333333E-01
(PID.TID 0000.0001)  exf_GetFFieldsRec:      count0, count1:   2   3
(PID.TID 0000.0001) 
(PID.TID 0000.0001) 
(PID.TID 0000.0001)  exf_GetFFieldsRec: first, changed, fac:   F   F   0.16666667E+00
(PID.TID 0000.0001)  exf_GetFFieldsRec:      count0, count1:   1   2
(PID.TID 0000.0001) 
(PID.TID 0000.0001) 
(PID.TID 0000.0001)  exf_GetFFieldsRec: first, changed, fac:   F   F   0.16666667E+00
(PID.TID 0000.0001)  exf_GetFFieldsRec:      count0, count1:   1   2
(PID.TID 0000.0001) 
(PID.TID 0000.0001) 
(PID.TID 0000.0001)  exf_GetFFieldsRec: first, changed, fac:   F   F   0.16666667E+00
(PID.TID 0000.0001)  exf_GetFFieldsRec:      count0, count1:   1   2
(PID.TID 0000.0001) 
 cg2d: Sum(rhs),rhsMax =   9.41087485717418E-16  5.55571937118767E-01
(PID.TID 0000.0001) 
(PID.TID 0000.0001)  exf_GetFFieldsRec: first, changed, fac:   F   T   0.10000000E+01
(PID.TID 0000.0001)  exf_GetFFieldsRec:      count0, count1:   3   4
(PID.TID 0000.0001) 
(PID.TID 0000.0001)  MDSREADFIELD: opening global file: PH_ustress__020_016_23.data
(PID.TID 0000.0001) 
(PID.TID 0000.0001)  exf_GetFFieldsRec: first, changed, fac:   F   T   0.10000000E+01
(PID.TID 0000.0001)  exf_GetFFieldsRec:      count0, count1:   3   4
(PID.TID 0000.0001) 
(PID.TID 0000.0001)  MDSREADFIELD: opening global file: PH_vstress__020_016_23.data
(PID.TID 0000.0001) 
(PID.TID 0000.0001)  exf_GetFFieldsRec: first, changed, fac:   F   F   0.12500000E+00
(PID.TID 0000.0001)  exf_GetFFieldsRec:      count0, count1:   1   2
(PID.TID 0000.0001) 
(PID.TID 0000.0001) 
(PID.TID 0000.0001)  exf_GetFFieldsRec: first, changed, fac:   F   F   0.12500000E+00
(PID.TID 0000.0001)  exf_GetFFieldsRec:      count0, count1:   1   2
(PID.TID 0000.0001) 
(PID.TID 0000.0001) 
(PID.TID 0000.0001)  exf_GetFFieldsRec: first, changed, fac:   F   F   0.12500000E+00
(PID.TID 0000.0001)  exf_GetFFieldsRec:      count0, count1:   1   2
(PID.TID 0000.0001) 
 cg2d: Sum(rhs),rhsMax =   1.65492619608187E-15  5.83078086204070E-01
(PID.TID 0000.0001) 
(PID.TID 0000.0001)  exf_GetFFieldsRec: first, changed, fac:   F   F   0.91666667E+00
(PID.TID 0000.0001)  exf_GetFFieldsRec:      count0, count1:   3   4
(PID.TID 0000.0001) 
(PID.TID 0000.0001) 
(PID.TID 0000.0001)  exf_GetFFieldsRec: first, changed, fac:   F   F   0.91666667E+00
(PID.TID 0000.0001)  exf_GetFFieldsRec:      count0, count1:   3   4
(PID.TID 0000.0001) 
(PID.TID 0000.0001) 
(PID.TID 0000.0001)  exf_GetFFieldsRec: first, changed, fac:   F   F   0.83333333E-01
(PID.TID 0000.0001)  exf_GetFFieldsRec:      count0, count1:   1   2
(PID.TID 0000.0001) 
(PID.TID 0000.0001) 
(PID.TID 0000.0001)  exf_GetFFieldsRec: first, changed, fac:   F   F   0.83333333E-01
(PID.TID 0000.0001)  exf_GetFFieldsRec:      count0, count1:   1   2
(PID.TID 0000.0001) 
(PID.TID 0000.0001) 
(PID.TID 0000.0001)  exf_GetFFieldsRec: first, changed, fac:   F   F   0.83333333E-01
(PID.TID 0000.0001)  exf_GetFFieldsRec:      count0, count1:   1   2
(PID.TID 0000.0001) 
 cg2d: Sum(rhs),rhsMax =  -1.10675357767320E-15  6.06478011785927E-01
(PID.TID 0000.0001)  MDSREADFIELD: opening file: tbar.0000000000.001.001.data
(PID.TID 0000.0001)  MDSREADFIELD: opening global file: PH_SST_fields__020_016_23.data
(PID.TID 0000.0001)  MDSREADFIELD: opening file: tbar.0000000000.001.001.data
(PID.TID 0000.0001)  MDSREADFIELD: opening global file: PH_Lev.ptmp__020_016_23.data
(PID.TID 0000.0001)  MDSREADFIELD: opening file: sbar.0000000000.001.001.data
(PID.TID 0000.0001)  MDSREADFIELD: opening global file: PH_Lev.salt__020_016_23.data
(PID.TID 0000.0001)  MDSREADFIELD: opening file: psbar.0000000000.001.001.data
(PID.TID 0000.0001)  MDSREADFIELD: opening file: psbar.0000000000.001.001.data
(PID.TID 0000.0001)  MDSREADFIELD: opening global file: PH_TP_mean__020_016_23.data

  cost_ssh: offset_sum =   164.781314

(PID.TID 0000.0001)  MDSREADFIELD: opening file: psbar.0000000000.001.001.data
(PID.TID 0000.0001)  MDSREADFIELD: opening global file: PH_TP_fields__020_016_23.data
(PID.TID 0000.0001)  MDSREADFIELD: opening global file: PH_ERS_fields__020_016_23.data
(PID.TID 0000.0001)  MDSREADFIELD: opening file: psbar.0000000000.001.001.data
(PID.TID 0000.0001)  MDSREADFIELD: opening global file: PH_TP_fields__020_016_23.data
(PID.TID 0000.0001)  MDSREADFIELD: opening global file: PH_ERS_fields__020_016_23.data
(PID.TID 0000.0001)  MDSREADFIELD: opening file: tbar.0000000000.001.001.data
(PID.TID 0000.0001)  MDSREADFIELD: opening global file: PH_SST_fields__020_016_23.data
  --> objf_temp(bi,bj)    =  2414.00375
  --> objf_salt(bi,bj)    =  472.001555
  --> objf_temp0(bi,bj)   =  0.
  --> objf_salt0(bi,bj)   =  0.
  --> objf_tmi(bi,bj)     =  0.
  --> objf_sst(bi,bj)     =  15.011058
  --> objf_sss(bi,bj)     =  0.
  --> objf_h(bi,bj)       =  0.
  --> objf_hmean          =  0.
  --> objf_tauu(bi,bj)    =  0.
  --> objf_tauum(bi,bj)   =  0.
  --> objf_tauv(bi,bj)    =  0.
  --> objf_tauvm(bi,bj)   =  0.
  --> objf_hflux(bi,bj)   =  7.71287869E-12
  --> objf_hflux(bi,bj)   =  2.70658351E-12
  --> objf_hflux(bi,bj)   =  0.
  --> objf_sflux(bi,bj)   =  0.
  --> objf_sflux(bi,bj)   =  0.
  --> objf_sflux(bi,bj)   =  0.
  --> objf_atl(bi,bj)     =  0.
  --> objf_ctdt(bi,bj)    =  0.
  --> objf_ctds(bi,bj)    =  0.
  --> objf_ctdtclim(bi,bj)=  0.
  --> objf_ctdsclim(bi,bj)=  0.
  --> objf_xbt(bi,bj)     =  0.
  --> objf_argot(bi,bj)   =  0.
  --> objf_argos(bi,bj)   =  0.
  --> objf_drift(bi,bj)   =  0.
  --> objf_tdrift(bi,bj)  =  0.
  --> objf_sdrift(bi,bj)  =  0.
  --> objf_wdrift(bi,bj)  =  0.
  --> objf_scatx(bi,bj)   =  0.
  --> objf_scaty(bi,bj)   =  0.
  --> objf_scatxm(bi,bj)  =  0.
  --> objf_scatym(bi,bj)  =  0.
  --> objf_uwind(bi,bj)   =  0.
  --> objf_vwind(bi,bj)   =  0.
  --> objf_atemp(bi,bj)   =  0.
  --> objf_aqh(bi,bj)     =  0.
  --> objf_obcsn(bi,bj)   =  0.
  --> objf_obcss(bi,bj)   =  0.
  --> objf_obcsw(bi,bj)   =  0.
  --> objf_obcse(bi,bj)   =  0.
  --> objf_ageos(bi,bj)   =  0.
  --> objf_curmtr(bi,bj)  =  0.
  --> objf_obcsvol        =  0.
  --> objf_ice(bi,bj)     =  0.
  --> objf_kapgm(bi,bj)   =  0.
  --> objf_diffkr(bi,bj)  =  0.
  --> objf_ini_fin(bi,bj) =  0.
  --> objf_hmean  (GLOBAL) =  0.
  --> objf_obcsvol(GLOBAL) =  0.
  --> fc                   =  2901.01636
(PID.TID 0000.0001)  MDSREADFIELD: opening file: xx_hfl.0000000000.001.001.data
(PID.TID 0000.0001)  MDSREADFIELD: opening file: xx_hfl.0000000000.001.001.data
(PID.TID 0000.0001) 
(PID.TID 0000.0001)  cal_TimeStamp: iter =          0 time =  0.00000000E+00
(PID.TID 0000.0001)                 date =   19920102      220000
(PID.TID 0000.0001) 
(PID.TID 0000.0001) %MON surfExpanfCori_max           =   9.5419917861011E-05
(PID.TID 0000.0001) %MON surfExpanfCori_min           =   2.7752043431195E-05
(PID.TID 0000.0001) %MON surfExpanfCori_mean          =   6.2936249243167E-05
(PID.TID 0000.0001) %MON surfExpanfCori_sd            =   2.0885809702547E-05
(PID.TID 0000.0001) %MON surfExpanfCoriG_max          =   9.3489668167119E-05
(PID.TID 0000.0001) %MON surfExpanfCoriG_min          =   2.5256103669800E-05
(PID.TID 0000.0001) %MON surfExpanfCoriG_mean         =   6.0674632558389E-05
(PID.TID 0000.0001) %MON surfExpanfCoriG_sd           =   2.1059305790472E-05
(PID.TID 0000.0001) %MON surfExpanfCoriCos_max        =   1.4277188648533E-04
(PID.TID 0000.0001) %MON surfExpanfCoriCos_min        =   1.0976805892693E-04
(PID.TID 0000.0001) %MON surfExpanfCoriCos_mean       =   1.2903843359786E-04
(PID.TID 0000.0001) %MON surfExpanfCoriCos_sd         =   1.0289879691716E-05
(PID.TID 0000.0001) // CG2D normalisation factor =          0.1575292392863445389492028E-03
(PID.TID 0000.0001) 
(PID.TID 0000.0001)  MDSREADFIELD: opening global file: PH_LevCli.ptmp__020_016_23.data
(PID.TID 0000.0001) // =======================================================
(PID.TID 0000.0001) // Field Initial Temperature at iteration          1
(PID.TID 0000.0001) // CMIN =          1.840084838867188E+01
(PID.TID 0000.0001) // CMAX =          2.607793426513672E+01
(PID.TID 0000.0001) // CINT =          2.843365139431424E-01
(PID.TID 0000.0001) // SYMBOLS (CMIN->CMAX): -abcdefghijklmnopqrstuvwxyz+
(PID.TID 0000.0001) //                  0.0: .
(PID.TID 0000.0001) // RANGE I (Lo:Hi:Step):(   1:  20:   1)
(PID.TID 0000.0001) // RANGE J (Lo:Hi:Step):(  16:   1:  -1)
(PID.TID 0000.0001) // RANGE K (Lo:Hi:Step):(   1:   1:   1)
(PID.TID 0000.0001) // =======================================================
(PID.TID 0000.0001) K =   1
(PID.TID 0000.0001)                I=10      I=20
(PID.TID 0000.0001) |--J--|123456789|123456789|
(PID.TID 0000.0001)     16 ....................
(PID.TID 0000.0001)     15 .jihhgfeedddcba---a.
(PID.TID 0000.0001)     14 .kjiihggffeedcbbabb.
(PID.TID 0000.0001)     13 .lkkjiiiihgfedccbc..
(PID.TID 0000.0001)     12 .mllkkjjjihgfedcc...
(PID.TID 0000.0001)     11 .onnmmllkjihgfeec...
(PID.TID 0000.0001)     10 .rrqqponmmlkihf.....
(PID.TID 0000.0001)      9 .utssrqponmljh......
(PID.TID 0000.0001)      8 .vuttsrqponlig......
(PID.TID 0000.0001)      7 .vuutsrrponkif......
(PID.TID 0000.0001)      6 .wvvuutsrqomjh......
(PID.TID 0000.0001)      5 .yxwwwvutsrpnl......
(PID.TID 0000.0001)      4 .zyyyxxwwvutrq......
(PID.TID 0000.0001)      3 .zzzzyyxxxxwvu......
(PID.TID 0000.0001)      2 .+++++zzz+++zy......
(PID.TID 0000.0001)      1 ....................
(PID.TID 0000.0001) // =======================================================
(PID.TID 0000.0001) // END OF FIELD                                          =
(PID.TID 0000.0001) // =======================================================
(PID.TID 0000.0001) 
(PID.TID 0000.0001)  MDSREADFIELD: opening global file: PH_LevCli.salt__020_016_23.data
(PID.TID 0000.0001) // =======================================================
(PID.TID 0000.0001) // Field Initial Salinity at iteration          1
(PID.TID 0000.0001) // CMIN =          3.501070022583008E+01
(PID.TID 0000.0001) // CMAX =          3.739887619018555E+01
(PID.TID 0000.0001) // CINT =          8.845096164279515E-02
(PID.TID 0000.0001) // SYMBOLS (CMIN->CMAX): -abcdefghijklmnopqrstuvwxyz+
(PID.TID 0000.0001) //                  0.0: .
(PID.TID 0000.0001) // RANGE I (Lo:Hi:Step):(   1:  20:   1)
(PID.TID 0000.0001) // RANGE J (Lo:Hi:Step):(  16:   1:  -1)
(PID.TID 0000.0001) // RANGE K (Lo:Hi:Step):(   1:   1:   1)
(PID.TID 0000.0001) // =======================================================
(PID.TID 0000.0001) K =   1
(PID.TID 0000.0001)                I=10      I=20
(PID.TID 0000.0001) |--J--|123456789|123456789|
(PID.TID 0000.0001)     16 ....................
(PID.TID 0000.0001)     15 .oonnnnmmnnnnnnmllk.
(PID.TID 0000.0001)     14 .ppppoooopppppppooo.
(PID.TID 0000.0001)     13 .qqqqqrrrrrrqqqqqq..
(PID.TID 0000.0001)     12 .tttttttttttssrqp...
(PID.TID 0000.0001)     11 .wwwwwwvvvvuusrpn...
(PID.TID 0000.0001)     10 .zzyyyyyxxwvusr.....
(PID.TID 0000.0001)      9 .++zzzzyxxwutr......
(PID.TID 0000.0001)      8 .+zzyyyxwvusrp......
(PID.TID 0000.0001)      7 .xxxxwwutsrpnm......
(PID.TID 0000.0001)      6 .uuuuutsqponlj......
(PID.TID 0000.0001)      5 .rrrrqqponmkji......
(PID.TID 0000.0001)      4 .poooonmmlkihg......
(PID.TID 0000.0001)      3 .mmlllllkjihec......
(PID.TID 0000.0001)      2 .jjjkkkjjihfd-......
(PID.TID 0000.0001)      1 ....................
(PID.TID 0000.0001) // =======================================================
(PID.TID 0000.0001) // END OF FIELD                                          =
(PID.TID 0000.0001) // =======================================================
(PID.TID 0000.0001) 
(PID.TID 0000.0001) Start initial hydrostatic pressure computation
(PID.TID 0000.0001) Pressure is predetermined for buoyancyRelation OCEANIC
(PID.TID 0000.0001) 
(PID.TID 0000.0001)  MDSREADFIELD: opening file: xx_theta.0000000000.001.001.data
(PID.TID 0000.0001)  MDSREADFIELD: opening file: xx_salt.0000000000.001.001.data
(PID.TID 0000.0001) // =======================================================
(PID.TID 0000.0001) // Model current state
(PID.TID 0000.0001) // =======================================================
(PID.TID 0000.0001) 
(PID.TID 0000.0001) // =======================================================
(PID.TID 0000.0001) // Begin MONITOR dynamic field statistics
(PID.TID 0000.0001) // =======================================================
(PID.TID 0000.0001) %MON time_tsnumber                =                     0
(PID.TID 0000.0001) %MON time_secondsf                =   0.0000000000000E+00
(PID.TID 0000.0001) %MON dynstat_eta_max              =   0.0000000000000E+00
(PID.TID 0000.0001) %MON dynstat_eta_min              =   0.0000000000000E+00
(PID.TID 0000.0001) %MON dynstat_eta_mean             =   0.0000000000000E+00
(PID.TID 0000.0001) %MON dynstat_eta_sd               =   0.0000000000000E+00
(PID.TID 0000.0001) %MON dynstat_eta_del2             =   0.0000000000000E+00
(PID.TID 0000.0001) %MON dynstat_uvel_max             =   0.0000000000000E+00
(PID.TID 0000.0001) %MON dynstat_uvel_min             =   0.0000000000000E+00
(PID.TID 0000.0001) %MON dynstat_uvel_mean            =   0.0000000000000E+00
(PID.TID 0000.0001) %MON dynstat_uvel_sd              =   0.0000000000000E+00
(PID.TID 0000.0001) %MON dynstat_uvel_del2            =   0.0000000000000E+00
(PID.TID 0000.0001) %MON dynstat_vvel_max             =   0.0000000000000E+00
(PID.TID 0000.0001) %MON dynstat_vvel_min             =   0.0000000000000E+00
(PID.TID 0000.0001) %MON dynstat_vvel_mean            =   0.0000000000000E+00
(PID.TID 0000.0001) %MON dynstat_vvel_sd              =   0.0000000000000E+00
(PID.TID 0000.0001) %MON dynstat_vvel_del2            =   0.0000000000000E+00
(PID.TID 0000.0001) %MON dynstat_wvel_max             =   0.0000000000000E+00
(PID.TID 0000.0001) %MON dynstat_wvel_min             =   0.0000000000000E+00
(PID.TID 0000.0001) %MON dynstat_wvel_mean            =   0.0000000000000E+00
(PID.TID 0000.0001) %MON dynstat_wvel_sd              =   0.0000000000000E+00
(PID.TID 0000.0001) %MON dynstat_wvel_del2            =   0.0000000000000E+00
(PID.TID 0000.0001) %MON dynstat_theta_max            =   2.6077934265137E+01
(PID.TID 0000.0001) %MON dynstat_theta_min            =   1.8064365386963E+00
(PID.TID 0000.0001) %MON dynstat_theta_mean           =   5.4784105600004E+00
(PID.TID 0000.0001) %MON dynstat_theta_sd             =   4.5923951934310E+00
(PID.TID 0000.0001) %MON dynstat_theta_del2           =   5.0898848572070E-02
(PID.TID 0000.0001) %MON dynstat_salt_max             =   3.7401638031006E+01
(PID.TID 0000.0001) %MON dynstat_salt_min             =   3.4726768493652E+01
(PID.TID 0000.0001) %MON dynstat_salt_mean            =   3.5157555715946E+01
(PID.TID 0000.0001) %MON dynstat_salt_sd              =   4.1377404390946E-01
(PID.TID 0000.0001) %MON dynstat_salt_del2            =   1.2632116608019E-02
(PID.TID 0000.0001) %MON advcfl_uvel_max              =   0.0000000000000E+00
(PID.TID 0000.0001) %MON advcfl_vvel_max              =   0.0000000000000E+00
(PID.TID 0000.0001) %MON advcfl_wvel_max              =   0.0000000000000E+00
(PID.TID 0000.0001) %MON advcfl_W_hf_max              =   0.0000000000000E+00
(PID.TID 0000.0001) %MON pe_b_mean                    =   0.0000000000000E+00
(PID.TID 0000.0001) %MON ke_max                       =   0.0000000000000E+00
(PID.TID 0000.0001) %MON ke_mean                      =   0.0000000000000E+00
(PID.TID 0000.0001) %MON ke_vol                       =   3.6027486600263E+16
(PID.TID 0000.0001) %MON vort_r_min                   =   0.0000000000000E+00
(PID.TID 0000.0001) %MON vort_r_max                   =   0.0000000000000E+00
(PID.TID 0000.0001) %MON vort_a_mean                  =   6.1944475191297E-05
(PID.TID 0000.0001) %MON vort_a_sd                    =   1.9197697516419E-05
(PID.TID 0000.0001) %MON vort_p_mean                  =   7.7881882182936E-05
(PID.TID 0000.0001) %MON vort_p_sd                    =   5.6365002634549E-05
(PID.TID 0000.0001) %MON surfExpan_theta_mean         =   0.0000000000000E+00
(PID.TID 0000.0001) %MON surfExpan_salt_mean          =   0.0000000000000E+00
(PID.TID 0000.0001) // =======================================================
(PID.TID 0000.0001) // End MONITOR dynamic field statistics
(PID.TID 0000.0001) // =======================================================
(PID.TID 0000.0001)  MDSREADFIELD: opening file: xx_hfl.0000000000.001.001.data
(PID.TID 0000.0001)  MDSREADFIELD: opening file: xx_hfl.0000000000.001.001.data
(PID.TID 0000.0001)  MDSREADFIELD: opening file: xx_hfl.0000000000.001.001.data
(PID.TID 0000.0001)  MDSREADFIELD: opening file: xx_hfl.0000000000.001.001.data
(PID.TID 0000.0001)  MDSREADFIELD: opening file: xx_sfl.0000000000.001.001.data
(PID.TID 0000.0001)  MDSREADFIELD: opening file: xx_sfl.0000000000.001.001.data
(PID.TID 0000.0001)  MDSREADFIELD: opening file: xx_sfl.0000000000.001.001.data
(PID.TID 0000.0001)  MDSREADFIELD: opening file: xx_sfl.0000000000.001.001.data
(PID.TID 0000.0001)  MDSREADFIELD: opening file: xx_tauu.0000000000.001.001.data
(PID.TID 0000.0001)  MDSREADFIELD: opening file: xx_tauu.0000000000.001.001.data
(PID.TID 0000.0001)  MDSREADFIELD: opening file: xx_tauu.0000000000.001.001.data
(PID.TID 0000.0001)  MDSREADFIELD: opening file: xx_tauu.0000000000.001.001.data
(PID.TID 0000.0001)  MDSREADFIELD: opening file: xx_tauv.0000000000.001.001.data
(PID.TID 0000.0001)  MDSREADFIELD: opening file: xx_tauv.0000000000.001.001.data
(PID.TID 0000.0001)  MDSREADFIELD: opening file: xx_tauv.0000000000.001.001.data
(PID.TID 0000.0001)  MDSREADFIELD: opening file: xx_tauv.0000000000.001.001.data
(PID.TID 0000.0001) 
(PID.TID 0000.0001)  exf_GetFFieldsRec: first, changed, fac:   T   F   0.16666667E+00
(PID.TID 0000.0001)  exf_GetFFieldsRec:      count0, count1:   2   3
(PID.TID 0000.0001) 
(PID.TID 0000.0001)  MDSREADFIELD: opening global file: PH_ustress__020_016_23.data
(PID.TID 0000.0001)  MDSREADFIELD: opening global file: PH_ustress__020_016_23.data
(PID.TID 0000.0001) 
(PID.TID 0000.0001)  exf_GetFFieldsRec: first, changed, fac:   T   F   0.16666667E+00
(PID.TID 0000.0001)  exf_GetFFieldsRec:      count0, count1:   2   3
(PID.TID 0000.0001) 
(PID.TID 0000.0001)  MDSREADFIELD: opening global file: PH_vstress__020_016_23.data
(PID.TID 0000.0001)  MDSREADFIELD: opening global file: PH_vstress__020_016_23.data
(PID.TID 0000.0001) 
(PID.TID 0000.0001)  exf_GetFFieldsRec: first, changed, fac:   T   F   0.20833333E+00
(PID.TID 0000.0001)  exf_GetFFieldsRec:      count0, count1:   1   2
(PID.TID 0000.0001) 
(PID.TID 0000.0001)  MDSREADFIELD: opening global file: PH_totflsfc__020_016_23.data
(PID.TID 0000.0001)  MDSREADFIELD: opening global file: PH_totflsfc__020_016_23.data
(PID.TID 0000.0001) 
(PID.TID 0000.0001)  exf_GetFFieldsRec: first, changed, fac:   T   F   0.20833333E+00
(PID.TID 0000.0001)  exf_GetFFieldsRec:      count0, count1:   1   2
(PID.TID 0000.0001) 
(PID.TID 0000.0001)  MDSREADFIELD: opening global file: PH_pratesfc__020_016_23.data
(PID.TID 0000.0001)  MDSREADFIELD: opening global file: PH_pratesfc__020_016_23.data
(PID.TID 0000.0001) 
(PID.TID 0000.0001)  exf_GetFFieldsRec: first, changed, fac:   T   F   0.20833333E+00
(PID.TID 0000.0001)  exf_GetFFieldsRec:      count0, count1:   1   2
(PID.TID 0000.0001) 
(PID.TID 0000.0001)  MDSREADFIELD: opening global file: PH_swflsfc__020_016_23.data
(PID.TID 0000.0001)  MDSREADFIELD: opening global file: PH_swflsfc__020_016_23.data
(PID.TID 0000.0001)  MDSREADFIELD: opening file: xx_hfl.0000000000.001.001.data
(PID.TID 0000.0001)  MDSREADFIELD: opening file: xx_hfl.0000000000.001.001.data
(PID.TID 0000.0001)  MDSREADFIELD: opening file: xx_sfl.0000000000.001.001.data
(PID.TID 0000.0001)  MDSREADFIELD: opening file: xx_sfl.0000000000.001.001.data
(PID.TID 0000.0001)  MDSREADFIELD: opening file: xx_tauu.0000000000.001.001.data
(PID.TID 0000.0001)  MDSREADFIELD: opening file: xx_tauu.0000000000.001.001.data
(PID.TID 0000.0001)  MDSREADFIELD: opening file: xx_tauv.0000000000.001.001.data
(PID.TID 0000.0001)  MDSREADFIELD: opening file: xx_tauv.0000000000.001.001.data
 pathei: in check_exp: iter/time/rec/yprefix  0  0. 1 kf_
 pathei: in check_exp: date   0
 pathei: in check_exp: theta   21.9700623
 pathei: in check_exp: salt    37.1130981
 pathei: in check_exp: uvel    0.
 pathei: in check_exp: vvel    0.
 pathei: in check_exp: qnet    147.296121
 pathei: in check_exp: empmr   2.83352032E-08
 pathei: in check_exp: fu     -0.0133724209
 pathei: in check_exp: fv     -0.02042173
 cg2d: Sum(rhs),rhsMax =   7.66747776381749E-16  4.50737656431993E-01
(PID.TID 0000.0001)                    cg2d_init_res =    3.97910540907939E+00
(PID.TID 0000.0001)                       cg2d_iters =    50
(PID.TID 0000.0001)                         cg2d_res =    7.14109633693769E-14
(PID.TID 0000.0001) 
(PID.TID 0000.0001)  exf_GetFFieldsRec: first, changed, fac:   F   F   0.83333333E-01
(PID.TID 0000.0001)  exf_GetFFieldsRec:      count0, count1:   2   3
(PID.TID 0000.0001) 
(PID.TID 0000.0001) 
(PID.TID 0000.0001)  exf_GetFFieldsRec: first, changed, fac:   F   F   0.83333333E-01
(PID.TID 0000.0001)  exf_GetFFieldsRec:      count0, count1:   2   3
(PID.TID 0000.0001) 
(PID.TID 0000.0001) 
(PID.TID 0000.0001)  exf_GetFFieldsRec: first, changed, fac:   F   F   0.16666667E+00
(PID.TID 0000.0001)  exf_GetFFieldsRec:      count0, count1:   1   2
(PID.TID 0000.0001) 
(PID.TID 0000.0001) 
(PID.TID 0000.0001)  exf_GetFFieldsRec: first, changed, fac:   F   F   0.16666667E+00
(PID.TID 0000.0001)  exf_GetFFieldsRec:      count0, count1:   1   2
(PID.TID 0000.0001) 
(PID.TID 0000.0001) 
(PID.TID 0000.0001)  exf_GetFFieldsRec: first, changed, fac:   F   F   0.16666667E+00
(PID.TID 0000.0001)  exf_GetFFieldsRec:      count0, count1:   1   2
(PID.TID 0000.0001) 
 cg2d: Sum(rhs),rhsMax =   1.68788594212543E-15  5.55571937118767E-01
(PID.TID 0000.0001) 
(PID.TID 0000.0001)  exf_GetFFieldsRec: first, changed, fac:   F   T   0.10000000E+01
(PID.TID 0000.0001)  exf_GetFFieldsRec:      count0, count1:   3   4
(PID.TID 0000.0001) 
(PID.TID 0000.0001)  MDSREADFIELD: opening global file: PH_ustress__020_016_23.data
(PID.TID 0000.0001) 
(PID.TID 0000.0001)  exf_GetFFieldsRec: first, changed, fac:   F   T   0.10000000E+01
(PID.TID 0000.0001)  exf_GetFFieldsRec:      count0, count1:   3   4
(PID.TID 0000.0001) 
(PID.TID 0000.0001)  MDSREADFIELD: opening global file: PH_vstress__020_016_23.data
(PID.TID 0000.0001) 
(PID.TID 0000.0001)  exf_GetFFieldsRec: first, changed, fac:   F   F   0.12500000E+00
(PID.TID 0000.0001)  exf_GetFFieldsRec:      count0, count1:   1   2
(PID.TID 0000.0001) 
(PID.TID 0000.0001) 
(PID.TID 0000.0001)  exf_GetFFieldsRec: first, changed, fac:   F   F   0.12500000E+00
(PID.TID 0000.0001)  exf_GetFFieldsRec:      count0, count1:   1   2
(PID.TID 0000.0001) 
(PID.TID 0000.0001) 
(PID.TID 0000.0001)  exf_GetFFieldsRec: first, changed, fac:   F   F   0.12500000E+00
(PID.TID 0000.0001)  exf_GetFFieldsRec:      count0, count1:   1   2
(PID.TID 0000.0001) 
 cg2d: Sum(rhs),rhsMax =   2.96290769696839E-15  5.83078086204082E-01
(PID.TID 0000.0001) 
(PID.TID 0000.0001)  exf_GetFFieldsRec: first, changed, fac:   F   F   0.91666667E+00
(PID.TID 0000.0001)  exf_GetFFieldsRec:      count0, count1:   3   4
(PID.TID 0000.0001) 
(PID.TID 0000.0001) 
(PID.TID 0000.0001)  exf_GetFFieldsRec: first, changed, fac:   F   F   0.91666667E+00
(PID.TID 0000.0001)  exf_GetFFieldsRec:      count0, count1:   3   4
(PID.TID 0000.0001) 
(PID.TID 0000.0001) 
(PID.TID 0000.0001)  exf_GetFFieldsRec: first, changed, fac:   F   F   0.83333333E-01
(PID.TID 0000.0001)  exf_GetFFieldsRec:      count0, count1:   1   2
(PID.TID 0000.0001) 
(PID.TID 0000.0001) 
(PID.TID 0000.0001)  exf_GetFFieldsRec: first, changed, fac:   F   F   0.83333333E-01
(PID.TID 0000.0001)  exf_GetFFieldsRec:      count0, count1:   1   2
(PID.TID 0000.0001) 
(PID.TID 0000.0001) 
(PID.TID 0000.0001)  exf_GetFFieldsRec: first, changed, fac:   F   F   0.83333333E-01
(PID.TID 0000.0001)  exf_GetFFieldsRec:      count0, count1:   1   2
(PID.TID 0000.0001) 
 cg2d: Sum(rhs),rhsMax =   1.55084278752327E-15  6.06478011786003E-01
(PID.TID 0000.0001)  MDSREADFIELD: opening file: tbar.0000000000.001.001.data
(PID.TID 0000.0001)  MDSREADFIELD: opening global file: PH_SST_fields__020_016_23.data
(PID.TID 0000.0001)  MDSREADFIELD: opening file: tbar.0000000000.001.001.data
(PID.TID 0000.0001)  MDSREADFIELD: opening global file: PH_Lev.ptmp__020_016_23.data
(PID.TID 0000.0001)  MDSREADFIELD: opening file: sbar.0000000000.001.001.data
(PID.TID 0000.0001)  MDSREADFIELD: opening global file: PH_Lev.salt__020_016_23.data
(PID.TID 0000.0001)  MDSREADFIELD: opening file: psbar.0000000000.001.001.data
(PID.TID 0000.0001)  MDSREADFIELD: opening file: psbar.0000000000.001.001.data
(PID.TID 0000.0001)  MDSREADFIELD: opening global file: PH_TP_mean__020_016_23.data

  cost_ssh: offset_sum =   164.781314

(PID.TID 0000.0001)  MDSREADFIELD: opening file: psbar.0000000000.001.001.data
(PID.TID 0000.0001)  MDSREADFIELD: opening global file: PH_TP_fields__020_016_23.data
(PID.TID 0000.0001)  MDSREADFIELD: opening global file: PH_ERS_fields__020_016_23.data
(PID.TID 0000.0001)  MDSREADFIELD: opening file: psbar.0000000000.001.001.data
(PID.TID 0000.0001)  MDSREADFIELD: opening global file: PH_TP_fields__020_016_23.data
(PID.TID 0000.0001)  MDSREADFIELD: opening global file: PH_ERS_fields__020_016_23.data
(PID.TID 0000.0001)  MDSREADFIELD: opening file: tbar.0000000000.001.001.data
(PID.TID 0000.0001)  MDSREADFIELD: opening global file: PH_SST_fields__020_016_23.data
  --> objf_temp(bi,bj)    =  2414.00375
  --> objf_salt(bi,bj)    =  472.001555
  --> objf_temp0(bi,bj)   =  0.
  --> objf_salt0(bi,bj)   =  0.
  --> objf_tmi(bi,bj)     =  0.
  --> objf_sst(bi,bj)     =  15.011058
  --> objf_sss(bi,bj)     =  0.
  --> objf_h(bi,bj)       =  0.
  --> objf_hmean          =  0.
  --> objf_tauu(bi,bj)    =  0.
  --> objf_tauum(bi,bj)   =  0.
  --> objf_tauv(bi,bj)    =  0.
  --> objf_tauvm(bi,bj)   =  0.
  --> objf_hflux(bi,bj)   =  7.71287869E-12
  --> objf_hflux(bi,bj)   =  2.70658351E-12
  --> objf_hflux(bi,bj)   =  0.
  --> objf_sflux(bi,bj)   =  0.
  --> objf_sflux(bi,bj)   =  0.
  --> objf_sflux(bi,bj)   =  0.
  --> objf_atl(bi,bj)     =  0.
  --> objf_ctdt(bi,bj)    =  0.
  --> objf_ctds(bi,bj)    =  0.
  --> objf_ctdtclim(bi,bj)=  0.
  --> objf_ctdsclim(bi,bj)=  0.
  --> objf_xbt(bi,bj)     =  0.
  --> objf_argot(bi,bj)   =  0.
  --> objf_argos(bi,bj)   =  0.
  --> objf_drift(bi,bj)   =  0.
  --> objf_tdrift(bi,bj)  =  0.
  --> objf_sdrift(bi,bj)  =  0.
  --> objf_wdrift(bi,bj)  =  0.
  --> objf_scatx(bi,bj)   =  0.
  --> objf_scaty(bi,bj)   =  0.
  --> objf_scatxm(bi,bj)  =  0.
  --> objf_scatym(bi,bj)  =  0.
  --> objf_uwind(bi,bj)   =  0.
  --> objf_vwind(bi,bj)   =  0.
  --> objf_atemp(bi,bj)   =  0.
  --> objf_aqh(bi,bj)     =  0.
  --> objf_obcsn(bi,bj)   =  0.
  --> objf_obcss(bi,bj)   =  0.
  --> objf_obcsw(bi,bj)   =  0.
  --> objf_obcse(bi,bj)   =  0.
  --> objf_ageos(bi,bj)   =  0.
  --> objf_curmtr(bi,bj)  =  0.
  --> objf_obcsvol        =  0.
  --> objf_ice(bi,bj)     =  0.
  --> objf_kapgm(bi,bj)   =  0.
  --> objf_diffkr(bi,bj)  =  0.
  --> objf_ini_fin(bi,bj) =  0.
  --> objf_hmean  (GLOBAL) =  0.
  --> objf_obcsvol(GLOBAL) =  0.
  --> fc                   =  2901.01636
(PID.TID 0000.0001)  MDSREADFIELD: opening file: xx_hfl.0000000000.001.001.data
 ph-grd 3 -------------------------------
 ph-grd 3     0    2    3    2    1   0.290101636E+04 0.290101636E+04 0.290101636E+04
 ph-grd 3     0    2    2    2    0   -.202036789E-04 -.201907824E-04 0.638326140E-03
 ph-grd  ierr ---------------------------
 ph-grd  ierr =  0, icomp =  2, ichknum =  2
(PID.TID 0000.0001)  MDSREADFIELD: opening file: adxx_hfl.0000000000.001.001.data
(PID.TID 0000.0001)  MDSREADFIELD: opening file: xx_hfl.0000000000.001.001.data
(PID.TID 0000.0001) 
(PID.TID 0000.0001)  cal_TimeStamp: iter =          0 time =  0.00000000E+00
(PID.TID 0000.0001)                 date =   19920102      220000
(PID.TID 0000.0001) 
(PID.TID 0000.0001) %MON surfExpanfCori_max           =   9.5419917861011E-05
(PID.TID 0000.0001) %MON surfExpanfCori_min           =   2.7752043431195E-05
(PID.TID 0000.0001) %MON surfExpanfCori_mean          =   6.2936249243167E-05
(PID.TID 0000.0001) %MON surfExpanfCori_sd            =   2.0885809702547E-05
(PID.TID 0000.0001) %MON surfExpanfCoriG_max          =   9.3489668167119E-05
(PID.TID 0000.0001) %MON surfExpanfCoriG_min          =   2.5256103669800E-05
(PID.TID 0000.0001) %MON surfExpanfCoriG_mean         =   6.0674632558389E-05
(PID.TID 0000.0001) %MON surfExpanfCoriG_sd           =   2.1059305790472E-05
(PID.TID 0000.0001) %MON surfExpanfCoriCos_max        =   1.4277188648533E-04
(PID.TID 0000.0001) %MON surfExpanfCoriCos_min        =   1.0976805892693E-04
(PID.TID 0000.0001) %MON surfExpanfCoriCos_mean       =   1.2903843359786E-04
(PID.TID 0000.0001) %MON surfExpanfCoriCos_sd         =   1.0289879691716E-05
(PID.TID 0000.0001) // CG2D normalisation factor =          0.1575292392863445389492028E-03
(PID.TID 0000.0001) 
(PID.TID 0000.0001)  MDSREADFIELD: opening global file: PH_LevCli.ptmp__020_016_23.data
(PID.TID 0000.0001) // =======================================================
(PID.TID 0000.0001) // Field Initial Temperature at iteration          1
(PID.TID 0000.0001) // CMIN =          1.840084838867188E+01
(PID.TID 0000.0001) // CMAX =          2.607793426513672E+01
(PID.TID 0000.0001) // CINT =          2.843365139431424E-01
(PID.TID 0000.0001) // SYMBOLS (CMIN->CMAX): -abcdefghijklmnopqrstuvwxyz+
(PID.TID 0000.0001) //                  0.0: .
(PID.TID 0000.0001) // RANGE I (Lo:Hi:Step):(   1:  20:   1)
(PID.TID 0000.0001) // RANGE J (Lo:Hi:Step):(  16:   1:  -1)
(PID.TID 0000.0001) // RANGE K (Lo:Hi:Step):(   1:   1:   1)
(PID.TID 0000.0001) // =======================================================
(PID.TID 0000.0001) K =   1
(PID.TID 0000.0001)                I=10      I=20
(PID.TID 0000.0001) |--J--|123456789|123456789|
(PID.TID 0000.0001)     16 ....................
(PID.TID 0000.0001)     15 .jihhgfeedddcba---a.
(PID.TID 0000.0001)     14 .kjiihggffeedcbbabb.
(PID.TID 0000.0001)     13 .lkkjiiiihgfedccbc..
(PID.TID 0000.0001)     12 .mllkkjjjihgfedcc...
(PID.TID 0000.0001)     11 .onnmmllkjihgfeec...
(PID.TID 0000.0001)     10 .rrqqponmmlkihf.....
(PID.TID 0000.0001)      9 .utssrqponmljh......
(PID.TID 0000.0001)      8 .vuttsrqponlig......
(PID.TID 0000.0001)      7 .vuutsrrponkif......
(PID.TID 0000.0001)      6 .wvvuutsrqomjh......
(PID.TID 0000.0001)      5 .yxwwwvutsrpnl......
(PID.TID 0000.0001)      4 .zyyyxxwwvutrq......
(PID.TID 0000.0001)      3 .zzzzyyxxxxwvu......
(PID.TID 0000.0001)      2 .+++++zzz+++zy......
(PID.TID 0000.0001)      1 ....................
(PID.TID 0000.0001) // =======================================================
(PID.TID 0000.0001) // END OF FIELD                                          =
(PID.TID 0000.0001) // =======================================================
(PID.TID 0000.0001) 
(PID.TID 0000.0001)  MDSREADFIELD: opening global file: PH_LevCli.salt__020_016_23.data
(PID.TID 0000.0001) // =======================================================
(PID.TID 0000.0001) // Field Initial Salinity at iteration          1
(PID.TID 0000.0001) // CMIN =          3.501070022583008E+01
(PID.TID 0000.0001) // CMAX =          3.739887619018555E+01
(PID.TID 0000.0001) // CINT =          8.845096164279515E-02
(PID.TID 0000.0001) // SYMBOLS (CMIN->CMAX): -abcdefghijklmnopqrstuvwxyz+
(PID.TID 0000.0001) //                  0.0: .
(PID.TID 0000.0001) // RANGE I (Lo:Hi:Step):(   1:  20:   1)
(PID.TID 0000.0001) // RANGE J (Lo:Hi:Step):(  16:   1:  -1)
(PID.TID 0000.0001) // RANGE K (Lo:Hi:Step):(   1:   1:   1)
(PID.TID 0000.0001) // =======================================================
(PID.TID 0000.0001) K =   1
(PID.TID 0000.0001)                I=10      I=20
(PID.TID 0000.0001) |--J--|123456789|123456789|
(PID.TID 0000.0001)     16 ....................
(PID.TID 0000.0001)     15 .oonnnnmmnnnnnnmllk.
(PID.TID 0000.0001)     14 .ppppoooopppppppooo.
(PID.TID 0000.0001)     13 .qqqqqrrrrrrqqqqqq..
(PID.TID 0000.0001)     12 .tttttttttttssrqp...
(PID.TID 0000.0001)     11 .wwwwwwvvvvuusrpn...
(PID.TID 0000.0001)     10 .zzyyyyyxxwvusr.....
(PID.TID 0000.0001)      9 .++zzzzyxxwutr......
(PID.TID 0000.0001)      8 .+zzyyyxwvusrp......
(PID.TID 0000.0001)      7 .xxxxwwutsrpnm......
(PID.TID 0000.0001)      6 .uuuuutsqponlj......
(PID.TID 0000.0001)      5 .rrrrqqponmkji......
(PID.TID 0000.0001)      4 .poooonmmlkihg......
(PID.TID 0000.0001)      3 .mmlllllkjihec......
(PID.TID 0000.0001)      2 .jjjkkkjjihfd-......
(PID.TID 0000.0001)      1 ....................
(PID.TID 0000.0001) // =======================================================
(PID.TID 0000.0001) // END OF FIELD                                          =
(PID.TID 0000.0001) // =======================================================
(PID.TID 0000.0001) 
(PID.TID 0000.0001) Start initial hydrostatic pressure computation
(PID.TID 0000.0001) Pressure is predetermined for buoyancyRelation OCEANIC
(PID.TID 0000.0001) 
(PID.TID 0000.0001)  MDSREADFIELD: opening file: xx_theta.0000000000.001.001.data
(PID.TID 0000.0001)  MDSREADFIELD: opening file: xx_salt.0000000000.001.001.data
(PID.TID 0000.0001) // =======================================================
(PID.TID 0000.0001) // Model current state
(PID.TID 0000.0001) // =======================================================
(PID.TID 0000.0001) 
(PID.TID 0000.0001) // =======================================================
(PID.TID 0000.0001) // Begin MONITOR dynamic field statistics
(PID.TID 0000.0001) // =======================================================
(PID.TID 0000.0001) %MON time_tsnumber                =                     0
(PID.TID 0000.0001) %MON time_secondsf                =   0.0000000000000E+00
(PID.TID 0000.0001) %MON dynstat_eta_max              =   0.0000000000000E+00
(PID.TID 0000.0001) %MON dynstat_eta_min              =   0.0000000000000E+00
(PID.TID 0000.0001) %MON dynstat_eta_mean             =   0.0000000000000E+00
(PID.TID 0000.0001) %MON dynstat_eta_sd               =   0.0000000000000E+00
(PID.TID 0000.0001) %MON dynstat_eta_del2             =   0.0000000000000E+00
(PID.TID 0000.0001) %MON dynstat_uvel_max             =   0.0000000000000E+00
(PID.TID 0000.0001) %MON dynstat_uvel_min             =   0.0000000000000E+00
(PID.TID 0000.0001) %MON dynstat_uvel_mean            =   0.0000000000000E+00
(PID.TID 0000.0001) %MON dynstat_uvel_sd              =   0.0000000000000E+00
(PID.TID 0000.0001) %MON dynstat_uvel_del2            =   0.0000000000000E+00
(PID.TID 0000.0001) %MON dynstat_vvel_max             =   0.0000000000000E+00
(PID.TID 0000.0001) %MON dynstat_vvel_min             =   0.0000000000000E+00
(PID.TID 0000.0001) %MON dynstat_vvel_mean            =   0.0000000000000E+00
(PID.TID 0000.0001) %MON dynstat_vvel_sd              =   0.0000000000000E+00
(PID.TID 0000.0001) %MON dynstat_vvel_del2            =   0.0000000000000E+00
(PID.TID 0000.0001) %MON dynstat_wvel_max             =   0.0000000000000E+00
(PID.TID 0000.0001) %MON dynstat_wvel_min             =   0.0000000000000E+00
(PID.TID 0000.0001) %MON dynstat_wvel_mean            =   0.0000000000000E+00
(PID.TID 0000.0001) %MON dynstat_wvel_sd              =   0.0000000000000E+00
(PID.TID 0000.0001) %MON dynstat_wvel_del2            =   0.0000000000000E+00
(PID.TID 0000.0001) %MON dynstat_theta_max            =   2.6077934265137E+01
(PID.TID 0000.0001) %MON dynstat_theta_min            =   1.8064365386963E+00
(PID.TID 0000.0001) %MON dynstat_theta_mean           =   5.4784105600004E+00
(PID.TID 0000.0001) %MON dynstat_theta_sd             =   4.5923951934310E+00
(PID.TID 0000.0001) %MON dynstat_theta_del2           =   5.0898848572070E-02
(PID.TID 0000.0001) %MON dynstat_salt_max             =   3.7401638031006E+01
(PID.TID 0000.0001) %MON dynstat_salt_min             =   3.4726768493652E+01
(PID.TID 0000.0001) %MON dynstat_salt_mean            =   3.5157555715946E+01
(PID.TID 0000.0001) %MON dynstat_salt_sd              =   4.1377404390946E-01
(PID.TID 0000.0001) %MON dynstat_salt_del2            =   1.2632116608019E-02
(PID.TID 0000.0001) %MON advcfl_uvel_max              =   0.0000000000000E+00
(PID.TID 0000.0001) %MON advcfl_vvel_max              =   0.0000000000000E+00
(PID.TID 0000.0001) %MON advcfl_wvel_max              =   0.0000000000000E+00
(PID.TID 0000.0001) %MON advcfl_W_hf_max              =   0.0000000000000E+00
(PID.TID 0000.0001) %MON pe_b_mean                    =   0.0000000000000E+00
(PID.TID 0000.0001) %MON ke_max                       =   0.0000000000000E+00
(PID.TID 0000.0001) %MON ke_mean                      =   0.0000000000000E+00
(PID.TID 0000.0001) %MON ke_vol                       =   3.6027486600263E+16
(PID.TID 0000.0001) %MON vort_r_min                   =   0.0000000000000E+00
(PID.TID 0000.0001) %MON vort_r_max                   =   0.0000000000000E+00
(PID.TID 0000.0001) %MON vort_a_mean                  =   6.1944475191297E-05
(PID.TID 0000.0001) %MON vort_a_sd                    =   1.9197697516419E-05
(PID.TID 0000.0001) %MON vort_p_mean                  =   7.7881882182936E-05
(PID.TID 0000.0001) %MON vort_p_sd                    =   5.6365002634549E-05
(PID.TID 0000.0001) %MON surfExpan_theta_mean         =   0.0000000000000E+00
(PID.TID 0000.0001) %MON surfExpan_salt_mean          =   0.0000000000000E+00
(PID.TID 0000.0001) // =======================================================
(PID.TID 0000.0001) // End MONITOR dynamic field statistics
(PID.TID 0000.0001) // =======================================================
(PID.TID 0000.0001)  MDSREADFIELD: opening file: xx_hfl.0000000000.001.001.data
(PID.TID 0000.0001)  MDSREADFIELD: opening file: xx_hfl.0000000000.001.001.data
(PID.TID 0000.0001)  MDSREADFIELD: opening file: xx_hfl.0000000000.001.001.data
(PID.TID 0000.0001)  MDSREADFIELD: opening file: xx_hfl.0000000000.001.001.data
(PID.TID 0000.0001)  MDSREADFIELD: opening file: xx_sfl.0000000000.001.001.data
(PID.TID 0000.0001)  MDSREADFIELD: opening file: xx_sfl.0000000000.001.001.data
(PID.TID 0000.0001)  MDSREADFIELD: opening file: xx_sfl.0000000000.001.001.data
(PID.TID 0000.0001)  MDSREADFIELD: opening file: xx_sfl.0000000000.001.001.data
(PID.TID 0000.0001)  MDSREADFIELD: opening file: xx_tauu.0000000000.001.001.data
(PID.TID 0000.0001)  MDSREADFIELD: opening file: xx_tauu.0000000000.001.001.data
(PID.TID 0000.0001)  MDSREADFIELD: opening file: xx_tauu.0000000000.001.001.data
(PID.TID 0000.0001)  MDSREADFIELD: opening file: xx_tauu.0000000000.001.001.data
(PID.TID 0000.0001)  MDSREADFIELD: opening file: xx_tauv.0000000000.001.001.data
(PID.TID 0000.0001)  MDSREADFIELD: opening file: xx_tauv.0000000000.001.001.data
(PID.TID 0000.0001)  MDSREADFIELD: opening file: xx_tauv.0000000000.001.001.data
(PID.TID 0000.0001)  MDSREADFIELD: opening file: xx_tauv.0000000000.001.001.data
(PID.TID 0000.0001) 
(PID.TID 0000.0001)  exf_GetFFieldsRec: first, changed, fac:   T   F   0.16666667E+00
(PID.TID 0000.0001)  exf_GetFFieldsRec:      count0, count1:   2   3
(PID.TID 0000.0001) 
(PID.TID 0000.0001)  MDSREADFIELD: opening global file: PH_ustress__020_016_23.data
(PID.TID 0000.0001)  MDSREADFIELD: opening global file: PH_ustress__020_016_23.data
(PID.TID 0000.0001) 
(PID.TID 0000.0001)  exf_GetFFieldsRec: first, changed, fac:   T   F   0.16666667E+00
(PID.TID 0000.0001)  exf_GetFFieldsRec:      count0, count1:   2   3
(PID.TID 0000.0001) 
(PID.TID 0000.0001)  MDSREADFIELD: opening global file: PH_vstress__020_016_23.data
(PID.TID 0000.0001)  MDSREADFIELD: opening global file: PH_vstress__020_016_23.data
(PID.TID 0000.0001) 
(PID.TID 0000.0001)  exf_GetFFieldsRec: first, changed, fac:   T   F   0.20833333E+00
(PID.TID 0000.0001)  exf_GetFFieldsRec:      count0, count1:   1   2
(PID.TID 0000.0001) 
(PID.TID 0000.0001)  MDSREADFIELD: opening global file: PH_totflsfc__020_016_23.data
(PID.TID 0000.0001)  MDSREADFIELD: opening global file: PH_totflsfc__020_016_23.data
(PID.TID 0000.0001) 
(PID.TID 0000.0001)  exf_GetFFieldsRec: first, changed, fac:   T   F   0.20833333E+00
(PID.TID 0000.0001)  exf_GetFFieldsRec:      count0, count1:   1   2
(PID.TID 0000.0001) 
(PID.TID 0000.0001)  MDSREADFIELD: opening global file: PH_pratesfc__020_016_23.data
(PID.TID 0000.0001)  MDSREADFIELD: opening global file: PH_pratesfc__020_016_23.data
(PID.TID 0000.0001) 
(PID.TID 0000.0001)  exf_GetFFieldsRec: first, changed, fac:   T   F   0.20833333E+00
(PID.TID 0000.0001)  exf_GetFFieldsRec:      count0, count1:   1   2
(PID.TID 0000.0001) 
(PID.TID 0000.0001)  MDSREADFIELD: opening global file: PH_swflsfc__020_016_23.data
(PID.TID 0000.0001)  MDSREADFIELD: opening global file: PH_swflsfc__020_016_23.data
(PID.TID 0000.0001)  MDSREADFIELD: opening file: xx_hfl.0000000000.001.001.data
(PID.TID 0000.0001)  MDSREADFIELD: opening file: xx_hfl.0000000000.001.001.data
(PID.TID 0000.0001)  MDSREADFIELD: opening file: xx_sfl.0000000000.001.001.data
(PID.TID 0000.0001)  MDSREADFIELD: opening file: xx_sfl.0000000000.001.001.data
(PID.TID 0000.0001)  MDSREADFIELD: opening file: xx_tauu.0000000000.001.001.data
(PID.TID 0000.0001)  MDSREADFIELD: opening file: xx_tauu.0000000000.001.001.data
(PID.TID 0000.0001)  MDSREADFIELD: opening file: xx_tauv.0000000000.001.001.data
(PID.TID 0000.0001)  MDSREADFIELD: opening file: xx_tauv.0000000000.001.001.data
 pathei: in check_exp: iter/time/rec/yprefix  0  0. 1 kf_
 pathei: in check_exp: date   0
 pathei: in check_exp: theta   21.9700623
 pathei: in check_exp: salt    37.1130981
 pathei: in check_exp: uvel    0.
 pathei: in check_exp: vvel    0.
 pathei: in check_exp: qnet    147.296121
 pathei: in check_exp: empmr   2.83352032E-08
 pathei: in check_exp: fu     -0.0133724209
 pathei: in check_exp: fv     -0.02042173
 cg2d: Sum(rhs),rhsMax =   7.66747776381749E-16  4.50737656431993E-01
(PID.TID 0000.0001)                    cg2d_init_res =    3.97910540907939E+00
(PID.TID 0000.0001)                       cg2d_iters =    50
(PID.TID 0000.0001)                         cg2d_res =    7.14109633808068E-14
(PID.TID 0000.0001) 
(PID.TID 0000.0001)  exf_GetFFieldsRec: first, changed, fac:   F   F   0.83333333E-01
(PID.TID 0000.0001)  exf_GetFFieldsRec:      count0, count1:   2   3
(PID.TID 0000.0001) 
(PID.TID 0000.0001) 
(PID.TID 0000.0001)  exf_GetFFieldsRec: first, changed, fac:   F   F   0.83333333E-01
(PID.TID 0000.0001)  exf_GetFFieldsRec:      count0, count1:   2   3
(PID.TID 0000.0001) 
(PID.TID 0000.0001) 
(PID.TID 0000.0001)  exf_GetFFieldsRec: first, changed, fac:   F   F   0.16666667E+00
(PID.TID 0000.0001)  exf_GetFFieldsRec:      count0, count1:   1   2
(PID.TID 0000.0001) 
(PID.TID 0000.0001) 
(PID.TID 0000.0001)  exf_GetFFieldsRec: first, changed, fac:   F   F   0.16666667E+00
(PID.TID 0000.0001)  exf_GetFFieldsRec:      count0, count1:   1   2
(PID.TID 0000.0001) 
(PID.TID 0000.0001) 
(PID.TID 0000.0001)  exf_GetFFieldsRec: first, changed, fac:   F   F   0.16666667E+00
(PID.TID 0000.0001)  exf_GetFFieldsRec:      count0, count1:   1   2
(PID.TID 0000.0001) 
 cg2d: Sum(rhs),rhsMax =   9.44556932669371E-16  5.55571937118767E-01
(PID.TID 0000.0001) 
(PID.TID 0000.0001)  exf_GetFFieldsRec: first, changed, fac:   F   T   0.10000000E+01
(PID.TID 0000.0001)  exf_GetFFieldsRec:      count0, count1:   3   4
(PID.TID 0000.0001) 
(PID.TID 0000.0001)  MDSREADFIELD: opening global file: PH_ustress__020_016_23.data
(PID.TID 0000.0001) 
(PID.TID 0000.0001)  exf_GetFFieldsRec: first, changed, fac:   F   T   0.10000000E+01
(PID.TID 0000.0001)  exf_GetFFieldsRec:      count0, count1:   3   4
(PID.TID 0000.0001) 
(PID.TID 0000.0001)  MDSREADFIELD: opening global file: PH_vstress__020_016_23.data
(PID.TID 0000.0001) 
(PID.TID 0000.0001)  exf_GetFFieldsRec: first, changed, fac:   F   F   0.12500000E+00
(PID.TID 0000.0001)  exf_GetFFieldsRec:      count0, count1:   1   2
(PID.TID 0000.0001) 
(PID.TID 0000.0001) 
(PID.TID 0000.0001)  exf_GetFFieldsRec: first, changed, fac:   F   F   0.12500000E+00
(PID.TID 0000.0001)  exf_GetFFieldsRec:      count0, count1:   1   2
(PID.TID 0000.0001) 
(PID.TID 0000.0001) 
(PID.TID 0000.0001)  exf_GetFFieldsRec: first, changed, fac:   F   F   0.12500000E+00
(PID.TID 0000.0001)  exf_GetFFieldsRec:      count0, count1:   1   2
(PID.TID 0000.0001) 
 cg2d: Sum(rhs),rhsMax =   1.14838694109665E-15  5.83078086204068E-01
(PID.TID 0000.0001) 
(PID.TID 0000.0001)  exf_GetFFieldsRec: first, changed, fac:   F   F   0.91666667E+00
(PID.TID 0000.0001)  exf_GetFFieldsRec:      count0, count1:   3   4
(PID.TID 0000.0001) 
(PID.TID 0000.0001) 
(PID.TID 0000.0001)  exf_GetFFieldsRec: first, changed, fac:   F   F   0.91666667E+00
(PID.TID 0000.0001)  exf_GetFFieldsRec:      count0, count1:   3   4
(PID.TID 0000.0001) 
(PID.TID 0000.0001) 
(PID.TID 0000.0001)  exf_GetFFieldsRec: first, changed, fac:   F   F   0.83333333E-01
(PID.TID 0000.0001)  exf_GetFFieldsRec:      count0, count1:   1   2
(PID.TID 0000.0001) 
(PID.TID 0000.0001) 
(PID.TID 0000.0001)  exf_GetFFieldsRec: first, changed, fac:   F   F   0.83333333E-01
(PID.TID 0000.0001)  exf_GetFFieldsRec:      count0, count1:   1   2
(PID.TID 0000.0001) 
(PID.TID 0000.0001) 
(PID.TID 0000.0001)  exf_GetFFieldsRec: first, changed, fac:   F   F   0.83333333E-01
(PID.TID 0000.0001)  exf_GetFFieldsRec:      count0, count1:   1   2
(PID.TID 0000.0001) 
 cg2d: Sum(rhs),rhsMax =  -7.40726924242097E-16  6.06478011785924E-01
(PID.TID 0000.0001)  MDSREADFIELD: opening file: tbar.0000000000.001.001.data
(PID.TID 0000.0001)  MDSREADFIELD: opening global file: PH_SST_fields__020_016_23.data
(PID.TID 0000.0001)  MDSREADFIELD: opening file: tbar.0000000000.001.001.data
(PID.TID 0000.0001)  MDSREADFIELD: opening global file: PH_Lev.ptmp__020_016_23.data
(PID.TID 0000.0001)  MDSREADFIELD: opening file: sbar.0000000000.001.001.data
(PID.TID 0000.0001)  MDSREADFIELD: opening global file: PH_Lev.salt__020_016_23.data
(PID.TID 0000.0001)  MDSREADFIELD: opening file: psbar.0000000000.001.001.data
(PID.TID 0000.0001)  MDSREADFIELD: opening file: psbar.0000000000.001.001.data
(PID.TID 0000.0001)  MDSREADFIELD: opening global file: PH_TP_mean__020_016_23.data

  cost_ssh: offset_sum =   164.781314

(PID.TID 0000.0001)  MDSREADFIELD: opening file: psbar.0000000000.001.001.data
(PID.TID 0000.0001)  MDSREADFIELD: opening global file: PH_TP_fields__020_016_23.data
(PID.TID 0000.0001)  MDSREADFIELD: opening global file: PH_ERS_fields__020_016_23.data
(PID.TID 0000.0001)  MDSREADFIELD: opening file: psbar.0000000000.001.001.data
(PID.TID 0000.0001)  MDSREADFIELD: opening global file: PH_TP_fields__020_016_23.data
(PID.TID 0000.0001)  MDSREADFIELD: opening global file: PH_ERS_fields__020_016_23.data
(PID.TID 0000.0001)  MDSREADFIELD: opening file: tbar.0000000000.001.001.data
(PID.TID 0000.0001)  MDSREADFIELD: opening global file: PH_SST_fields__020_016_23.data
  --> objf_temp(bi,bj)    =  2414.00375
  --> objf_salt(bi,bj)    =  472.001555
  --> objf_temp0(bi,bj)   =  0.
  --> objf_salt0(bi,bj)   =  0.
  --> objf_tmi(bi,bj)     =  0.
  --> objf_sst(bi,bj)     =  15.011058
  --> objf_sss(bi,bj)     =  0.
  --> objf_h(bi,bj)       =  0.
  --> objf_hmean          =  0.
  --> objf_tauu(bi,bj)    =  0.
  --> objf_tauum(bi,bj)   =  0.
  --> objf_tauv(bi,bj)    =  0.
  --> objf_tauvm(bi,bj)   =  0.
  --> objf_hflux(bi,bj)   =  7.43063577E-12
  --> objf_hflux(bi,bj)   =  2.70658351E-12
  --> objf_hflux(bi,bj)   =  0.
  --> objf_sflux(bi,bj)   =  0.
  --> objf_sflux(bi,bj)   =  0.
  --> objf_sflux(bi,bj)   =  0.
  --> objf_atl(bi,bj)     =  0.
  --> objf_ctdt(bi,bj)    =  0.
  --> objf_ctds(bi,bj)    =  0.
  --> objf_ctdtclim(bi,bj)=  0.
  --> objf_ctdsclim(bi,bj)=  0.
  --> objf_xbt(bi,bj)     =  0.
  --> objf_argot(bi,bj)   =  0.
  --> objf_argos(bi,bj)   =  0.
  --> objf_drift(bi,bj)   =  0.
  --> objf_tdrift(bi,bj)  =  0.
  --> objf_sdrift(bi,bj)  =  0.
  --> objf_wdrift(bi,bj)  =  0.
  --> objf_scatx(bi,bj)   =  0.
  --> objf_scaty(bi,bj)   =  0.
  --> objf_scatxm(bi,bj)  =  0.
  --> objf_scatym(bi,bj)  =  0.
  --> objf_uwind(bi,bj)   =  0.
  --> objf_vwind(bi,bj)   =  0.
  --> objf_atemp(bi,bj)   =  0.
  --> objf_aqh(bi,bj)     =  0.
  --> objf_obcsn(bi,bj)   =  0.
  --> objf_obcss(bi,bj)   =  0.
  --> objf_obcsw(bi,bj)   =  0.
  --> objf_obcse(bi,bj)   =  0.
  --> objf_ageos(bi,bj)   =  0.
  --> objf_curmtr(bi,bj)  =  0.
  --> objf_obcsvol        =  0.
  --> objf_ice(bi,bj)     =  0.
  --> objf_kapgm(bi,bj)   =  0.
  --> objf_diffkr(bi,bj)  =  0.
  --> objf_ini_fin(bi,bj) =  0.
  --> objf_hmean  (GLOBAL) =  0.
  --> objf_obcsvol(GLOBAL) =  0.
  --> fc                   =  2901.01636
(PID.TID 0000.0001)  MDSREADFIELD: opening file: xx_hfl.0000000000.001.001.data
(PID.TID 0000.0001)  MDSREADFIELD: opening file: xx_hfl.0000000000.001.001.data
(PID.TID 0000.0001) 
(PID.TID 0000.0001)  cal_TimeStamp: iter =          0 time =  0.00000000E+00
(PID.TID 0000.0001)                 date =   19920102      220000
(PID.TID 0000.0001) 
(PID.TID 0000.0001) %MON surfExpanfCori_max           =   9.5419917861011E-05
(PID.TID 0000.0001) %MON surfExpanfCori_min           =   2.7752043431195E-05
(PID.TID 0000.0001) %MON surfExpanfCori_mean          =   6.2936249243167E-05
(PID.TID 0000.0001) %MON surfExpanfCori_sd            =   2.0885809702547E-05
(PID.TID 0000.0001) %MON surfExpanfCoriG_max          =   9.3489668167119E-05
(PID.TID 0000.0001) %MON surfExpanfCoriG_min          =   2.5256103669800E-05
(PID.TID 0000.0001) %MON surfExpanfCoriG_mean         =   6.0674632558389E-05
(PID.TID 0000.0001) %MON surfExpanfCoriG_sd           =   2.1059305790472E-05
(PID.TID 0000.0001) %MON surfExpanfCoriCos_max        =   1.4277188648533E-04
(PID.TID 0000.0001) %MON surfExpanfCoriCos_min        =   1.0976805892693E-04
(PID.TID 0000.0001) %MON surfExpanfCoriCos_mean       =   1.2903843359786E-04
(PID.TID 0000.0001) %MON surfExpanfCoriCos_sd         =   1.0289879691716E-05
(PID.TID 0000.0001) // CG2D normalisation factor =          0.1575292392863445389492028E-03
(PID.TID 0000.0001) 
(PID.TID 0000.0001)  MDSREADFIELD: opening global file: PH_LevCli.ptmp__020_016_23.data
(PID.TID 0000.0001) // =======================================================
(PID.TID 0000.0001) // Field Initial Temperature at iteration          1
(PID.TID 0000.0001) // CMIN =          1.840084838867188E+01
(PID.TID 0000.0001) // CMAX =          2.607793426513672E+01
(PID.TID 0000.0001) // CINT =          2.843365139431424E-01
(PID.TID 0000.0001) // SYMBOLS (CMIN->CMAX): -abcdefghijklmnopqrstuvwxyz+
(PID.TID 0000.0001) //                  0.0: .
(PID.TID 0000.0001) // RANGE I (Lo:Hi:Step):(   1:  20:   1)
(PID.TID 0000.0001) // RANGE J (Lo:Hi:Step):(  16:   1:  -1)
(PID.TID 0000.0001) // RANGE K (Lo:Hi:Step):(   1:   1:   1)
(PID.TID 0000.0001) // =======================================================
(PID.TID 0000.0001) K =   1
(PID.TID 0000.0001)                I=10      I=20
(PID.TID 0000.0001) |--J--|123456789|123456789|
(PID.TID 0000.0001)     16 ....................
(PID.TID 0000.0001)     15 .jihhgfeedddcba---a.
(PID.TID 0000.0001)     14 .kjiihggffeedcbbabb.
(PID.TID 0000.0001)     13 .lkkjiiiihgfedccbc..
(PID.TID 0000.0001)     12 .mllkkjjjihgfedcc...
(PID.TID 0000.0001)     11 .onnmmllkjihgfeec...
(PID.TID 0000.0001)     10 .rrqqponmmlkihf.....
(PID.TID 0000.0001)      9 .utssrqponmljh......
(PID.TID 0000.0001)      8 .vuttsrqponlig......
(PID.TID 0000.0001)      7 .vuutsrrponkif......
(PID.TID 0000.0001)      6 .wvvuutsrqomjh......
(PID.TID 0000.0001)      5 .yxwwwvutsrpnl......
(PID.TID 0000.0001)      4 .zyyyxxwwvutrq......
(PID.TID 0000.0001)      3 .zzzzyyxxxxwvu......
(PID.TID 0000.0001)      2 .+++++zzz+++zy......
(PID.TID 0000.0001)      1 ....................
(PID.TID 0000.0001) // =======================================================
(PID.TID 0000.0001) // END OF FIELD                                          =
(PID.TID 0000.0001) // =======================================================
(PID.TID 0000.0001) 
(PID.TID 0000.0001)  MDSREADFIELD: opening global file: PH_LevCli.salt__020_016_23.data
(PID.TID 0000.0001) // =======================================================
(PID.TID 0000.0001) // Field Initial Salinity at iteration          1
(PID.TID 0000.0001) // CMIN =          3.501070022583008E+01
(PID.TID 0000.0001) // CMAX =          3.739887619018555E+01
(PID.TID 0000.0001) // CINT =          8.845096164279515E-02
(PID.TID 0000.0001) // SYMBOLS (CMIN->CMAX): -abcdefghijklmnopqrstuvwxyz+
(PID.TID 0000.0001) //                  0.0: .
(PID.TID 0000.0001) // RANGE I (Lo:Hi:Step):(   1:  20:   1)
(PID.TID 0000.0001) // RANGE J (Lo:Hi:Step):(  16:   1:  -1)
(PID.TID 0000.0001) // RANGE K (Lo:Hi:Step):(   1:   1:   1)
(PID.TID 0000.0001) // =======================================================
(PID.TID 0000.0001) K =   1
(PID.TID 0000.0001)                I=10      I=20
(PID.TID 0000.0001) |--J--|123456789|123456789|
(PID.TID 0000.0001)     16 ....................
(PID.TID 0000.0001)     15 .oonnnnmmnnnnnnmllk.
(PID.TID 0000.0001)     14 .ppppoooopppppppooo.
(PID.TID 0000.0001)     13 .qqqqqrrrrrrqqqqqq..
(PID.TID 0000.0001)     12 .tttttttttttssrqp...
(PID.TID 0000.0001)     11 .wwwwwwvvvvuusrpn...
(PID.TID 0000.0001)     10 .zzyyyyyxxwvusr.....
(PID.TID 0000.0001)      9 .++zzzzyxxwutr......
(PID.TID 0000.0001)      8 .+zzyyyxwvusrp......
(PID.TID 0000.0001)      7 .xxxxwwutsrpnm......
(PID.TID 0000.0001)      6 .uuuuutsqponlj......
(PID.TID 0000.0001)      5 .rrrrqqponmkji......
(PID.TID 0000.0001)      4 .poooonmmlkihg......
(PID.TID 0000.0001)      3 .mmlllllkjihec......
(PID.TID 0000.0001)      2 .jjjkkkjjihfd-......
(PID.TID 0000.0001)      1 ....................
(PID.TID 0000.0001) // =======================================================
(PID.TID 0000.0001) // END OF FIELD                                          =
(PID.TID 0000.0001) // =======================================================
(PID.TID 0000.0001) 
(PID.TID 0000.0001) Start initial hydrostatic pressure computation
(PID.TID 0000.0001) Pressure is predetermined for buoyancyRelation OCEANIC
(PID.TID 0000.0001) 
(PID.TID 0000.0001)  MDSREADFIELD: opening file: xx_theta.0000000000.001.001.data
(PID.TID 0000.0001)  MDSREADFIELD: opening file: xx_salt.0000000000.001.001.data
(PID.TID 0000.0001) // =======================================================
(PID.TID 0000.0001) // Model current state
(PID.TID 0000.0001) // =======================================================
(PID.TID 0000.0001) 
(PID.TID 0000.0001) // =======================================================
(PID.TID 0000.0001) // Begin MONITOR dynamic field statistics
(PID.TID 0000.0001) // =======================================================
(PID.TID 0000.0001) %MON time_tsnumber                =                     0
(PID.TID 0000.0001) %MON time_secondsf                =   0.0000000000000E+00
(PID.TID 0000.0001) %MON dynstat_eta_max              =   0.0000000000000E+00
(PID.TID 0000.0001) %MON dynstat_eta_min              =   0.0000000000000E+00
(PID.TID 0000.0001) %MON dynstat_eta_mean             =   0.0000000000000E+00
(PID.TID 0000.0001) %MON dynstat_eta_sd               =   0.0000000000000E+00
(PID.TID 0000.0001) %MON dynstat_eta_del2             =   0.0000000000000E+00
(PID.TID 0000.0001) %MON dynstat_uvel_max             =   0.0000000000000E+00
(PID.TID 0000.0001) %MON dynstat_uvel_min             =   0.0000000000000E+00
(PID.TID 0000.0001) %MON dynstat_uvel_mean            =   0.0000000000000E+00
(PID.TID 0000.0001) %MON dynstat_uvel_sd              =   0.0000000000000E+00
(PID.TID 0000.0001) %MON dynstat_uvel_del2            =   0.0000000000000E+00
(PID.TID 0000.0001) %MON dynstat_vvel_max             =   0.0000000000000E+00
(PID.TID 0000.0001) %MON dynstat_vvel_min             =   0.0000000000000E+00
(PID.TID 0000.0001) %MON dynstat_vvel_mean            =   0.0000000000000E+00
(PID.TID 0000.0001) %MON dynstat_vvel_sd              =   0.0000000000000E+00
(PID.TID 0000.0001) %MON dynstat_vvel_del2            =   0.0000000000000E+00
(PID.TID 0000.0001) %MON dynstat_wvel_max             =   0.0000000000000E+00
(PID.TID 0000.0001) %MON dynstat_wvel_min             =   0.0000000000000E+00
(PID.TID 0000.0001) %MON dynstat_wvel_mean            =   0.0000000000000E+00
(PID.TID 0000.0001) %MON dynstat_wvel_sd              =   0.0000000000000E+00
(PID.TID 0000.0001) %MON dynstat_wvel_del2            =   0.0000000000000E+00
(PID.TID 0000.0001) %MON dynstat_theta_max            =   2.6077934265137E+01
(PID.TID 0000.0001) %MON dynstat_theta_min            =   1.8064365386963E+00
(PID.TID 0000.0001) %MON dynstat_theta_mean           =   5.4784105600004E+00
(PID.TID 0000.0001) %MON dynstat_theta_sd             =   4.5923951934310E+00
(PID.TID 0000.0001) %MON dynstat_theta_del2           =   5.0898848572070E-02
(PID.TID 0000.0001) %MON dynstat_salt_max             =   3.7401638031006E+01
(PID.TID 0000.0001) %MON dynstat_salt_min             =   3.4726768493652E+01
(PID.TID 0000.0001) %MON dynstat_salt_mean            =   3.5157555715946E+01
(PID.TID 0000.0001) %MON dynstat_salt_sd              =   4.1377404390946E-01
(PID.TID 0000.0001) %MON dynstat_salt_del2            =   1.2632116608019E-02
(PID.TID 0000.0001) %MON advcfl_uvel_max              =   0.0000000000000E+00
(PID.TID 0000.0001) %MON advcfl_vvel_max              =   0.0000000000000E+00
(PID.TID 0000.0001) %MON advcfl_wvel_max              =   0.0000000000000E+00
(PID.TID 0000.0001) %MON advcfl_W_hf_max              =   0.0000000000000E+00
(PID.TID 0000.0001) %MON pe_b_mean                    =   0.0000000000000E+00
(PID.TID 0000.0001) %MON ke_max                       =   0.0000000000000E+00
(PID.TID 0000.0001) %MON ke_mean                      =   0.0000000000000E+00
(PID.TID 0000.0001) %MON ke_vol                       =   3.6027486600263E+16
(PID.TID 0000.0001) %MON vort_r_min                   =   0.0000000000000E+00
(PID.TID 0000.0001) %MON vort_r_max                   =   0.0000000000000E+00
(PID.TID 0000.0001) %MON vort_a_mean                  =   6.1944475191297E-05
(PID.TID 0000.0001) %MON vort_a_sd                    =   1.9197697516419E-05
(PID.TID 0000.0001) %MON vort_p_mean                  =   7.7881882182936E-05
(PID.TID 0000.0001) %MON vort_p_sd                    =   5.6365002634549E-05
(PID.TID 0000.0001) %MON surfExpan_theta_mean         =   0.0000000000000E+00
(PID.TID 0000.0001) %MON surfExpan_salt_mean          =   0.0000000000000E+00
(PID.TID 0000.0001) // =======================================================
(PID.TID 0000.0001) // End MONITOR dynamic field statistics
(PID.TID 0000.0001) // =======================================================
(PID.TID 0000.0001)  MDSREADFIELD: opening file: xx_hfl.0000000000.001.001.data
(PID.TID 0000.0001)  MDSREADFIELD: opening file: xx_hfl.0000000000.001.001.data
(PID.TID 0000.0001)  MDSREADFIELD: opening file: xx_hfl.0000000000.001.001.data
(PID.TID 0000.0001)  MDSREADFIELD: opening file: xx_hfl.0000000000.001.001.data
(PID.TID 0000.0001)  MDSREADFIELD: opening file: xx_sfl.0000000000.001.001.data
(PID.TID 0000.0001)  MDSREADFIELD: opening file: xx_sfl.0000000000.001.001.data
(PID.TID 0000.0001)  MDSREADFIELD: opening file: xx_sfl.0000000000.001.001.data
(PID.TID 0000.0001)  MDSREADFIELD: opening file: xx_sfl.0000000000.001.001.data
(PID.TID 0000.0001)  MDSREADFIELD: opening file: xx_tauu.0000000000.001.001.data
(PID.TID 0000.0001)  MDSREADFIELD: opening file: xx_tauu.0000000000.001.001.data
(PID.TID 0000.0001)  MDSREADFIELD: opening file: xx_tauu.0000000000.001.001.data
(PID.TID 0000.0001)  MDSREADFIELD: opening file: xx_tauu.0000000000.001.001.data
(PID.TID 0000.0001)  MDSREADFIELD: opening file: xx_tauv.0000000000.001.001.data
(PID.TID 0000.0001)  MDSREADFIELD: opening file: xx_tauv.0000000000.001.001.data
(PID.TID 0000.0001)  MDSREADFIELD: opening file: xx_tauv.0000000000.001.001.data
(PID.TID 0000.0001)  MDSREADFIELD: opening file: xx_tauv.0000000000.001.001.data
(PID.TID 0000.0001) 
(PID.TID 0000.0001)  exf_GetFFieldsRec: first, changed, fac:   T   F   0.16666667E+00
(PID.TID 0000.0001)  exf_GetFFieldsRec:      count0, count1:   2   3
(PID.TID 0000.0001) 
(PID.TID 0000.0001)  MDSREADFIELD: opening global file: PH_ustress__020_016_23.data
(PID.TID 0000.0001)  MDSREADFIELD: opening global file: PH_ustress__020_016_23.data
(PID.TID 0000.0001) 
(PID.TID 0000.0001)  exf_GetFFieldsRec: first, changed, fac:   T   F   0.16666667E+00
(PID.TID 0000.0001)  exf_GetFFieldsRec:      count0, count1:   2   3
(PID.TID 0000.0001) 
(PID.TID 0000.0001)  MDSREADFIELD: opening global file: PH_vstress__020_016_23.data
(PID.TID 0000.0001)  MDSREADFIELD: opening global file: PH_vstress__020_016_23.data
(PID.TID 0000.0001) 
(PID.TID 0000.0001)  exf_GetFFieldsRec: first, changed, fac:   T   F   0.20833333E+00
(PID.TID 0000.0001)  exf_GetFFieldsRec:      count0, count1:   1   2
(PID.TID 0000.0001) 
(PID.TID 0000.0001)  MDSREADFIELD: opening global file: PH_totflsfc__020_016_23.data
(PID.TID 0000.0001)  MDSREADFIELD: opening global file: PH_totflsfc__020_016_23.data
(PID.TID 0000.0001) 
(PID.TID 0000.0001)  exf_GetFFieldsRec: first, changed, fac:   T   F   0.20833333E+00
(PID.TID 0000.0001)  exf_GetFFieldsRec:      count0, count1:   1   2
(PID.TID 0000.0001) 
(PID.TID 0000.0001)  MDSREADFIELD: opening global file: PH_pratesfc__020_016_23.data
(PID.TID 0000.0001)  MDSREADFIELD: opening global file: PH_pratesfc__020_016_23.data
(PID.TID 0000.0001) 
(PID.TID 0000.0001)  exf_GetFFieldsRec: first, changed, fac:   T   F   0.20833333E+00
(PID.TID 0000.0001)  exf_GetFFieldsRec:      count0, count1:   1   2
(PID.TID 0000.0001) 
(PID.TID 0000.0001)  MDSREADFIELD: opening global file: PH_swflsfc__020_016_23.data
(PID.TID 0000.0001)  MDSREADFIELD: opening global file: PH_swflsfc__020_016_23.data
(PID.TID 0000.0001)  MDSREADFIELD: opening file: xx_hfl.0000000000.001.001.data
(PID.TID 0000.0001)  MDSREADFIELD: opening file: xx_hfl.0000000000.001.001.data
(PID.TID 0000.0001)  MDSREADFIELD: opening file: xx_sfl.0000000000.001.001.data
(PID.TID 0000.0001)  MDSREADFIELD: opening file: xx_sfl.0000000000.001.001.data
(PID.TID 0000.0001)  MDSREADFIELD: opening file: xx_tauu.0000000000.001.001.data
(PID.TID 0000.0001)  MDSREADFIELD: opening file: xx_tauu.0000000000.001.001.data
(PID.TID 0000.0001)  MDSREADFIELD: opening file: xx_tauv.0000000000.001.001.data
(PID.TID 0000.0001)  MDSREADFIELD: opening file: xx_tauv.0000000000.001.001.data
 pathei: in check_exp: iter/time/rec/yprefix  0  0. 1 kf_
 pathei: in check_exp: date   0
 pathei: in check_exp: theta   21.9700623
 pathei: in check_exp: salt    37.1130981
 pathei: in check_exp: uvel    0.
 pathei: in check_exp: vvel    0.
 pathei: in check_exp: qnet    147.296121
 pathei: in check_exp: empmr   2.83352032E-08
 pathei: in check_exp: fu     -0.0133724209
 pathei: in check_exp: fv     -0.02042173
 cg2d: Sum(rhs),rhsMax =   7.66747776381749E-16  4.50737656431993E-01
(PID.TID 0000.0001)                    cg2d_init_res =    3.97910540907939E+00
(PID.TID 0000.0001)                       cg2d_iters =    50
(PID.TID 0000.0001)                         cg2d_res =    7.14109634039872E-14
(PID.TID 0000.0001) 
(PID.TID 0000.0001)  exf_GetFFieldsRec: first, changed, fac:   F   F   0.83333333E-01
(PID.TID 0000.0001)  exf_GetFFieldsRec:      count0, count1:   2   3
(PID.TID 0000.0001) 
(PID.TID 0000.0001) 
(PID.TID 0000.0001)  exf_GetFFieldsRec: first, changed, fac:   F   F   0.83333333E-01
(PID.TID 0000.0001)  exf_GetFFieldsRec:      count0, count1:   2   3
(PID.TID 0000.0001) 
(PID.TID 0000.0001) 
(PID.TID 0000.0001)  exf_GetFFieldsRec: first, changed, fac:   F   F   0.16666667E+00
(PID.TID 0000.0001)  exf_GetFFieldsRec:      count0, count1:   1   2
(PID.TID 0000.0001) 
(PID.TID 0000.0001) 
(PID.TID 0000.0001)  exf_GetFFieldsRec: first, changed, fac:   F   F   0.16666667E+00
(PID.TID 0000.0001)  exf_GetFFieldsRec:      count0, count1:   1   2
(PID.TID 0000.0001) 
(PID.TID 0000.0001) 
(PID.TID 0000.0001)  exf_GetFFieldsRec: first, changed, fac:   F   F   0.16666667E+00
(PID.TID 0000.0001)  exf_GetFFieldsRec:      count0, count1:   1   2
(PID.TID 0000.0001) 
 cg2d: Sum(rhs),rhsMax =   1.83273535236950E-15  5.55571937118767E-01
(PID.TID 0000.0001) 
(PID.TID 0000.0001)  exf_GetFFieldsRec: first, changed, fac:   F   T   0.10000000E+01
(PID.TID 0000.0001)  exf_GetFFieldsRec:      count0, count1:   3   4
(PID.TID 0000.0001) 
(PID.TID 0000.0001)  MDSREADFIELD: opening global file: PH_ustress__020_016_23.data
(PID.TID 0000.0001) 
(PID.TID 0000.0001)  exf_GetFFieldsRec: first, changed, fac:   F   T   0.10000000E+01
(PID.TID 0000.0001)  exf_GetFFieldsRec:      count0, count1:   3   4
(PID.TID 0000.0001) 
(PID.TID 0000.0001)  MDSREADFIELD: opening global file: PH_vstress__020_016_23.data
(PID.TID 0000.0001) 
(PID.TID 0000.0001)  exf_GetFFieldsRec: first, changed, fac:   F   F   0.12500000E+00
(PID.TID 0000.0001)  exf_GetFFieldsRec:      count0, count1:   1   2
(PID.TID 0000.0001) 
(PID.TID 0000.0001) 
(PID.TID 0000.0001)  exf_GetFFieldsRec: first, changed, fac:   F   F   0.12500000E+00
(PID.TID 0000.0001)  exf_GetFFieldsRec:      count0, count1:   1   2
(PID.TID 0000.0001) 
(PID.TID 0000.0001) 
(PID.TID 0000.0001)  exf_GetFFieldsRec: first, changed, fac:   F   F   0.12500000E+00
(PID.TID 0000.0001)  exf_GetFFieldsRec:      count0, count1:   1   2
(PID.TID 0000.0001) 
 cg2d: Sum(rhs),rhsMax =   9.64506252643105E-16  5.83078086204083E-01
(PID.TID 0000.0001) 
(PID.TID 0000.0001)  exf_GetFFieldsRec: first, changed, fac:   F   F   0.91666667E+00
(PID.TID 0000.0001)  exf_GetFFieldsRec:      count0, count1:   3   4
(PID.TID 0000.0001) 
(PID.TID 0000.0001) 
(PID.TID 0000.0001)  exf_GetFFieldsRec: first, changed, fac:   F   F   0.91666667E+00
(PID.TID 0000.0001)  exf_GetFFieldsRec:      count0, count1:   3   4
(PID.TID 0000.0001) 
(PID.TID 0000.0001) 
(PID.TID 0000.0001)  exf_GetFFieldsRec: first, changed, fac:   F   F   0.83333333E-01
(PID.TID 0000.0001)  exf_GetFFieldsRec:      count0, count1:   1   2
(PID.TID 0000.0001) 
(PID.TID 0000.0001) 
(PID.TID 0000.0001)  exf_GetFFieldsRec: first, changed, fac:   F   F   0.83333333E-01
(PID.TID 0000.0001)  exf_GetFFieldsRec:      count0, count1:   1   2
(PID.TID 0000.0001) 
(PID.TID 0000.0001) 
(PID.TID 0000.0001)  exf_GetFFieldsRec: first, changed, fac:   F   F   0.83333333E-01
(PID.TID 0000.0001)  exf_GetFFieldsRec:      count0, count1:   1   2
(PID.TID 0000.0001) 
 cg2d: Sum(rhs),rhsMax =   5.53376788836601E-16  6.06478011786006E-01
(PID.TID 0000.0001)  MDSREADFIELD: opening file: tbar.0000000000.001.001.data
(PID.TID 0000.0001)  MDSREADFIELD: opening global file: PH_SST_fields__020_016_23.data
(PID.TID 0000.0001)  MDSREADFIELD: opening file: tbar.0000000000.001.001.data
(PID.TID 0000.0001)  MDSREADFIELD: opening global file: PH_Lev.ptmp__020_016_23.data
(PID.TID 0000.0001)  MDSREADFIELD: opening file: sbar.0000000000.001.001.data
(PID.TID 0000.0001)  MDSREADFIELD: opening global file: PH_Lev.salt__020_016_23.data
(PID.TID 0000.0001)  MDSREADFIELD: opening file: psbar.0000000000.001.001.data
(PID.TID 0000.0001)  MDSREADFIELD: opening file: psbar.0000000000.001.001.data
(PID.TID 0000.0001)  MDSREADFIELD: opening global file: PH_TP_mean__020_016_23.data

  cost_ssh: offset_sum =   164.781314

(PID.TID 0000.0001)  MDSREADFIELD: opening file: psbar.0000000000.001.001.data
(PID.TID 0000.0001)  MDSREADFIELD: opening global file: PH_TP_fields__020_016_23.data
(PID.TID 0000.0001)  MDSREADFIELD: opening global file: PH_ERS_fields__020_016_23.data
(PID.TID 0000.0001)  MDSREADFIELD: opening file: psbar.0000000000.001.001.data
(PID.TID 0000.0001)  MDSREADFIELD: opening global file: PH_TP_fields__020_016_23.data
(PID.TID 0000.0001)  MDSREADFIELD: opening global file: PH_ERS_fields__020_016_23.data
(PID.TID 0000.0001)  MDSREADFIELD: opening file: tbar.0000000000.001.001.data
(PID.TID 0000.0001)  MDSREADFIELD: opening global file: PH_SST_fields__020_016_23.data
  --> objf_temp(bi,bj)    =  2414.00375
  --> objf_salt(bi,bj)    =  472.001555
  --> objf_temp0(bi,bj)   =  0.
  --> objf_salt0(bi,bj)   =  0.
  --> objf_tmi(bi,bj)     =  0.
  --> objf_sst(bi,bj)     =  15.011058
  --> objf_sss(bi,bj)     =  0.
  --> objf_h(bi,bj)       =  0.
  --> objf_hmean          =  0.
  --> objf_tauu(bi,bj)    =  0.
  --> objf_tauum(bi,bj)   =  0.
  --> objf_tauv(bi,bj)    =  0.
  --> objf_tauvm(bi,bj)   =  0.
  --> objf_hflux(bi,bj)   =  7.43063577E-12
  --> objf_hflux(bi,bj)   =  2.70658351E-12
  --> objf_hflux(bi,bj)   =  0.
  --> objf_sflux(bi,bj)   =  0.
  --> objf_sflux(bi,bj)   =  0.
  --> objf_sflux(bi,bj)   =  0.
  --> objf_atl(bi,bj)     =  0.
  --> objf_ctdt(bi,bj)    =  0.
  --> objf_ctds(bi,bj)    =  0.
  --> objf_ctdtclim(bi,bj)=  0.
  --> objf_ctdsclim(bi,bj)=  0.
  --> objf_xbt(bi,bj)     =  0.
  --> objf_argot(bi,bj)   =  0.
  --> objf_argos(bi,bj)   =  0.
  --> objf_drift(bi,bj)   =  0.
  --> objf_tdrift(bi,bj)  =  0.
  --> objf_sdrift(bi,bj)  =  0.
  --> objf_wdrift(bi,bj)  =  0.
  --> objf_scatx(bi,bj)   =  0.
  --> objf_scaty(bi,bj)   =  0.
  --> objf_scatxm(bi,bj)  =  0.
  --> objf_scatym(bi,bj)  =  0.
  --> objf_uwind(bi,bj)   =  0.
  --> objf_vwind(bi,bj)   =  0.
  --> objf_atemp(bi,bj)   =  0.
  --> objf_aqh(bi,bj)     =  0.
  --> objf_obcsn(bi,bj)   =  0.
  --> objf_obcss(bi,bj)   =  0.
  --> objf_obcsw(bi,bj)   =  0.
  --> objf_obcse(bi,bj)   =  0.
  --> objf_ageos(bi,bj)   =  0.
  --> objf_curmtr(bi,bj)  =  0.
  --> objf_obcsvol        =  0.
  --> objf_ice(bi,bj)     =  0.
  --> objf_kapgm(bi,bj)   =  0.
  --> objf_diffkr(bi,bj)  =  0.
  --> objf_ini_fin(bi,bj) =  0.
  --> objf_hmean  (GLOBAL) =  0.
  --> objf_obcsvol(GLOBAL) =  0.
  --> fc                   =  2901.01636
(PID.TID 0000.0001)  MDSREADFIELD: opening file: xx_hfl.0000000000.001.001.data
 ph-grd 3 -------------------------------
 ph-grd 3     0    3    4    2    1   0.290101636E+04 0.290101636E+04 0.290101636E+04
 ph-grd 3     0    3    3    3    0   -.321988119E-03 -.321981588E-03 0.202822398E-04
 ph-grd  ierr ---------------------------
 ph-grd  ierr =  0, icomp =  3, ichknum =  3
(PID.TID 0000.0001)  MDSREADFIELD: opening file: adxx_hfl.0000000000.001.001.data
(PID.TID 0000.0001)  MDSREADFIELD: opening file: xx_hfl.0000000000.001.001.data
(PID.TID 0000.0001) 
(PID.TID 0000.0001)  cal_TimeStamp: iter =          0 time =  0.00000000E+00
(PID.TID 0000.0001)                 date =   19920102      220000
(PID.TID 0000.0001) 
(PID.TID 0000.0001) %MON surfExpanfCori_max           =   9.5419917861011E-05
(PID.TID 0000.0001) %MON surfExpanfCori_min           =   2.7752043431195E-05
(PID.TID 0000.0001) %MON surfExpanfCori_mean          =   6.2936249243167E-05
(PID.TID 0000.0001) %MON surfExpanfCori_sd            =   2.0885809702547E-05
(PID.TID 0000.0001) %MON surfExpanfCoriG_max          =   9.3489668167119E-05
(PID.TID 0000.0001) %MON surfExpanfCoriG_min          =   2.5256103669800E-05
(PID.TID 0000.0001) %MON surfExpanfCoriG_mean         =   6.0674632558389E-05
(PID.TID 0000.0001) %MON surfExpanfCoriG_sd           =   2.1059305790472E-05
(PID.TID 0000.0001) %MON surfExpanfCoriCos_max        =   1.4277188648533E-04
(PID.TID 0000.0001) %MON surfExpanfCoriCos_min        =   1.0976805892693E-04
(PID.TID 0000.0001) %MON surfExpanfCoriCos_mean       =   1.2903843359786E-04
(PID.TID 0000.0001) %MON surfExpanfCoriCos_sd         =   1.0289879691716E-05
(PID.TID 0000.0001) // CG2D normalisation factor =          0.1575292392863445389492028E-03
(PID.TID 0000.0001) 
(PID.TID 0000.0001)  MDSREADFIELD: opening global file: PH_LevCli.ptmp__020_016_23.data
(PID.TID 0000.0001) // =======================================================
(PID.TID 0000.0001) // Field Initial Temperature at iteration          1
(PID.TID 0000.0001) // CMIN =          1.840084838867188E+01
(PID.TID 0000.0001) // CMAX =          2.607793426513672E+01
(PID.TID 0000.0001) // CINT =          2.843365139431424E-01
(PID.TID 0000.0001) // SYMBOLS (CMIN->CMAX): -abcdefghijklmnopqrstuvwxyz+
(PID.TID 0000.0001) //                  0.0: .
(PID.TID 0000.0001) // RANGE I (Lo:Hi:Step):(   1:  20:   1)
(PID.TID 0000.0001) // RANGE J (Lo:Hi:Step):(  16:   1:  -1)
(PID.TID 0000.0001) // RANGE K (Lo:Hi:Step):(   1:   1:   1)
(PID.TID 0000.0001) // =======================================================
(PID.TID 0000.0001) K =   1
(PID.TID 0000.0001)                I=10      I=20
(PID.TID 0000.0001) |--J--|123456789|123456789|
(PID.TID 0000.0001)     16 ....................
(PID.TID 0000.0001)     15 .jihhgfeedddcba---a.
(PID.TID 0000.0001)     14 .kjiihggffeedcbbabb.
(PID.TID 0000.0001)     13 .lkkjiiiihgfedccbc..
(PID.TID 0000.0001)     12 .mllkkjjjihgfedcc...
(PID.TID 0000.0001)     11 .onnmmllkjihgfeec...
(PID.TID 0000.0001)     10 .rrqqponmmlkihf.....
(PID.TID 0000.0001)      9 .utssrqponmljh......
(PID.TID 0000.0001)      8 .vuttsrqponlig......
(PID.TID 0000.0001)      7 .vuutsrrponkif......
(PID.TID 0000.0001)      6 .wvvuutsrqomjh......
(PID.TID 0000.0001)      5 .yxwwwvutsrpnl......
(PID.TID 0000.0001)      4 .zyyyxxwwvutrq......
(PID.TID 0000.0001)      3 .zzzzyyxxxxwvu......
(PID.TID 0000.0001)      2 .+++++zzz+++zy......
(PID.TID 0000.0001)      1 ....................
(PID.TID 0000.0001) // =======================================================
(PID.TID 0000.0001) // END OF FIELD                                          =
(PID.TID 0000.0001) // =======================================================
(PID.TID 0000.0001) 
(PID.TID 0000.0001)  MDSREADFIELD: opening global file: PH_LevCli.salt__020_016_23.data
(PID.TID 0000.0001) // =======================================================
(PID.TID 0000.0001) // Field Initial Salinity at iteration          1
(PID.TID 0000.0001) // CMIN =          3.501070022583008E+01
(PID.TID 0000.0001) // CMAX =          3.739887619018555E+01
(PID.TID 0000.0001) // CINT =          8.845096164279515E-02
(PID.TID 0000.0001) // SYMBOLS (CMIN->CMAX): -abcdefghijklmnopqrstuvwxyz+
(PID.TID 0000.0001) //                  0.0: .
(PID.TID 0000.0001) // RANGE I (Lo:Hi:Step):(   1:  20:   1)
(PID.TID 0000.0001) // RANGE J (Lo:Hi:Step):(  16:   1:  -1)
(PID.TID 0000.0001) // RANGE K (Lo:Hi:Step):(   1:   1:   1)
(PID.TID 0000.0001) // =======================================================
(PID.TID 0000.0001) K =   1
(PID.TID 0000.0001)                I=10      I=20
(PID.TID 0000.0001) |--J--|123456789|123456789|
(PID.TID 0000.0001)     16 ....................
(PID.TID 0000.0001)     15 .oonnnnmmnnnnnnmllk.
(PID.TID 0000.0001)     14 .ppppoooopppppppooo.
(PID.TID 0000.0001)     13 .qqqqqrrrrrrqqqqqq..
(PID.TID 0000.0001)     12 .tttttttttttssrqp...
(PID.TID 0000.0001)     11 .wwwwwwvvvvuusrpn...
(PID.TID 0000.0001)     10 .zzyyyyyxxwvusr.....
(PID.TID 0000.0001)      9 .++zzzzyxxwutr......
(PID.TID 0000.0001)      8 .+zzyyyxwvusrp......
(PID.TID 0000.0001)      7 .xxxxwwutsrpnm......
(PID.TID 0000.0001)      6 .uuuuutsqponlj......
(PID.TID 0000.0001)      5 .rrrrqqponmkji......
(PID.TID 0000.0001)      4 .poooonmmlkihg......
(PID.TID 0000.0001)      3 .mmlllllkjihec......
(PID.TID 0000.0001)      2 .jjjkkkjjihfd-......
(PID.TID 0000.0001)      1 ....................
(PID.TID 0000.0001) // =======================================================
(PID.TID 0000.0001) // END OF FIELD                                          =
(PID.TID 0000.0001) // =======================================================
(PID.TID 0000.0001) 
(PID.TID 0000.0001) Start initial hydrostatic pressure computation
(PID.TID 0000.0001) Pressure is predetermined for buoyancyRelation OCEANIC
(PID.TID 0000.0001) 
(PID.TID 0000.0001)  MDSREADFIELD: opening file: xx_theta.0000000000.001.001.data
(PID.TID 0000.0001)  MDSREADFIELD: opening file: xx_salt.0000000000.001.001.data
(PID.TID 0000.0001) // =======================================================
(PID.TID 0000.0001) // Model current state
(PID.TID 0000.0001) // =======================================================
(PID.TID 0000.0001) 
(PID.TID 0000.0001) // =======================================================
(PID.TID 0000.0001) // Begin MONITOR dynamic field statistics
(PID.TID 0000.0001) // =======================================================
(PID.TID 0000.0001) %MON time_tsnumber                =                     0
(PID.TID 0000.0001) %MON time_secondsf                =   0.0000000000000E+00
(PID.TID 0000.0001) %MON dynstat_eta_max              =   0.0000000000000E+00
(PID.TID 0000.0001) %MON dynstat_eta_min              =   0.0000000000000E+00
(PID.TID 0000.0001) %MON dynstat_eta_mean             =   0.0000000000000E+00
(PID.TID 0000.0001) %MON dynstat_eta_sd               =   0.0000000000000E+00
(PID.TID 0000.0001) %MON dynstat_eta_del2             =   0.0000000000000E+00
(PID.TID 0000.0001) %MON dynstat_uvel_max             =   0.0000000000000E+00
(PID.TID 0000.0001) %MON dynstat_uvel_min             =   0.0000000000000E+00
(PID.TID 0000.0001) %MON dynstat_uvel_mean            =   0.0000000000000E+00
(PID.TID 0000.0001) %MON dynstat_uvel_sd              =   0.0000000000000E+00
(PID.TID 0000.0001) %MON dynstat_uvel_del2            =   0.0000000000000E+00
(PID.TID 0000.0001) %MON dynstat_vvel_max             =   0.0000000000000E+00
(PID.TID 0000.0001) %MON dynstat_vvel_min             =   0.0000000000000E+00
(PID.TID 0000.0001) %MON dynstat_vvel_mean            =   0.0000000000000E+00
(PID.TID 0000.0001) %MON dynstat_vvel_sd              =   0.0000000000000E+00
(PID.TID 0000.0001) %MON dynstat_vvel_del2            =   0.0000000000000E+00
(PID.TID 0000.0001) %MON dynstat_wvel_max             =   0.0000000000000E+00
(PID.TID 0000.0001) %MON dynstat_wvel_min             =   0.0000000000000E+00
(PID.TID 0000.0001) %MON dynstat_wvel_mean            =   0.0000000000000E+00
(PID.TID 0000.0001) %MON dynstat_wvel_sd              =   0.0000000000000E+00
(PID.TID 0000.0001) %MON dynstat_wvel_del2            =   0.0000000000000E+00
(PID.TID 0000.0001) %MON dynstat_theta_max            =   2.6077934265137E+01
(PID.TID 0000.0001) %MON dynstat_theta_min            =   1.8064365386963E+00
(PID.TID 0000.0001) %MON dynstat_theta_mean           =   5.4784105600004E+00
(PID.TID 0000.0001) %MON dynstat_theta_sd             =   4.5923951934310E+00
(PID.TID 0000.0001) %MON dynstat_theta_del2           =   5.0898848572070E-02
(PID.TID 0000.0001) %MON dynstat_salt_max             =   3.7401638031006E+01
(PID.TID 0000.0001) %MON dynstat_salt_min             =   3.4726768493652E+01
(PID.TID 0000.0001) %MON dynstat_salt_mean            =   3.5157555715946E+01
(PID.TID 0000.0001) %MON dynstat_salt_sd              =   4.1377404390946E-01
(PID.TID 0000.0001) %MON dynstat_salt_del2            =   1.2632116608019E-02
(PID.TID 0000.0001) %MON advcfl_uvel_max              =   0.0000000000000E+00
(PID.TID 0000.0001) %MON advcfl_vvel_max              =   0.0000000000000E+00
(PID.TID 0000.0001) %MON advcfl_wvel_max              =   0.0000000000000E+00
(PID.TID 0000.0001) %MON advcfl_W_hf_max              =   0.0000000000000E+00
(PID.TID 0000.0001) %MON pe_b_mean                    =   0.0000000000000E+00
(PID.TID 0000.0001) %MON ke_max                       =   0.0000000000000E+00
(PID.TID 0000.0001) %MON ke_mean                      =   0.0000000000000E+00
(PID.TID 0000.0001) %MON ke_vol                       =   3.6027486600263E+16
(PID.TID 0000.0001) %MON vort_r_min                   =   0.0000000000000E+00
(PID.TID 0000.0001) %MON vort_r_max                   =   0.0000000000000E+00
(PID.TID 0000.0001) %MON vort_a_mean                  =   6.1944475191297E-05
(PID.TID 0000.0001) %MON vort_a_sd                    =   1.9197697516419E-05
(PID.TID 0000.0001) %MON vort_p_mean                  =   7.7881882182936E-05
(PID.TID 0000.0001) %MON vort_p_sd                    =   5.6365002634549E-05
(PID.TID 0000.0001) %MON surfExpan_theta_mean         =   0.0000000000000E+00
(PID.TID 0000.0001) %MON surfExpan_salt_mean          =   0.0000000000000E+00
(PID.TID 0000.0001) // =======================================================
(PID.TID 0000.0001) // End MONITOR dynamic field statistics
(PID.TID 0000.0001) // =======================================================
(PID.TID 0000.0001)  MDSREADFIELD: opening file: xx_hfl.0000000000.001.001.data
(PID.TID 0000.0001)  MDSREADFIELD: opening file: xx_hfl.0000000000.001.001.data
(PID.TID 0000.0001)  MDSREADFIELD: opening file: xx_hfl.0000000000.001.001.data
(PID.TID 0000.0001)  MDSREADFIELD: opening file: xx_hfl.0000000000.001.001.data
(PID.TID 0000.0001)  MDSREADFIELD: opening file: xx_sfl.0000000000.001.001.data
(PID.TID 0000.0001)  MDSREADFIELD: opening file: xx_sfl.0000000000.001.001.data
(PID.TID 0000.0001)  MDSREADFIELD: opening file: xx_sfl.0000000000.001.001.data
(PID.TID 0000.0001)  MDSREADFIELD: opening file: xx_sfl.0000000000.001.001.data
(PID.TID 0000.0001)  MDSREADFIELD: opening file: xx_tauu.0000000000.001.001.data
(PID.TID 0000.0001)  MDSREADFIELD: opening file: xx_tauu.0000000000.001.001.data
(PID.TID 0000.0001)  MDSREADFIELD: opening file: xx_tauu.0000000000.001.001.data
(PID.TID 0000.0001)  MDSREADFIELD: opening file: xx_tauu.0000000000.001.001.data
(PID.TID 0000.0001)  MDSREADFIELD: opening file: xx_tauv.0000000000.001.001.data
(PID.TID 0000.0001)  MDSREADFIELD: opening file: xx_tauv.0000000000.001.001.data
(PID.TID 0000.0001)  MDSREADFIELD: opening file: xx_tauv.0000000000.001.001.data
(PID.TID 0000.0001)  MDSREADFIELD: opening file: xx_tauv.0000000000.001.001.data
(PID.TID 0000.0001) 
(PID.TID 0000.0001)  exf_GetFFieldsRec: first, changed, fac:   T   F   0.16666667E+00
(PID.TID 0000.0001)  exf_GetFFieldsRec:      count0, count1:   2   3
(PID.TID 0000.0001) 
(PID.TID 0000.0001)  MDSREADFIELD: opening global file: PH_ustress__020_016_23.data
(PID.TID 0000.0001)  MDSREADFIELD: opening global file: PH_ustress__020_016_23.data
(PID.TID 0000.0001) 
(PID.TID 0000.0001)  exf_GetFFieldsRec: first, changed, fac:   T   F   0.16666667E+00
(PID.TID 0000.0001)  exf_GetFFieldsRec:      count0, count1:   2   3
(PID.TID 0000.0001) 
(PID.TID 0000.0001)  MDSREADFIELD: opening global file: PH_vstress__020_016_23.data
(PID.TID 0000.0001)  MDSREADFIELD: opening global file: PH_vstress__020_016_23.data
(PID.TID 0000.0001) 
(PID.TID 0000.0001)  exf_GetFFieldsRec: first, changed, fac:   T   F   0.20833333E+00
(PID.TID 0000.0001)  exf_GetFFieldsRec:      count0, count1:   1   2
(PID.TID 0000.0001) 
(PID.TID 0000.0001)  MDSREADFIELD: opening global file: PH_totflsfc__020_016_23.data
(PID.TID 0000.0001)  MDSREADFIELD: opening global file: PH_totflsfc__020_016_23.data
(PID.TID 0000.0001) 
(PID.TID 0000.0001)  exf_GetFFieldsRec: first, changed, fac:   T   F   0.20833333E+00
(PID.TID 0000.0001)  exf_GetFFieldsRec:      count0, count1:   1   2
(PID.TID 0000.0001) 
(PID.TID 0000.0001)  MDSREADFIELD: opening global file: PH_pratesfc__020_016_23.data
(PID.TID 0000.0001)  MDSREADFIELD: opening global file: PH_pratesfc__020_016_23.data
(PID.TID 0000.0001) 
(PID.TID 0000.0001)  exf_GetFFieldsRec: first, changed, fac:   T   F   0.20833333E+00
(PID.TID 0000.0001)  exf_GetFFieldsRec:      count0, count1:   1   2
(PID.TID 0000.0001) 
(PID.TID 0000.0001)  MDSREADFIELD: opening global file: PH_swflsfc__020_016_23.data
(PID.TID 0000.0001)  MDSREADFIELD: opening global file: PH_swflsfc__020_016_23.data
(PID.TID 0000.0001)  MDSREADFIELD: opening file: xx_hfl.0000000000.001.001.data
(PID.TID 0000.0001)  MDSREADFIELD: opening file: xx_hfl.0000000000.001.001.data
(PID.TID 0000.0001)  MDSREADFIELD: opening file: xx_sfl.0000000000.001.001.data
(PID.TID 0000.0001)  MDSREADFIELD: opening file: xx_sfl.0000000000.001.001.data
(PID.TID 0000.0001)  MDSREADFIELD: opening file: xx_tauu.0000000000.001.001.data
(PID.TID 0000.0001)  MDSREADFIELD: opening file: xx_tauu.0000000000.001.001.data
(PID.TID 0000.0001)  MDSREADFIELD: opening file: xx_tauv.0000000000.001.001.data
(PID.TID 0000.0001)  MDSREADFIELD: opening file: xx_tauv.0000000000.001.001.data
 pathei: in check_exp: iter/time/rec/yprefix  0  0. 1 kf_
 pathei: in check_exp: date   0
 pathei: in check_exp: theta   21.9700623
 pathei: in check_exp: salt    37.1130981
 pathei: in check_exp: uvel    0.
 pathei: in check_exp: vvel    0.
 pathei: in check_exp: qnet    147.296121
 pathei: in check_exp: empmr   2.83352032E-08
 pathei: in check_exp: fu     -0.0133724209
 pathei: in check_exp: fv     -0.02042173
 cg2d: Sum(rhs),rhsMax =   7.66747776381749E-16  4.50737656431993E-01
(PID.TID 0000.0001)                    cg2d_init_res =    3.97910540907939E+00
(PID.TID 0000.0001)                       cg2d_iters =    50
(PID.TID 0000.0001)                         cg2d_res =    7.14109633277487E-14
(PID.TID 0000.0001) 
(PID.TID 0000.0001)  exf_GetFFieldsRec: first, changed, fac:   F   F   0.83333333E-01
(PID.TID 0000.0001)  exf_GetFFieldsRec:      count0, count1:   2   3
(PID.TID 0000.0001) 
(PID.TID 0000.0001) 
(PID.TID 0000.0001)  exf_GetFFieldsRec: first, changed, fac:   F   F   0.83333333E-01
(PID.TID 0000.0001)  exf_GetFFieldsRec:      count0, count1:   2   3
(PID.TID 0000.0001) 
(PID.TID 0000.0001) 
(PID.TID 0000.0001)  exf_GetFFieldsRec: first, changed, fac:   F   F   0.16666667E+00
(PID.TID 0000.0001)  exf_GetFFieldsRec:      count0, count1:   1   2
(PID.TID 0000.0001) 
(PID.TID 0000.0001) 
(PID.TID 0000.0001)  exf_GetFFieldsRec: first, changed, fac:   F   F   0.16666667E+00
(PID.TID 0000.0001)  exf_GetFFieldsRec:      count0, count1:   1   2
(PID.TID 0000.0001) 
(PID.TID 0000.0001) 
(PID.TID 0000.0001)  exf_GetFFieldsRec: first, changed, fac:   F   F   0.16666667E+00
(PID.TID 0000.0001)  exf_GetFFieldsRec:      count0, count1:   1   2
(PID.TID 0000.0001) 
 cg2d: Sum(rhs),rhsMax =  -1.34441069388203E-16  5.55571937118767E-01
(PID.TID 0000.0001) 
(PID.TID 0000.0001)  exf_GetFFieldsRec: first, changed, fac:   F   T   0.10000000E+01
(PID.TID 0000.0001)  exf_GetFFieldsRec:      count0, count1:   3   4
(PID.TID 0000.0001) 
(PID.TID 0000.0001)  MDSREADFIELD: opening global file: PH_ustress__020_016_23.data
(PID.TID 0000.0001) 
(PID.TID 0000.0001)  exf_GetFFieldsRec: first, changed, fac:   F   T   0.10000000E+01
(PID.TID 0000.0001)  exf_GetFFieldsRec:      count0, count1:   3   4
(PID.TID 0000.0001) 
(PID.TID 0000.0001)  MDSREADFIELD: opening global file: PH_vstress__020_016_23.data
(PID.TID 0000.0001) 
(PID.TID 0000.0001)  exf_GetFFieldsRec: first, changed, fac:   F   F   0.12500000E+00
(PID.TID 0000.0001)  exf_GetFFieldsRec:      count0, count1:   1   2
(PID.TID 0000.0001) 
(PID.TID 0000.0001) 
(PID.TID 0000.0001)  exf_GetFFieldsRec: first, changed, fac:   F   F   0.12500000E+00
(PID.TID 0000.0001)  exf_GetFFieldsRec:      count0, count1:   1   2
(PID.TID 0000.0001) 
(PID.TID 0000.0001) 
(PID.TID 0000.0001)  exf_GetFFieldsRec: first, changed, fac:   F   F   0.12500000E+00
(PID.TID 0000.0001)  exf_GetFFieldsRec:      count0, count1:   1   2
(PID.TID 0000.0001) 
 cg2d: Sum(rhs),rhsMax =   2.19269047363468E-15  5.83078086204068E-01
(PID.TID 0000.0001) 
(PID.TID 0000.0001)  exf_GetFFieldsRec: first, changed, fac:   F   F   0.91666667E+00
(PID.TID 0000.0001)  exf_GetFFieldsRec:      count0, count1:   3   4
(PID.TID 0000.0001) 
(PID.TID 0000.0001) 
(PID.TID 0000.0001)  exf_GetFFieldsRec: first, changed, fac:   F   F   0.91666667E+00
(PID.TID 0000.0001)  exf_GetFFieldsRec:      count0, count1:   3   4
(PID.TID 0000.0001) 
(PID.TID 0000.0001) 
(PID.TID 0000.0001)  exf_GetFFieldsRec: first, changed, fac:   F   F   0.83333333E-01
(PID.TID 0000.0001)  exf_GetFFieldsRec:      count0, count1:   1   2
(PID.TID 0000.0001) 
(PID.TID 0000.0001) 
(PID.TID 0000.0001)  exf_GetFFieldsRec: first, changed, fac:   F   F   0.83333333E-01
(PID.TID 0000.0001)  exf_GetFFieldsRec:      count0, count1:   1   2
(PID.TID 0000.0001) 
(PID.TID 0000.0001) 
(PID.TID 0000.0001)  exf_GetFFieldsRec: first, changed, fac:   F   F   0.83333333E-01
(PID.TID 0000.0001)  exf_GetFFieldsRec:      count0, count1:   1   2
(PID.TID 0000.0001) 
 cg2d: Sum(rhs),rhsMax =  -2.42861286636753E-17  6.06478011785921E-01
(PID.TID 0000.0001)  MDSREADFIELD: opening file: tbar.0000000000.001.001.data
(PID.TID 0000.0001)  MDSREADFIELD: opening global file: PH_SST_fields__020_016_23.data
(PID.TID 0000.0001)  MDSREADFIELD: opening file: tbar.0000000000.001.001.data
(PID.TID 0000.0001)  MDSREADFIELD: opening global file: PH_Lev.ptmp__020_016_23.data
(PID.TID 0000.0001)  MDSREADFIELD: opening file: sbar.0000000000.001.001.data
(PID.TID 0000.0001)  MDSREADFIELD: opening global file: PH_Lev.salt__020_016_23.data
(PID.TID 0000.0001)  MDSREADFIELD: opening file: psbar.0000000000.001.001.data
(PID.TID 0000.0001)  MDSREADFIELD: opening file: psbar.0000000000.001.001.data
(PID.TID 0000.0001)  MDSREADFIELD: opening global file: PH_TP_mean__020_016_23.data

  cost_ssh: offset_sum =   164.781314

(PID.TID 0000.0001)  MDSREADFIELD: opening file: psbar.0000000000.001.001.data
(PID.TID 0000.0001)  MDSREADFIELD: opening global file: PH_TP_fields__020_016_23.data
(PID.TID 0000.0001)  MDSREADFIELD: opening global file: PH_ERS_fields__020_016_23.data
(PID.TID 0000.0001)  MDSREADFIELD: opening file: psbar.0000000000.001.001.data
(PID.TID 0000.0001)  MDSREADFIELD: opening global file: PH_TP_fields__020_016_23.data
(PID.TID 0000.0001)  MDSREADFIELD: opening global file: PH_ERS_fields__020_016_23.data
(PID.TID 0000.0001)  MDSREADFIELD: opening file: tbar.0000000000.001.001.data
(PID.TID 0000.0001)  MDSREADFIELD: opening global file: PH_SST_fields__020_016_23.data
  --> objf_temp(bi,bj)    =  2414.00375
  --> objf_salt(bi,bj)    =  472.001555
  --> objf_temp0(bi,bj)   =  0.
  --> objf_salt0(bi,bj)   =  0.
  --> objf_tmi(bi,bj)     =  0.
  --> objf_sst(bi,bj)     =  15.011058
  --> objf_sss(bi,bj)     =  0.
  --> objf_h(bi,bj)       =  0.
  --> objf_hmean          =  0.
  --> objf_tauu(bi,bj)    =  0.
  --> objf_tauum(bi,bj)   =  0.
  --> objf_tauv(bi,bj)    =  0.
  --> objf_tauvm(bi,bj)   =  0.
  --> objf_hflux(bi,bj)   =  7.41388186E-12
  --> objf_hflux(bi,bj)   =  2.70658351E-12
  --> objf_hflux(bi,bj)   =  0.
  --> objf_sflux(bi,bj)   =  0.
  --> objf_sflux(bi,bj)   =  0.
  --> objf_sflux(bi,bj)   =  0.
  --> objf_atl(bi,bj)     =  0.
  --> objf_ctdt(bi,bj)    =  0.
  --> objf_ctds(bi,bj)    =  0.
  --> objf_ctdtclim(bi,bj)=  0.
  --> objf_ctdsclim(bi,bj)=  0.
  --> objf_xbt(bi,bj)     =  0.
  --> objf_argot(bi,bj)   =  0.
  --> objf_argos(bi,bj)   =  0.
  --> objf_drift(bi,bj)   =  0.
  --> objf_tdrift(bi,bj)  =  0.
  --> objf_sdrift(bi,bj)  =  0.
  --> objf_wdrift(bi,bj)  =  0.
  --> objf_scatx(bi,bj)   =  0.
  --> objf_scaty(bi,bj)   =  0.
  --> objf_scatxm(bi,bj)  =  0.
  --> objf_scatym(bi,bj)  =  0.
  --> objf_uwind(bi,bj)   =  0.
  --> objf_vwind(bi,bj)   =  0.
  --> objf_atemp(bi,bj)   =  0.
  --> objf_aqh(bi,bj)     =  0.
  --> objf_obcsn(bi,bj)   =  0.
  --> objf_obcss(bi,bj)   =  0.
  --> objf_obcsw(bi,bj)   =  0.
  --> objf_obcse(bi,bj)   =  0.
  --> objf_ageos(bi,bj)   =  0.
  --> objf_curmtr(bi,bj)  =  0.
  --> objf_obcsvol        =  0.
  --> objf_ice(bi,bj)     =  0.
  --> objf_kapgm(bi,bj)   =  0.
  --> objf_diffkr(bi,bj)  =  0.
  --> objf_ini_fin(bi,bj) =  0.
  --> objf_hmean  (GLOBAL) =  0.
  --> objf_obcsvol(GLOBAL) =  0.
  --> fc                   =  2901.01636
(PID.TID 0000.0001)  MDSREADFIELD: opening file: xx_hfl.0000000000.001.001.data
(PID.TID 0000.0001)  MDSREADFIELD: opening file: xx_hfl.0000000000.001.001.data
(PID.TID 0000.0001) 
(PID.TID 0000.0001)  cal_TimeStamp: iter =          0 time =  0.00000000E+00
(PID.TID 0000.0001)                 date =   19920102      220000
(PID.TID 0000.0001) 
(PID.TID 0000.0001) %MON surfExpanfCori_max           =   9.5419917861011E-05
(PID.TID 0000.0001) %MON surfExpanfCori_min           =   2.7752043431195E-05
(PID.TID 0000.0001) %MON surfExpanfCori_mean          =   6.2936249243167E-05
(PID.TID 0000.0001) %MON surfExpanfCori_sd            =   2.0885809702547E-05
(PID.TID 0000.0001) %MON surfExpanfCoriG_max          =   9.3489668167119E-05
(PID.TID 0000.0001) %MON surfExpanfCoriG_min          =   2.5256103669800E-05
(PID.TID 0000.0001) %MON surfExpanfCoriG_mean         =   6.0674632558389E-05
(PID.TID 0000.0001) %MON surfExpanfCoriG_sd           =   2.1059305790472E-05
(PID.TID 0000.0001) %MON surfExpanfCoriCos_max        =   1.4277188648533E-04
(PID.TID 0000.0001) %MON surfExpanfCoriCos_min        =   1.0976805892693E-04
(PID.TID 0000.0001) %MON surfExpanfCoriCos_mean       =   1.2903843359786E-04
(PID.TID 0000.0001) %MON surfExpanfCoriCos_sd         =   1.0289879691716E-05
(PID.TID 0000.0001) // CG2D normalisation factor =          0.1575292392863445389492028E-03
(PID.TID 0000.0001) 
(PID.TID 0000.0001)  MDSREADFIELD: opening global file: PH_LevCli.ptmp__020_016_23.data
(PID.TID 0000.0001) // =======================================================
(PID.TID 0000.0001) // Field Initial Temperature at iteration          1
(PID.TID 0000.0001) // CMIN =          1.840084838867188E+01
(PID.TID 0000.0001) // CMAX =          2.607793426513672E+01
(PID.TID 0000.0001) // CINT =          2.843365139431424E-01
(PID.TID 0000.0001) // SYMBOLS (CMIN->CMAX): -abcdefghijklmnopqrstuvwxyz+
(PID.TID 0000.0001) //                  0.0: .
(PID.TID 0000.0001) // RANGE I (Lo:Hi:Step):(   1:  20:   1)
(PID.TID 0000.0001) // RANGE J (Lo:Hi:Step):(  16:   1:  -1)
(PID.TID 0000.0001) // RANGE K (Lo:Hi:Step):(   1:   1:   1)
(PID.TID 0000.0001) // =======================================================
(PID.TID 0000.0001) K =   1
(PID.TID 0000.0001)                I=10      I=20
(PID.TID 0000.0001) |--J--|123456789|123456789|
(PID.TID 0000.0001)     16 ....................
(PID.TID 0000.0001)     15 .jihhgfeedddcba---a.
(PID.TID 0000.0001)     14 .kjiihggffeedcbbabb.
(PID.TID 0000.0001)     13 .lkkjiiiihgfedccbc..
(PID.TID 0000.0001)     12 .mllkkjjjihgfedcc...
(PID.TID 0000.0001)     11 .onnmmllkjihgfeec...
(PID.TID 0000.0001)     10 .rrqqponmmlkihf.....
(PID.TID 0000.0001)      9 .utssrqponmljh......
(PID.TID 0000.0001)      8 .vuttsrqponlig......
(PID.TID 0000.0001)      7 .vuutsrrponkif......
(PID.TID 0000.0001)      6 .wvvuutsrqomjh......
(PID.TID 0000.0001)      5 .yxwwwvutsrpnl......
(PID.TID 0000.0001)      4 .zyyyxxwwvutrq......
(PID.TID 0000.0001)      3 .zzzzyyxxxxwvu......
(PID.TID 0000.0001)      2 .+++++zzz+++zy......
(PID.TID 0000.0001)      1 ....................
(PID.TID 0000.0001) // =======================================================
(PID.TID 0000.0001) // END OF FIELD                                          =
(PID.TID 0000.0001) // =======================================================
(PID.TID 0000.0001) 
(PID.TID 0000.0001)  MDSREADFIELD: opening global file: PH_LevCli.salt__020_016_23.data
(PID.TID 0000.0001) // =======================================================
(PID.TID 0000.0001) // Field Initial Salinity at iteration          1
(PID.TID 0000.0001) // CMIN =          3.501070022583008E+01
(PID.TID 0000.0001) // CMAX =          3.739887619018555E+01
(PID.TID 0000.0001) // CINT =          8.845096164279515E-02
(PID.TID 0000.0001) // SYMBOLS (CMIN->CMAX): -abcdefghijklmnopqrstuvwxyz+
(PID.TID 0000.0001) //                  0.0: .
(PID.TID 0000.0001) // RANGE I (Lo:Hi:Step):(   1:  20:   1)
(PID.TID 0000.0001) // RANGE J (Lo:Hi:Step):(  16:   1:  -1)
(PID.TID 0000.0001) // RANGE K (Lo:Hi:Step):(   1:   1:   1)
(PID.TID 0000.0001) // =======================================================
(PID.TID 0000.0001) K =   1
(PID.TID 0000.0001)                I=10      I=20
(PID.TID 0000.0001) |--J--|123456789|123456789|
(PID.TID 0000.0001)     16 ....................
(PID.TID 0000.0001)     15 .oonnnnmmnnnnnnmllk.
(PID.TID 0000.0001)     14 .ppppoooopppppppooo.
(PID.TID 0000.0001)     13 .qqqqqrrrrrrqqqqqq..
(PID.TID 0000.0001)     12 .tttttttttttssrqp...
(PID.TID 0000.0001)     11 .wwwwwwvvvvuusrpn...
(PID.TID 0000.0001)     10 .zzyyyyyxxwvusr.....
(PID.TID 0000.0001)      9 .++zzzzyxxwutr......
(PID.TID 0000.0001)      8 .+zzyyyxwvusrp......
(PID.TID 0000.0001)      7 .xxxxwwutsrpnm......
(PID.TID 0000.0001)      6 .uuuuutsqponlj......
(PID.TID 0000.0001)      5 .rrrrqqponmkji......
(PID.TID 0000.0001)      4 .poooonmmlkihg......
(PID.TID 0000.0001)      3 .mmlllllkjihec......
(PID.TID 0000.0001)      2 .jjjkkkjjihfd-......
(PID.TID 0000.0001)      1 ....................
(PID.TID 0000.0001) // =======================================================
(PID.TID 0000.0001) // END OF FIELD                                          =
(PID.TID 0000.0001) // =======================================================
(PID.TID 0000.0001) 
(PID.TID 0000.0001) Start initial hydrostatic pressure computation
(PID.TID 0000.0001) Pressure is predetermined for buoyancyRelation OCEANIC
(PID.TID 0000.0001) 
(PID.TID 0000.0001)  MDSREADFIELD: opening file: xx_theta.0000000000.001.001.data
(PID.TID 0000.0001)  MDSREADFIELD: opening file: xx_salt.0000000000.001.001.data
(PID.TID 0000.0001) // =======================================================
(PID.TID 0000.0001) // Model current state
(PID.TID 0000.0001) // =======================================================
(PID.TID 0000.0001) 
(PID.TID 0000.0001) // =======================================================
(PID.TID 0000.0001) // Begin MONITOR dynamic field statistics
(PID.TID 0000.0001) // =======================================================
(PID.TID 0000.0001) %MON time_tsnumber                =                     0
(PID.TID 0000.0001) %MON time_secondsf                =   0.0000000000000E+00
(PID.TID 0000.0001) %MON dynstat_eta_max              =   0.0000000000000E+00
(PID.TID 0000.0001) %MON dynstat_eta_min              =   0.0000000000000E+00
(PID.TID 0000.0001) %MON dynstat_eta_mean             =   0.0000000000000E+00
(PID.TID 0000.0001) %MON dynstat_eta_sd               =   0.0000000000000E+00
(PID.TID 0000.0001) %MON dynstat_eta_del2             =   0.0000000000000E+00
(PID.TID 0000.0001) %MON dynstat_uvel_max             =   0.0000000000000E+00
(PID.TID 0000.0001) %MON dynstat_uvel_min             =   0.0000000000000E+00
(PID.TID 0000.0001) %MON dynstat_uvel_mean            =   0.0000000000000E+00
(PID.TID 0000.0001) %MON dynstat_uvel_sd              =   0.0000000000000E+00
(PID.TID 0000.0001) %MON dynstat_uvel_del2            =   0.0000000000000E+00
(PID.TID 0000.0001) %MON dynstat_vvel_max             =   0.0000000000000E+00
(PID.TID 0000.0001) %MON dynstat_vvel_min             =   0.0000000000000E+00
(PID.TID 0000.0001) %MON dynstat_vvel_mean            =   0.0000000000000E+00
(PID.TID 0000.0001) %MON dynstat_vvel_sd              =   0.0000000000000E+00
(PID.TID 0000.0001) %MON dynstat_vvel_del2            =   0.0000000000000E+00
(PID.TID 0000.0001) %MON dynstat_wvel_max             =   0.0000000000000E+00
(PID.TID 0000.0001) %MON dynstat_wvel_min             =   0.0000000000000E+00
(PID.TID 0000.0001) %MON dynstat_wvel_mean            =   0.0000000000000E+00
(PID.TID 0000.0001) %MON dynstat_wvel_sd              =   0.0000000000000E+00
(PID.TID 0000.0001) %MON dynstat_wvel_del2            =   0.0000000000000E+00
(PID.TID 0000.0001) %MON dynstat_theta_max            =   2.6077934265137E+01
(PID.TID 0000.0001) %MON dynstat_theta_min            =   1.8064365386963E+00
(PID.TID 0000.0001) %MON dynstat_theta_mean           =   5.4784105600004E+00
(PID.TID 0000.0001) %MON dynstat_theta_sd             =   4.5923951934310E+00
(PID.TID 0000.0001) %MON dynstat_theta_del2           =   5.0898848572070E-02
(PID.TID 0000.0001) %MON dynstat_salt_max             =   3.7401638031006E+01
(PID.TID 0000.0001) %MON dynstat_salt_min             =   3.4726768493652E+01
(PID.TID 0000.0001) %MON dynstat_salt_mean            =   3.5157555715946E+01
(PID.TID 0000.0001) %MON dynstat_salt_sd              =   4.1377404390946E-01
(PID.TID 0000.0001) %MON dynstat_salt_del2            =   1.2632116608019E-02
(PID.TID 0000.0001) %MON advcfl_uvel_max              =   0.0000000000000E+00
(PID.TID 0000.0001) %MON advcfl_vvel_max              =   0.0000000000000E+00
(PID.TID 0000.0001) %MON advcfl_wvel_max              =   0.0000000000000E+00
(PID.TID 0000.0001) %MON advcfl_W_hf_max              =   0.0000000000000E+00
(PID.TID 0000.0001) %MON pe_b_mean                    =   0.0000000000000E+00
(PID.TID 0000.0001) %MON ke_max                       =   0.0000000000000E+00
(PID.TID 0000.0001) %MON ke_mean                      =   0.0000000000000E+00
(PID.TID 0000.0001) %MON ke_vol                       =   3.6027486600263E+16
(PID.TID 0000.0001) %MON vort_r_min                   =   0.0000000000000E+00
(PID.TID 0000.0001) %MON vort_r_max                   =   0.0000000000000E+00
(PID.TID 0000.0001) %MON vort_a_mean                  =   6.1944475191297E-05
(PID.TID 0000.0001) %MON vort_a_sd                    =   1.9197697516419E-05
(PID.TID 0000.0001) %MON vort_p_mean                  =   7.7881882182936E-05
(PID.TID 0000.0001) %MON vort_p_sd                    =   5.6365002634549E-05
(PID.TID 0000.0001) %MON surfExpan_theta_mean         =   0.0000000000000E+00
(PID.TID 0000.0001) %MON surfExpan_salt_mean          =   0.0000000000000E+00
(PID.TID 0000.0001) // =======================================================
(PID.TID 0000.0001) // End MONITOR dynamic field statistics
(PID.TID 0000.0001) // =======================================================
(PID.TID 0000.0001)  MDSREADFIELD: opening file: xx_hfl.0000000000.001.001.data
(PID.TID 0000.0001)  MDSREADFIELD: opening file: xx_hfl.0000000000.001.001.data
(PID.TID 0000.0001)  MDSREADFIELD: opening file: xx_hfl.0000000000.001.001.data
(PID.TID 0000.0001)  MDSREADFIELD: opening file: xx_hfl.0000000000.001.001.data
(PID.TID 0000.0001)  MDSREADFIELD: opening file: xx_sfl.0000000000.001.001.data
(PID.TID 0000.0001)  MDSREADFIELD: opening file: xx_sfl.0000000000.001.001.data
(PID.TID 0000.0001)  MDSREADFIELD: opening file: xx_sfl.0000000000.001.001.data
(PID.TID 0000.0001)  MDSREADFIELD: opening file: xx_sfl.0000000000.001.001.data
(PID.TID 0000.0001)  MDSREADFIELD: opening file: xx_tauu.0000000000.001.001.data
(PID.TID 0000.0001)  MDSREADFIELD: opening file: xx_tauu.0000000000.001.001.data
(PID.TID 0000.0001)  MDSREADFIELD: opening file: xx_tauu.0000000000.001.001.data
(PID.TID 0000.0001)  MDSREADFIELD: opening file: xx_tauu.0000000000.001.001.data
(PID.TID 0000.0001)  MDSREADFIELD: opening file: xx_tauv.0000000000.001.001.data
(PID.TID 0000.0001)  MDSREADFIELD: opening file: xx_tauv.0000000000.001.001.data
(PID.TID 0000.0001)  MDSREADFIELD: opening file: xx_tauv.0000000000.001.001.data
(PID.TID 0000.0001)  MDSREADFIELD: opening file: xx_tauv.0000000000.001.001.data
(PID.TID 0000.0001) 
(PID.TID 0000.0001)  exf_GetFFieldsRec: first, changed, fac:   T   F   0.16666667E+00
(PID.TID 0000.0001)  exf_GetFFieldsRec:      count0, count1:   2   3
(PID.TID 0000.0001) 
(PID.TID 0000.0001)  MDSREADFIELD: opening global file: PH_ustress__020_016_23.data
(PID.TID 0000.0001)  MDSREADFIELD: opening global file: PH_ustress__020_016_23.data
(PID.TID 0000.0001) 
(PID.TID 0000.0001)  exf_GetFFieldsRec: first, changed, fac:   T   F   0.16666667E+00
(PID.TID 0000.0001)  exf_GetFFieldsRec:      count0, count1:   2   3
(PID.TID 0000.0001) 
(PID.TID 0000.0001)  MDSREADFIELD: opening global file: PH_vstress__020_016_23.data
(PID.TID 0000.0001)  MDSREADFIELD: opening global file: PH_vstress__020_016_23.data
(PID.TID 0000.0001) 
(PID.TID 0000.0001)  exf_GetFFieldsRec: first, changed, fac:   T   F   0.20833333E+00
(PID.TID 0000.0001)  exf_GetFFieldsRec:      count0, count1:   1   2
(PID.TID 0000.0001) 
(PID.TID 0000.0001)  MDSREADFIELD: opening global file: PH_totflsfc__020_016_23.data
(PID.TID 0000.0001)  MDSREADFIELD: opening global file: PH_totflsfc__020_016_23.data
(PID.TID 0000.0001) 
(PID.TID 0000.0001)  exf_GetFFieldsRec: first, changed, fac:   T   F   0.20833333E+00
(PID.TID 0000.0001)  exf_GetFFieldsRec:      count0, count1:   1   2
(PID.TID 0000.0001) 
(PID.TID 0000.0001)  MDSREADFIELD: opening global file: PH_pratesfc__020_016_23.data
(PID.TID 0000.0001)  MDSREADFIELD: opening global file: PH_pratesfc__020_016_23.data
(PID.TID 0000.0001) 
(PID.TID 0000.0001)  exf_GetFFieldsRec: first, changed, fac:   T   F   0.20833333E+00
(PID.TID 0000.0001)  exf_GetFFieldsRec:      count0, count1:   1   2
(PID.TID 0000.0001) 
(PID.TID 0000.0001)  MDSREADFIELD: opening global file: PH_swflsfc__020_016_23.data
(PID.TID 0000.0001)  MDSREADFIELD: opening global file: PH_swflsfc__020_016_23.data
(PID.TID 0000.0001)  MDSREADFIELD: opening file: xx_hfl.0000000000.001.001.data
(PID.TID 0000.0001)  MDSREADFIELD: opening file: xx_hfl.0000000000.001.001.data
(PID.TID 0000.0001)  MDSREADFIELD: opening file: xx_sfl.0000000000.001.001.data
(PID.TID 0000.0001)  MDSREADFIELD: opening file: xx_sfl.0000000000.001.001.data
(PID.TID 0000.0001)  MDSREADFIELD: opening file: xx_tauu.0000000000.001.001.data
(PID.TID 0000.0001)  MDSREADFIELD: opening file: xx_tauu.0000000000.001.001.data
(PID.TID 0000.0001)  MDSREADFIELD: opening file: xx_tauv.0000000000.001.001.data
(PID.TID 0000.0001)  MDSREADFIELD: opening file: xx_tauv.0000000000.001.001.data
 pathei: in check_exp: iter/time/rec/yprefix  0  0. 1 kf_
 pathei: in check_exp: date   0
 pathei: in check_exp: theta   21.9700623
 pathei: in check_exp: salt    37.1130981
 pathei: in check_exp: uvel    0.
 pathei: in check_exp: vvel    0.
 pathei: in check_exp: qnet    147.296121
 pathei: in check_exp: empmr   2.83352032E-08
 pathei: in check_exp: fu     -0.0133724209
 pathei: in check_exp: fv     -0.02042173
 cg2d: Sum(rhs),rhsMax =   1.65492619608187E-15  4.50737656431993E-01
(PID.TID 0000.0001)                    cg2d_init_res =    3.97910540907939E+00
(PID.TID 0000.0001)                       cg2d_iters =    50
(PID.TID 0000.0001)                         cg2d_res =    7.14109634625465E-14
(PID.TID 0000.0001) 
(PID.TID 0000.0001)  exf_GetFFieldsRec: first, changed, fac:   F   F   0.83333333E-01
(PID.TID 0000.0001)  exf_GetFFieldsRec:      count0, count1:   2   3
(PID.TID 0000.0001) 
(PID.TID 0000.0001) 
(PID.TID 0000.0001)  exf_GetFFieldsRec: first, changed, fac:   F   F   0.83333333E-01
(PID.TID 0000.0001)  exf_GetFFieldsRec:      count0, count1:   2   3
(PID.TID 0000.0001) 
(PID.TID 0000.0001) 
(PID.TID 0000.0001)  exf_GetFFieldsRec: first, changed, fac:   F   F   0.16666667E+00
(PID.TID 0000.0001)  exf_GetFFieldsRec:      count0, count1:   1   2
(PID.TID 0000.0001) 
(PID.TID 0000.0001) 
(PID.TID 0000.0001)  exf_GetFFieldsRec: first, changed, fac:   F   F   0.16666667E+00
(PID.TID 0000.0001)  exf_GetFFieldsRec:      count0, count1:   1   2
(PID.TID 0000.0001) 
(PID.TID 0000.0001) 
(PID.TID 0000.0001)  exf_GetFFieldsRec: first, changed, fac:   F   F   0.16666667E+00
(PID.TID 0000.0001)  exf_GetFFieldsRec:      count0, count1:   1   2
(PID.TID 0000.0001) 
 cg2d: Sum(rhs),rhsMax =   1.96283961306776E-15  5.55571937118767E-01
(PID.TID 0000.0001) 
(PID.TID 0000.0001)  exf_GetFFieldsRec: first, changed, fac:   F   T   0.10000000E+01
(PID.TID 0000.0001)  exf_GetFFieldsRec:      count0, count1:   3   4
(PID.TID 0000.0001) 
(PID.TID 0000.0001)  MDSREADFIELD: opening global file: PH_ustress__020_016_23.data
(PID.TID 0000.0001) 
(PID.TID 0000.0001)  exf_GetFFieldsRec: first, changed, fac:   F   T   0.10000000E+01
(PID.TID 0000.0001)  exf_GetFFieldsRec:      count0, count1:   3   4
(PID.TID 0000.0001) 
(PID.TID 0000.0001)  MDSREADFIELD: opening global file: PH_vstress__020_016_23.data
(PID.TID 0000.0001) 
(PID.TID 0000.0001)  exf_GetFFieldsRec: first, changed, fac:   F   F   0.12500000E+00
(PID.TID 0000.0001)  exf_GetFFieldsRec:      count0, count1:   1   2
(PID.TID 0000.0001) 
(PID.TID 0000.0001) 
(PID.TID 0000.0001)  exf_GetFFieldsRec: first, changed, fac:   F   F   0.12500000E+00
(PID.TID 0000.0001)  exf_GetFFieldsRec:      count0, count1:   1   2
(PID.TID 0000.0001) 
(PID.TID 0000.0001) 
(PID.TID 0000.0001)  exf_GetFFieldsRec: first, changed, fac:   F   F   0.12500000E+00
(PID.TID 0000.0001)  exf_GetFFieldsRec:      count0, count1:   1   2
(PID.TID 0000.0001) 
 cg2d: Sum(rhs),rhsMax =   7.56339435525888E-16  5.83078086204084E-01
(PID.TID 0000.0001) 
(PID.TID 0000.0001)  exf_GetFFieldsRec: first, changed, fac:   F   F   0.91666667E+00
(PID.TID 0000.0001)  exf_GetFFieldsRec:      count0, count1:   3   4
(PID.TID 0000.0001) 
(PID.TID 0000.0001) 
(PID.TID 0000.0001)  exf_GetFFieldsRec: first, changed, fac:   F   F   0.91666667E+00
(PID.TID 0000.0001)  exf_GetFFieldsRec:      count0, count1:   3   4
(PID.TID 0000.0001) 
(PID.TID 0000.0001) 
(PID.TID 0000.0001)  exf_GetFFieldsRec: first, changed, fac:   F   F   0.83333333E-01
(PID.TID 0000.0001)  exf_GetFFieldsRec:      count0, count1:   1   2
(PID.TID 0000.0001) 
(PID.TID 0000.0001) 
(PID.TID 0000.0001)  exf_GetFFieldsRec: first, changed, fac:   F   F   0.83333333E-01
(PID.TID 0000.0001)  exf_GetFFieldsRec:      count0, count1:   1   2
(PID.TID 0000.0001) 
(PID.TID 0000.0001) 
(PID.TID 0000.0001)  exf_GetFFieldsRec: first, changed, fac:   F   F   0.83333333E-01
(PID.TID 0000.0001)  exf_GetFFieldsRec:      count0, count1:   1   2
(PID.TID 0000.0001) 
 cg2d: Sum(rhs),rhsMax =  -3.46944695195361E-18  6.06478011786010E-01
(PID.TID 0000.0001)  MDSREADFIELD: opening file: tbar.0000000000.001.001.data
(PID.TID 0000.0001)  MDSREADFIELD: opening global file: PH_SST_fields__020_016_23.data
(PID.TID 0000.0001)  MDSREADFIELD: opening file: tbar.0000000000.001.001.data
(PID.TID 0000.0001)  MDSREADFIELD: opening global file: PH_Lev.ptmp__020_016_23.data
(PID.TID 0000.0001)  MDSREADFIELD: opening file: sbar.0000000000.001.001.data
(PID.TID 0000.0001)  MDSREADFIELD: opening global file: PH_Lev.salt__020_016_23.data
(PID.TID 0000.0001)  MDSREADFIELD: opening file: psbar.0000000000.001.001.data
(PID.TID 0000.0001)  MDSREADFIELD: opening file: psbar.0000000000.001.001.data
(PID.TID 0000.0001)  MDSREADFIELD: opening global file: PH_TP_mean__020_016_23.data

  cost_ssh: offset_sum =   164.781314

(PID.TID 0000.0001)  MDSREADFIELD: opening file: psbar.0000000000.001.001.data
(PID.TID 0000.0001)  MDSREADFIELD: opening global file: PH_TP_fields__020_016_23.data
(PID.TID 0000.0001)  MDSREADFIELD: opening global file: PH_ERS_fields__020_016_23.data
(PID.TID 0000.0001)  MDSREADFIELD: opening file: psbar.0000000000.001.001.data
(PID.TID 0000.0001)  MDSREADFIELD: opening global file: PH_TP_fields__020_016_23.data
(PID.TID 0000.0001)  MDSREADFIELD: opening global file: PH_ERS_fields__020_016_23.data
(PID.TID 0000.0001)  MDSREADFIELD: opening file: tbar.0000000000.001.001.data
(PID.TID 0000.0001)  MDSREADFIELD: opening global file: PH_SST_fields__020_016_23.data
  --> objf_temp(bi,bj)    =  2414.00375
  --> objf_salt(bi,bj)    =  472.001555
  --> objf_temp0(bi,bj)   =  0.
  --> objf_salt0(bi,bj)   =  0.
  --> objf_tmi(bi,bj)     =  0.
  --> objf_sst(bi,bj)     =  15.011058
  --> objf_sss(bi,bj)     =  0.
  --> objf_h(bi,bj)       =  0.
  --> objf_hmean          =  0.
  --> objf_tauu(bi,bj)    =  0.
  --> objf_tauum(bi,bj)   =  0.
  --> objf_tauv(bi,bj)    =  0.
  --> objf_tauvm(bi,bj)   =  0.
  --> objf_hflux(bi,bj)   =  7.41388186E-12
  --> objf_hflux(bi,bj)   =  2.70658351E-12
  --> objf_hflux(bi,bj)   =  0.
  --> objf_sflux(bi,bj)   =  0.
  --> objf_sflux(bi,bj)   =  0.
  --> objf_sflux(bi,bj)   =  0.
  --> objf_atl(bi,bj)     =  0.
  --> objf_ctdt(bi,bj)    =  0.
  --> objf_ctds(bi,bj)    =  0.
  --> objf_ctdtclim(bi,bj)=  0.
  --> objf_ctdsclim(bi,bj)=  0.
  --> objf_xbt(bi,bj)     =  0.
  --> objf_argot(bi,bj)   =  0.
  --> objf_argos(bi,bj)   =  0.
  --> objf_drift(bi,bj)   =  0.
  --> objf_tdrift(bi,bj)  =  0.
  --> objf_sdrift(bi,bj)  =  0.
  --> objf_wdrift(bi,bj)  =  0.
  --> objf_scatx(bi,bj)   =  0.
  --> objf_scaty(bi,bj)   =  0.
  --> objf_scatxm(bi,bj)  =  0.
  --> objf_scatym(bi,bj)  =  0.
  --> objf_uwind(bi,bj)   =  0.
  --> objf_vwind(bi,bj)   =  0.
  --> objf_atemp(bi,bj)   =  0.
  --> objf_aqh(bi,bj)     =  0.
  --> objf_obcsn(bi,bj)   =  0.
  --> objf_obcss(bi,bj)   =  0.
  --> objf_obcsw(bi,bj)   =  0.
  --> objf_obcse(bi,bj)   =  0.
  --> objf_ageos(bi,bj)   =  0.
  --> objf_curmtr(bi,bj)  =  0.
  --> objf_obcsvol        =  0.
  --> objf_ice(bi,bj)     =  0.
  --> objf_kapgm(bi,bj)   =  0.
  --> objf_diffkr(bi,bj)  =  0.
  --> objf_ini_fin(bi,bj) =  0.
  --> objf_hmean  (GLOBAL) =  0.
  --> objf_obcsvol(GLOBAL) =  0.
  --> fc                   =  2901.01636
(PID.TID 0000.0001)  MDSREADFIELD: opening file: xx_hfl.0000000000.001.001.data
 ph-grd 3 -------------------------------
 ph-grd 3     0    4    5    2    1   0.290101636E+04 0.290101636E+04 0.290101636E+04
 ph-grd 3     0    4    4    4    0   -.614064484E-03 -.614068085E-03 -.586508208E-05
 ph-grd  ierr ---------------------------
 ph-grd  ierr =  0, icomp =  4, ichknum =  4
(PID.TID 0000.0001) 
(PID.TID 0000.0001) // =======================================================
(PID.TID 0000.0001) // Gradient check results  >>> START <<<
(PID.TID 0000.0001) // =======================================================
(PID.TID 0000.0001) 
(PID.TID 0000.0001) 
(PID.TID 0000.0001)  EPS =  0.100E-03
(PID.TID 0000.0001) grdchk output:            procId               I        ITILEPOS        JTILEPOS           LAYER            X(I)      X(I)+/-EPS
(PID.TID 0000.0001) grdchk output:                                FC             FC1             FC2 FC1-FC2/(2*EPS)    ADJ GRAD(FC)   1-FDGRD/ADGRD
(PID.TID 0000.0001) grdchk output:                 0               1               2               2               1 0.000000000E+00 -.100000000E-03
(PID.TID 0000.0001) grdchk output:                   0.290101636E+04 0.290101636E+04 0.290101636E+04 -.511863618E-04 -.511940072E-04 0.149342060E-03
(PID.TID 0000.0001) 
(PID.TID 0000.0001) grdchk output:                 0               2               3               2               1 0.000000000E+00 -.100000000E-03
(PID.TID 0000.0001) grdchk output:                   0.290101636E+04 0.290101636E+04 0.290101636E+04 -.201907824E-04 -.202036789E-04 0.638326140E-03
(PID.TID 0000.0001) 
(PID.TID 0000.0001) grdchk output:                 0               3               4               2               1 0.000000000E+00 -.100000000E-03
(PID.TID 0000.0001) grdchk output:                   0.290101636E+04 0.290101636E+04 0.290101636E+04 -.321981588E-03 -.321988119E-03 0.202822398E-04
(PID.TID 0000.0001) 
(PID.TID 0000.0001) grdchk output:                 0               4               5               2               1 0.000000000E+00 -.100000000E-03
(PID.TID 0000.0001) grdchk output:                   0.290101636E+04 0.290101636E+04 0.290101636E+04 -.614068085E-03 -.614064484E-03 -.586508208E-05
(PID.TID 0000.0001) 
(PID.TID 0000.0001) 
(PID.TID 0000.0001) // =======================================================
(PID.TID 0000.0001) // Gradient check results  >>> END <<<
(PID.TID 0000.0001) // =======================================================
(PID.TID 0000.0001) 
(PID.TID 0000.0001)   Seconds in section "ALL                    [THE_MODEL_MAIN]":
(PID.TID 0000.0001)           User time:  7.30000019
(PID.TID 0000.0001)         System time:  0.400000006
(PID.TID 0000.0001)     Wall clock time:  7.9539479
(PID.TID 0000.0001)          No. starts: 1
(PID.TID 0000.0001)           No. stops: 1
(PID.TID 0000.0001)   Seconds in section "INITIALISE_FIXED       [THE_MODEL_MAIN]":
(PID.TID 0000.0001)           User time:  0.0700000003
(PID.TID 0000.0001)         System time:  0.0299999993
(PID.TID 0000.0001)     Wall clock time:  0.105587006
(PID.TID 0000.0001)          No. starts: 1
(PID.TID 0000.0001)           No. stops: 1
(PID.TID 0000.0001)   Seconds in section "CTRL_UNPACK      [THE_MODEL_MAIN]":
(PID.TID 0000.0001)           User time:  0.0200000033
(PID.TID 0000.0001)         System time:  0.00999999978
(PID.TID 0000.0001)     Wall clock time:  0.0335719585
(PID.TID 0000.0001)          No. starts: 1
(PID.TID 0000.0001)           No. stops: 1
(PID.TID 0000.0001)   Seconds in section "ADTHE_MAIN_LOOP          [ADJOINT RUN]":
(PID.TID 0000.0001)           User time:  1.91
(PID.TID 0000.0001)         System time:  0.160000004
(PID.TID 0000.0001)     Wall clock time:  2.06359899
(PID.TID 0000.0001)          No. starts: 1
(PID.TID 0000.0001)           No. stops: 1
(PID.TID 0000.0001)   Seconds in section "STATEKPP      [KPP_CALC]":
(PID.TID 0000.0001)           User time:  0.0699999332
(PID.TID 0000.0001)         System time:  0.
(PID.TID 0000.0001)     Wall clock time:  0.0713428259
(PID.TID 0000.0001)          No. starts: 40
(PID.TID 0000.0001)           No. stops: 40
(PID.TID 0000.0001)   Seconds in section "KPPMIX [KPP_CALC]":
(PID.TID 0000.0001)           User time:  0.400000334
(PID.TID 0000.0001)         System time:  0.
(PID.TID 0000.0001)     Wall clock time:  0.423583627
(PID.TID 0000.0001)          No. starts: 40
(PID.TID 0000.0001)           No. stops: 40
(PID.TID 0000.0001)   Seconds in section "CTRL_PACK           [THE_MODEL_MAIN]":
(PID.TID 0000.0001)           User time:  0.0199999809
(PID.TID 0000.0001)         System time:  0.
(PID.TID 0000.0001)     Wall clock time:  0.017770052
(PID.TID 0000.0001)          No. starts: 1
(PID.TID 0000.0001)           No. stops: 1
(PID.TID 0000.0001)   Seconds in section "GRDCHK_MAIN         [THE_MODEL_MAIN]":
(PID.TID 0000.0001)           User time:  5.28000021
(PID.TID 0000.0001)         System time:  0.200000003
(PID.TID 0000.0001)     Wall clock time:  5.73321199
(PID.TID 0000.0001)          No. starts: 1
(PID.TID 0000.0001)           No. stops: 1
(PID.TID 0000.0001)   Seconds in section "ECCO SPIN-UP":
(PID.TID 0000.0001)           User time:  3.07000041
(PID.TID 0000.0001)         System time:  0.0599999875
(PID.TID 0000.0001)     Wall clock time:  3.17458892
(PID.TID 0000.0001)          No. starts: 8
(PID.TID 0000.0001)           No. stops: 8
(PID.TID 0000.0001)   Seconds in section "INITIALISE_VARIA    [THE_MAIN_LOOP]":
(PID.TID 0000.0001)           User time:  2.94999981
(PID.TID 0000.0001)         System time:  0.00999999046
(PID.TID 0000.0001)     Wall clock time:  3.01440489
(PID.TID 0000.0001)          No. starts: 8
(PID.TID 0000.0001)           No. stops: 8
(PID.TID 0000.0001)   Seconds in section "WRITE_STATE         [THE_MAIN_LOOP]":
(PID.TID 0000.0001)           User time:  0.0800004005
(PID.TID 0000.0001)         System time:  0.049999997
(PID.TID 0000.0001)     Wall clock time:  0.11256361
(PID.TID 0000.0001)          No. starts: 8
(PID.TID 0000.0001)           No. stops: 8
(PID.TID 0000.0001)   Seconds in section "MONITOR             [THE_MAIN_LOOP]":
(PID.TID 0000.0001)           User time:  0.0199999809
(PID.TID 0000.0001)         System time:  0.
(PID.TID 0000.0001)     Wall clock time:  0.0295571089
(PID.TID 0000.0001)          No. starts: 8
(PID.TID 0000.0001)           No. stops: 8
(PID.TID 0000.0001)   Seconds in section "COST_FORCING        [ECCO SPIN-UP]":
(PID.TID 0000.0001)           User time:  0.00999999046
(PID.TID 0000.0001)         System time:  0.
(PID.TID 0000.0001)     Wall clock time:  0.0163221359
(PID.TID 0000.0001)          No. starts: 8
(PID.TID 0000.0001)           No. stops: 8
(PID.TID 0000.0001)   Seconds in section "ECCO MAIN LOOP":
(PID.TID 0000.0001)           User time:  2.09000039
(PID.TID 0000.0001)         System time:  0.110000014
(PID.TID 0000.0001)     Wall clock time:  2.41248727
(PID.TID 0000.0001)          No. starts: 8
(PID.TID 0000.0001)           No. stops: 8
(PID.TID 0000.0001)   Seconds in section "COST_AVERAGESFIELDS   [ECCO MAIN]":
(PID.TID 0000.0001)           User time:  0.0100002289
(PID.TID 0000.0001)         System time:  0.
(PID.TID 0000.0001)     Wall clock time:  0.215903878
(PID.TID 0000.0001)          No. starts: 32
(PID.TID 0000.0001)           No. stops: 32
(PID.TID 0000.0001)   Seconds in section "EXF_GETFORCING     [FORWARD_STEP]":
(PID.TID 0000.0001)           User time:  0.0400004387
(PID.TID 0000.0001)         System time:  0.
(PID.TID 0000.0001)     Wall clock time:  0.0404794216
(PID.TID 0000.0001)          No. starts: 32
(PID.TID 0000.0001)           No. stops: 32
(PID.TID 0000.0001)   Seconds in section "THERMODYNAMICS      [FORWARD_STEP]":
(PID.TID 0000.0001)           User time:  1.26000023
(PID.TID 0000.0001)         System time:  0.
(PID.TID 0000.0001)     Wall clock time:  1.26490927
(PID.TID 0000.0001)          No. starts: 32
(PID.TID 0000.0001)           No. stops: 32
(PID.TID 0000.0001)   Seconds in section "BLOCKING_EXCHANGES  [FORWARD_STEP]":
(PID.TID 0000.0001)           User time:  0.0599999428
(PID.TID 0000.0001)         System time:  0.
(PID.TID 0000.0001)     Wall clock time:  0.0348305702
(PID.TID 0000.0001)          No. starts: 64
(PID.TID 0000.0001)           No. stops: 64
(PID.TID 0000.0001)   Seconds in section "DYNAMICS            [FORWARD_STEP]":
(PID.TID 0000.0001)           User time:  0.539999962
(PID.TID 0000.0001)         System time:  0.0100000054
(PID.TID 0000.0001)     Wall clock time:  0.531098604
(PID.TID 0000.0001)          No. starts: 32
(PID.TID 0000.0001)           No. stops: 32
(PID.TID 0000.0001)   Seconds in section "SOLVE_FOR_PRESSURE  [FORWARD_STEP]":
(PID.TID 0000.0001)           User time:  0.029999733
(PID.TID 0000.0001)         System time:  0.
(PID.TID 0000.0001)     Wall clock time:  0.0578303337
(PID.TID 0000.0001)          No. starts: 32
(PID.TID 0000.0001)           No. stops: 32
(PID.TID 0000.0001)   Seconds in section "THE_CORRECTION_STEP [FORWARD_STEP]":
(PID.TID 0000.0001)           User time:  0.00999975204
(PID.TID 0000.0001)         System time:  0.
(PID.TID 0000.0001)     Wall clock time:  0.0388077497
(PID.TID 0000.0001)          No. starts: 32
(PID.TID 0000.0001)           No. stops: 32
(PID.TID 0000.0001)   Seconds in section "MONITOR             [FORWARD_STEP]":
(PID.TID 0000.0001)           User time:  0.
(PID.TID 0000.0001)         System time:  0.
(PID.TID 0000.0001)     Wall clock time:  0.000697135925
(PID.TID 0000.0001)          No. starts: 32
(PID.TID 0000.0001)           No. stops: 32
(PID.TID 0000.0001)   Seconds in section "DO_THE_MODEL_IO     [FORWARD_STEP]":
(PID.TID 0000.0001)           User time:  0.0600001812
(PID.TID 0000.0001)         System time:  0.0700000077
(PID.TID 0000.0001)     Wall clock time:  0.13591373
(PID.TID 0000.0001)          No. starts: 32
(PID.TID 0000.0001)           No. stops: 32
(PID.TID 0000.0001)   Seconds in section "WRITE_CHECKPOINT    [FORWARD_STEP]":
(PID.TID 0000.0001)           User time:  STOP NORMAL END statement executed
0.
(PID.TID 0000.0001)         System time:  0.
(PID.TID 0000.0001)     Wall clock time:  0.000640273094
(PID.TID 0000.0001)          No. starts: 32
(PID.TID 0000.0001)           No. stops: 32
(PID.TID 0000.0001)   Seconds in section "ECCO SPIN-DOWN":
(PID.TID 0000.0001)           User time:  0.099998951
(PID.TID 0000.0001)         System time:  0.0300000012
(PID.TID 0000.0001)     Wall clock time:  0.130198956
(PID.TID 0000.0001)          No. starts: 8
(PID.TID 0000.0001)           No. stops: 8
(PID.TID 0000.0001)   Seconds in section "COST_AVERAGESFIELDS [ECCO SPIN-DOWN]":
(PID.TID 0000.0001)           User time:  0.029999733
(PID.TID 0000.0001)         System time:  0.0200000107
(PID.TID 0000.0001)     Wall clock time:  0.047675848
(PID.TID 0000.0001)          No. starts: 8
(PID.TID 0000.0001)           No. stops: 8
(PID.TID 0000.0001)   Seconds in section "COST_HYD           [ECCO SPIN-DOWN]":
(PID.TID 0000.0001)           User time:  0.0599992275
(PID.TID 0000.0001)         System time:  0.
(PID.TID 0000.0001)     Wall clock time:  0.0577119589
(PID.TID 0000.0001)          No. starts: 8
(PID.TID 0000.0001)           No. stops: 8
(PID.TID 0000.0001)   Seconds in section "COST_SSH           [ECCO SPIN-DOWN]":
(PID.TID 0000.0001)           User time:  0.
(PID.TID 0000.0001)         System time:  0.
(PID.TID 0000.0001)     Wall clock time:  0.00995576382
(PID.TID 0000.0001)          No. starts: 8
(PID.TID 0000.0001)           No. stops: 8
(PID.TID 0000.0001)   Seconds in section "COST_SST           [ECCO SPIN-DOWN]":
(PID.TID 0000.0001)           User time:  0.00999999046
(PID.TID 0000.0001)         System time:  0.00999999046
(PID.TID 0000.0001)     Wall clock time:  0.0119780302
(PID.TID 0000.0001)          No. starts: 8
(PID.TID 0000.0001)           No. stops: 8
(PID.TID 0000.0001)   Seconds in section "COST_FINAL         [ECCO SPIN-DOWN]":
(PID.TID 0000.0001)           User time:  0.
(PID.TID 0000.0001)         System time:  0.
(PID.TID 0000.0001)     Wall clock time:  0.00191307068
(PID.TID 0000.0001)          No. starts: 8
(PID.TID 0000.0001)           No. stops: 8
(PID.TID 0000.0001)   Seconds in section "WRITE_CHECKPOINT       [THE_MODEL_MAIN]":
(PID.TID 0000.0001)           User time:  0.
(PID.TID 0000.0001)         System time:  0.
(PID.TID 0000.0001)     Wall clock time:  1.99079514E-05
(PID.TID 0000.0001)          No. starts: 1
(PID.TID 0000.0001)           No. stops: 1
(PID.TID 0000.0001) // ======================================================
(PID.TID 0000.0001) // Tile <-> Tile communication statistics
(PID.TID 0000.0001) // ======================================================
(PID.TID 0000.0001) // o Tile number: 000001
(PID.TID 0000.0001) //         No. X exchanges =              0
(PID.TID 0000.0001) //            Max. X spins =              0
(PID.TID 0000.0001) //            Min. X spins =     1000000000
(PID.TID 0000.0001) //          Total. X spins =              0
(PID.TID 0000.0001) //            Avg. X spins =       0.00E+00
(PID.TID 0000.0001) //         No. Y exchanges =              0
(PID.TID 0000.0001) //            Max. Y spins =              0
(PID.TID 0000.0001) //            Min. Y spins =     1000000000
(PID.TID 0000.0001) //          Total. Y spins =              0
(PID.TID 0000.0001) //            Avg. Y spins =       0.00E+00
(PID.TID 0000.0001) // o Thread number: 000001
(PID.TID 0000.0001) //            No. barriers =          32916
(PID.TID 0000.0001) //      Max. barrier spins =              1
(PID.TID 0000.0001) //      Min. barrier spins =              1
(PID.TID 0000.0001) //     Total barrier spins =          32916
(PID.TID 0000.0001) //      Avg. barrier spins =       1.00E+00
