(PID.TID 0000.0001) 
(PID.TID 0000.0001) // ======================================================
(PID.TID 0000.0001) //                      MITgcm UV
(PID.TID 0000.0001) //                      =========
(PID.TID 0000.0001) // ======================================================
(PID.TID 0000.0001) // execution environment starting up...
(PID.TID 0000.0001) // Run starting Wed Apr  1 14:19:48 1998
(PID.TID 0000.0001) // on melville.lcs.mit.edu
(PID.TID 0000.0001) // account cnh
(PID.TID 0000.0001) // MITgcm UV Release: $Name:  $
(PID.TID 0000.0001) 
(PID.TID 0000.0001) // =======================================================
(PID.TID 0000.0001) // Execution Environment parameter file "eedata"
(PID.TID 0000.0001) // =======================================================
(PID.TID 0000.0001) ># Example "eedata" file
(PID.TID 0000.0001) ># Lines beginning "#" are comments
(PID.TID 0000.0001) ># nTx - No. threads per process in X
(PID.TID 0000.0001) ># nTy - No. threads per process in Y
(PID.TID 0000.0001) > &EEPARMS
(PID.TID 0000.0001) > nTx=1,nTy=1
(PID.TID 0000.0001) > &
(PID.TID 0000.0001) ># Note: Some systems use & as the
(PID.TID 0000.0001) ># namelist terminator. Other systems
(PID.TID 0000.0001) ># use a / character (as shown here).
(PID.TID 0000.0001) 
(PID.TID 0000.0001) // =======================================================
(PID.TID 0000.0001) // Computational Grid Specification ( see files "SIZE.h" )
(PID.TID 0000.0001) //                                  ( and "eedata"       )
(PID.TID 0000.0001) // =======================================================
(PID.TID 0000.0001)      nPx =    1 ; /* No. processes in X */
(PID.TID 0000.0001)      nPy =    1 ; /* No. processes in Y */
(PID.TID 0000.0001)      nSx =    1 ; /* No. tiles in X per process */
(PID.TID 0000.0001)      nSy =    1 ; /* No. tiles in Y per process */
(PID.TID 0000.0001)      sNx =   20 ; /* Tile size in X */
(PID.TID 0000.0001)      sNy =   16 ; /* Tile size in Y */
(PID.TID 0000.0001)      OLx =    4 ; /* Tile overlap distance in X */
(PID.TID 0000.0001)      OLy =    4 ; /* Tile overlap distance in Y */
(PID.TID 0000.0001)      nTx =    1 ; /* No. threads in X per process */
(PID.TID 0000.0001)      nTy =    1 ; /* No. threads in Y per process */
(PID.TID 0000.0001)       Nr =   23 ; /* No. levels in the vertical   */
(PID.TID 0000.0001)       nX =   20 ; /* Total domain size in X ( = nPx*nSx*sNx ) */
(PID.TID 0000.0001)       nY =   16 ; /* Total domain size in Y ( = nPy*nSy*sNy ) */
(PID.TID 0000.0001)   nTiles =    1 ; /* Total no. tiles per process ( = nSx*nSy ) */
(PID.TID 0000.0001)   nProcs =    1 ; /* Total no. processes ( = nPx*nPy ) */
(PID.TID 0000.0001) nThreads =    1 ; /* Total no. threads per process ( = nTx*nTy ) */
(PID.TID 0000.0001) usingMPI =    F ; /* Flag used to control whether MPI is in use */
(PID.TID 0000.0001)                   /*  note: To execute a program with MPI calls */
(PID.TID 0000.0001)                   /*  it must be launched appropriately e.g     */
(PID.TID 0000.0001)                   /*  "mpirun -np 64 ......"                    */
(PID.TID 0000.0001) 
(PID.TID 0000.0001) // ======================================================
(PID.TID 0000.0001) // Mapping of tiles to threads
(PID.TID 0000.0001) // ======================================================
(PID.TID 0000.0001) // -o- Thread   1, tiles (   1:   1,   1:   1)
(PID.TID 0000.0001) 
(PID.TID 0000.0001) // ======================================================
(PID.TID 0000.0001) // Tile <-> Tile connectvity table
(PID.TID 0000.0001) // ======================================================
(PID.TID 0000.0001) // Tile number: 000001 (process no. = 000001)
(PID.TID 0000.0001) //        WEST: Tile = 000001, Process = 000001, Comm = put
(PID.TID 0000.0001) //                bi = 000001, bj = 000001
(PID.TID 0000.0001) //        EAST: Tile = 000001, Process = 000001, Comm = put
(PID.TID 0000.0001) //                bi = 000001, bj = 000001
(PID.TID 0000.0001) //       SOUTH: Tile = 000001, Process = 000001, Comm = put
(PID.TID 0000.0001) //                bi = 000001, bj = 000001
(PID.TID 0000.0001) //       NORTH: Tile = 000001, Process = 000001, Comm = put
(PID.TID 0000.0001) //                bi = 000001, bj = 000001
(PID.TID 0000.0001) 
(PID.TID 0000.0001) // =======================================================
(PID.TID 0000.0001) // Model parameter file "data"
(PID.TID 0000.0001) // =======================================================
(PID.TID 0000.0001) >#
(PID.TID 0000.0001) ># ******************************
(PID.TID 0000.0001) ># Model parameters
(PID.TID 0000.0001) ># Continuous equation parameters
(PID.TID 0000.0001) ># ******************************
(PID.TID 0000.0001) > &PARM01
(PID.TID 0000.0001) > tRef= 24.0 , 23.0 , 22.0 , 21.0 , 20.0 ,
(PID.TID 0000.0001) >       19.0 , 18.0 , 17.0 , 16.0 , 15.0 ,
(PID.TID 0000.0001) >       14.0 , 13.0 , 12.0 , 11.0 , 10.0 ,
(PID.TID 0000.0001) >        9.0 ,  8.0 ,  7.0 ,  6.0,   5.0 ,
(PID.TID 0000.0001) >        4.0 ,  3.0 ,  2.0 ,
(PID.TID 0000.0001) > sRef= 34.65, 34.75, 34.82, 34.87, 34.90,
(PID.TID 0000.0001) >       34.90, 34.86, 34.78, 34.69, 34.60,
(PID.TID 0000.0001) >       34.58, 34.62, 34.68, 34.72, 34.73,
(PID.TID 0000.0001) >       34.74, 34.73, 34.73, 34.72, 34.72,
(PID.TID 0000.0001) >       34.71, 34.70, 34.69,
(PID.TID 0000.0001) > no_slip_sides=.FALSE.,
(PID.TID 0000.0001) > no_slip_bottom=.TRUE.,
(PID.TID 0000.0001) > viscAz=1.E-3,
(PID.TID 0000.0001) > viscAh=5.E4,
(PID.TID 0000.0001) > diffKhT=1.E3,
(PID.TID 0000.0001) > diffKzT=1.E-5,
(PID.TID 0000.0001) > diffKhS=1.E3,
(PID.TID 0000.0001) > diffKzS=1.E-5,
(PID.TID 0000.0001) > beta=1.E-11,
(PID.TID 0000.0001) > tAlpha=2.E-4,
(PID.TID 0000.0001) > sBeta =7.4E-4,
(PID.TID 0000.0001) > gravity=9.81,
(PID.TID 0000.0001) > gBaro=9.81,
(PID.TID 0000.0001) > rigidLid=.FALSE.,
(PID.TID 0000.0001) > implicitFreeSurface=.TRUE.,
(PID.TID 0000.0001) > eosType='POLY3',
(PID.TID 0000.0001) > readBinaryPrec=64,
(PID.TID 0000.0001) > writeBinaryPrec=64,
(PID.TID 0000.0001) > saltStepping=.TRUE.,
(PID.TID 0000.0001) > tempStepping=.TRUE.,
(PID.TID 0000.0001) > momStepping=.TRUE.,
(PID.TID 0000.0001) ># the following is c27
(PID.TID 0000.0001) > implicitDiffusion=.TRUE.,
(PID.TID 0000.0001) > implicitViscosity=.TRUE.,
(PID.TID 0000.0001) > &
(PID.TID 0000.0001) >
(PID.TID 0000.0001) ># **************************
(PID.TID 0000.0001) ># Elliptic solver parameters
(PID.TID 0000.0001) ># **************************
(PID.TID 0000.0001) > &PARM02
(PID.TID 0000.0001) > cg2dMaxIters=1000,
(PID.TID 0000.0001) > cg2dTargetResidual=1.E-13,
(PID.TID 0000.0001) > &
(PID.TID 0000.0001) >
(PID.TID 0000.0001) ># ************************
(PID.TID 0000.0001) ># Time stepping parameters
(PID.TID 0000.0001) ># ************************
(PID.TID 0000.0001) > &PARM03
(PID.TID 0000.0001) > tauCD=172800.,
(PID.TID 0000.0001) > startTime=0.0,
(PID.TID 0000.0001) > nTimeSteps=4,
(PID.TID 0000.0001) > deltaTmom=3600.0,
(PID.TID 0000.0001) > deltaTtracer=3600.0,
(PID.TID 0000.0001) > deltaTClock =3600.0,
(PID.TID 0000.0001) > cAdjFreq=0.,
(PID.TID 0000.0001) > abEps=0.1,
(PID.TID 0000.0001) > pChkptFreq=15552000.0,
(PID.TID 0000.0001) > chkptFreq=15552000.0,
(PID.TID 0000.0001) > dumpFreq =86400.0,
(PID.TID 0000.0001) > tauThetaClimRelax=0.,
(PID.TID 0000.0001) > tauSaltClimRelax=0.,
(PID.TID 0000.0001) > &
(PID.TID 0000.0001) >
(PID.TID 0000.0001) ># *******************
(PID.TID 0000.0001) ># Gridding parameters
(PID.TID 0000.0001) ># *******************
(PID.TID 0000.0001) > &PARM04
(PID.TID 0000.0001) > usingCartesianGrid=.FALSE.,
(PID.TID 0000.0001) > usingSphericalPolarGrid=.TRUE.,
(PID.TID 0000.0001) > delX=20*2.E0,
(PID.TID 0000.0001) > delY=16*2.E0,
(PID.TID 0000.0001) > delZ=10.,10.,15.,20.,20.,25.,35.,50.,75.,100.,150.,200.,275.,350.,415.,450.,500.,500.,500.,500.,500.,500.,500.,
(PID.TID 0000.0001) > phimin=10.,
(PID.TID 0000.0001) > thetamin=-42.,
(PID.TID 0000.0001) > &
(PID.TID 0000.0001) ># **********
(PID.TID 0000.0001) ># Data Files
(PID.TID 0000.0001) ># **********
(PID.TID 0000.0001) > &PARM05
(PID.TID 0000.0001) > bathyFile='Bathy_subAtl',
(PID.TID 0000.0001) > hydrogThetaFile='PH_LevCli.ptmp__020_016_23',
(PID.TID 0000.0001) > hydrogSaltFile='PH_LevCli.salt__020_016_23',
(PID.TID 0000.0001) > &
(PID.TID 0000.0001) >
(PID.TID 0000.0001) ># Open boundaries
(PID.TID 0000.0001) > &PARM06
(PID.TID 0000.0001) > &
(PID.TID 0000.0001) >
(PID.TID 0000.0001) ># KPP Mixing scheme
(PID.TID 0000.0001) > &PARM07
(PID.TID 0000.0001) > &
(PID.TID 0000.0001) 
(PID.TID 0000.0001) S/R INI_PARMS ; read PARM01 : OK
(PID.TID 0000.0001) S/R INI_PARMS ; read PARM02 : OK
(PID.TID 0000.0001) S/R INI_PARMS ; read PARM03 : OK
(PID.TID 0000.0001) S/R INI_PARMS ; read PARM04 : OK
(PID.TID 0000.0001) S/R INI_PARMS ; read PARM05 : OK
(PID.TID 0000.0001) %MON XC_max                       =  -3.0000000000000E+00
(PID.TID 0000.0001) %MON XC_min                       =  -4.1000000000000E+01
(PID.TID 0000.0001) %MON XC_mean                      =  -2.2000000000000E+01
(PID.TID 0000.0001) %MON XC_sd                        =   1.1532562594671E+01
(PID.TID 0000.0001) %MON XG_max                       =  -4.0000000000000E+00
(PID.TID 0000.0001) %MON XG_min                       =  -4.2000000000000E+01
(PID.TID 0000.0001) %MON XG_mean                      =  -2.3000000000000E+01
(PID.TID 0000.0001) %MON XG_sd                        =   1.1532562594671E+01
(PID.TID 0000.0001) %MON DXC_max                      =   2.1826966005878E+05
(PID.TID 0000.0001) %MON DXC_min                      =   1.6781340848749E+05
(PID.TID 0000.0001) %MON DXC_mean                     =   1.9727395728441E+05
(PID.TID 0000.0001) %MON DXC_sd                       =   1.5731168072696E+04
(PID.TID 0000.0001) %MON DXF_max                      =   2.1826966005878E+05
(PID.TID 0000.0001) %MON DXF_min                      =   1.6781340848749E+05
(PID.TID 0000.0001) %MON DXF_mean                     =   1.9727395728441E+05
(PID.TID 0000.0001) %MON DXF_sd                       =   1.5731168072696E+04
(PID.TID 0000.0001) %MON DXG_max                      =   2.1897687543479E+05
(PID.TID 0000.0001) %MON DXG_min                      =   1.7033377132268E+05
(PID.TID 0000.0001) %MON DXG_mean                     =   1.9892312861058E+05
(PID.TID 0000.0001) %MON DXG_sd                       =   1.5180938630473E+04
(PID.TID 0000.0001) %MON DXV_max                      =   2.1897687543479E+05
(PID.TID 0000.0001) %MON DXV_min                      =   1.7033377132268E+05
(PID.TID 0000.0001) %MON DXV_mean                     =   1.9892312861058E+05
(PID.TID 0000.0001) %MON DXV_sd                       =   1.5180938630473E+04
(PID.TID 0000.0001) %MON YC_max                       =   4.1000000000000E+01
(PID.TID 0000.0001) %MON YC_min                       =   1.1000000000000E+01
(PID.TID 0000.0001) %MON YC_mean                      =   2.6000000000000E+01
(PID.TID 0000.0001) %MON YC_sd                        =   9.2195444572929E+00
(PID.TID 0000.0001) %MON YG_max                       =   4.0000000000000E+01
(PID.TID 0000.0001) %MON YG_min                       =   1.0000000000000E+01
(PID.TID 0000.0001) %MON YG_mean                      =   2.5000000000000E+01
(PID.TID 0000.0001) %MON YG_sd                        =   9.2195444572929E+00
(PID.TID 0000.0001) %MON DYC_max                      =   2.2235494670408E+05
(PID.TID 0000.0001) %MON DYC_min                      =   2.2235494670408E+05
(PID.TID 0000.0001) %MON DYC_mean                     =   2.2235494670408E+05
(PID.TID 0000.0001) %MON DYC_sd                       =   1.1641532182693E-09
(PID.TID 0000.0001) %MON DYF_max                      =   2.2235494670408E+05
(PID.TID 0000.0001) %MON DYF_min                      =   2.2235494670408E+05
(PID.TID 0000.0001) %MON DYF_mean                     =   2.2235494670408E+05
(PID.TID 0000.0001) %MON DYF_sd                       =   1.1641532182693E-09
(PID.TID 0000.0001) %MON DYG_max                      =   2.2235494670408E+05
(PID.TID 0000.0001) %MON DYG_min                      =   2.2235494670408E+05
(PID.TID 0000.0001) %MON DYG_mean                     =   2.2235494670408E+05
(PID.TID 0000.0001) %MON DYG_sd                       =   1.1641532182693E-09
(PID.TID 0000.0001) %MON DYU_max                      =   2.2235494670408E+05
(PID.TID 0000.0001) %MON DYU_min                      =   2.2235494670408E+05
(PID.TID 0000.0001) %MON DYU_mean                     =   2.2235494670408E+05
(PID.TID 0000.0001) %MON DYU_sd                       =   1.1641532182693E-09
(PID.TID 0000.0001) %MON RA_max                       =   4.8530874650285E+10
(PID.TID 0000.0001) %MON RA_min                       =   3.7312247106402E+10
(PID.TID 0000.0001) %MON RA_mean                      =   4.3862613292919E+10
(PID.TID 0000.0001) %MON RA_sd                        =   3.4977254540690E+09
(PID.TID 0000.0001) %MON RAW_max                      =   4.8530874650285E+10
(PID.TID 0000.0001) %MON RAW_min                      =   3.7312247106402E+10
(PID.TID 0000.0001) %MON RAW_mean                     =   4.3862613292919E+10
(PID.TID 0000.0001) %MON RAW_sd                       =   3.4977254540690E+09
(PID.TID 0000.0001) %MON RAS_max                      =   4.8688119503989E+10
(PID.TID 0000.0001) %MON RAS_min                      =   3.7872633798691E+10
(PID.TID 0000.0001) %MON RAS_mean                     =   4.4229296078267E+10
(PID.TID 0000.0001) %MON RAS_sd                       =   3.3753854271397E+09
(PID.TID 0000.0001) %MON RAZ_max                      =   4.8688119503989E+10
(PID.TID 0000.0001) %MON RAZ_min                      =   3.7872633798691E+10
(PID.TID 0000.0001) %MON RAZ_mean                     =   4.4229296078267E+10
(PID.TID 0000.0001) %MON RAZ_sd                       =   3.3753854271397E+09
(PID.TID 0000.0001)  MDSREADFIELD: opening global file: Bathy_subAtl.data
(PID.TID 0000.0001) // =======================================================
(PID.TID 0000.0001) // Field Model R_low (ini_masks_etc) at iteration          1
(PID.TID 0000.0001) // CMIN =         -5.200000000000000E+03
(PID.TID 0000.0001) // CMAX =         -3.600000000000000E+02
(PID.TID 0000.0001) // CINT =          1.792592592592593E+02
(PID.TID 0000.0001) // SYMBOLS (CMIN->CMAX): -abcdefghijklmnopqrstuvwxyz+
(PID.TID 0000.0001) //                  0.0: .
(PID.TID 0000.0001) // RANGE I (Lo:Hi:Step):(  -3:  24:   1)
(PID.TID 0000.0001) // RANGE J (Lo:Hi:Step):(  20:  -3:  -1)
(PID.TID 0000.0001) // RANGE K (Lo:Hi:Step):(   1:   1:   1)
(PID.TID 0000.0001) // =======================================================
(PID.TID 0000.0001) K =   1
(PID.TID 0000.0001) //                I=6       I=16
(PID.TID 0000.0001) // |--J--|***012345|789012345|78901234
(PID.TID 0000.0001) //     20 .....cc-----cfkhkz.......cc-
(PID.TID 0000.0001) //     19 .....c-------cccfy.......c--
(PID.TID 0000.0001) //     18 .....hcc------ccfx.......hcc
(PID.TID 0000.0001) //     17 ............................
(PID.TID 0000.0001) //     16 ............................
(PID.TID 0000.0001) //     15 hv+..fhknsqknnff-ckhhv+..fhk
(PID.TID 0000.0001) //     14 fhx..hknnnnkhcc-chhhfhx..hkn
(PID.TID 0000.0001) //     13 fz...knnkhknf--chkfffz...knn
(PID.TID 0000.0001) //     12 q....nkhfffhc--cffhnq....nkh
(PID.TID 0000.0001) //     11 +....khfccccc-ccfkkv+....khf
(PID.TID 0000.0001) //     10 .....hcc---cc-cfhks......hcc
(PID.TID 0000.0001) //      9 .....fc-------cfkq.......fc-
(PID.TID 0000.0001) //      8 .....c-------ccfkx.......c--
(PID.TID 0000.0001) //      7 .....c---cfcccfhk+.......c--
(PID.TID 0000.0001) //      6 .....c---cccffhknv.......c--
(PID.TID 0000.0001) //      5 .....c--ccccfkkkkq.......c--
(PID.TID 0000.0001) //      4 .....cc-----cfkhkz.......cc-
(PID.TID 0000.0001) //      3 .....c-------cccfy.......c--
(PID.TID 0000.0001) //      2 .....hcc------ccfx.......hcc
(PID.TID 0000.0001) //      1 ............................
(PID.TID 0000.0001) //      0 ............................
(PID.TID 0000.0001) //     -1 hv+..fhknsqknnff-ckhhv+..fhk
(PID.TID 0000.0001) //     -2 fhx..hknnnnkhcc-chhhfhx..hkn
(PID.TID 0000.0001) //     -3 fz...knnkhknf--chkfffz...knn
(PID.TID 0000.0001) // =======================================================
(PID.TID 0000.0001) // END OF FIELD                                          =
(PID.TID 0000.0001) // =======================================================
(PID.TID 0000.0001) 
(PID.TID 0000.0001) // =======================================================
(PID.TID 0000.0001) // Field Model Ro_surf (ini_masks_etc) at iteration          1
(PID.TID 0000.0001) // CMIN =          1.000000000000000E+32
(PID.TID 0000.0001) // CMAX =         -1.000000000000000E+32
(PID.TID 0000.0001) // CINT =          0.000000000000000E+00
(PID.TID 0000.0001) // SYMBOLS (CMIN->CMAX): -abcdefghijklmnopqrstuvwxyz+
(PID.TID 0000.0001) //                  0.0: .
(PID.TID 0000.0001) // RANGE I (Lo:Hi:Step):(  -3:  24:   1)
(PID.TID 0000.0001) // RANGE J (Lo:Hi:Step):(  20:  -3:  -1)
(PID.TID 0000.0001) // RANGE K (Lo:Hi:Step):(   1:   1:   1)
(PID.TID 0000.0001) // =======================================================
(PID.TID 0000.0001) K =   1
(PID.TID 0000.0001) //                I=6       I=16
(PID.TID 0000.0001) // |--J--|***012345|789012345|78901234
(PID.TID 0000.0001) //     20 ............................
(PID.TID 0000.0001) //     19 ............................
(PID.TID 0000.0001) //     18 ............................
(PID.TID 0000.0001) //     17 ............................
(PID.TID 0000.0001) //     16 ............................
(PID.TID 0000.0001) //     15 ............................
(PID.TID 0000.0001) //     14 ............................
(PID.TID 0000.0001) //     13 ............................
(PID.TID 0000.0001) //     12 ............................
(PID.TID 0000.0001) //     11 ............................
(PID.TID 0000.0001) //     10 ............................
(PID.TID 0000.0001) //      9 ............................
(PID.TID 0000.0001) //      8 ............................
(PID.TID 0000.0001) //      7 ............................
(PID.TID 0000.0001) //      6 ............................
(PID.TID 0000.0001) //      5 ............................
(PID.TID 0000.0001) //      4 ............................
(PID.TID 0000.0001) //      3 ............................
(PID.TID 0000.0001) //      2 ............................
(PID.TID 0000.0001) //      1 ............................
(PID.TID 0000.0001) //      0 ............................
(PID.TID 0000.0001) //     -1 ............................
(PID.TID 0000.0001) //     -2 ............................
(PID.TID 0000.0001) //     -3 ............................
(PID.TID 0000.0001) // =======================================================
(PID.TID 0000.0001) // END OF FIELD                                          =
(PID.TID 0000.0001) // =======================================================
(PID.TID 0000.0001) 
(PID.TID 0000.0001) // =======================================================
(PID.TID 0000.0001) // Field hFacC at iteration          1
(PID.TID 0000.0001) // CMIN =          1.000000000000000E+00
(PID.TID 0000.0001) // CMAX =          1.000000000000000E+00
(PID.TID 0000.0001) // CINT =          0.000000000000000E+00
(PID.TID 0000.0001) // SYMBOLS (CMIN->CMAX): -abcdefghijklmnopqrstuvwxyz+
(PID.TID 0000.0001) //                  0.0: .
(PID.TID 0000.0001) // RANGE I (Lo:Hi:Step):(  -3:  24:   1)
(PID.TID 0000.0001) // RANGE J (Lo:Hi:Step):(  20:  -3:  -1)
(PID.TID 0000.0001) // RANGE K (Lo:Hi:Step):(   1:   1:   1)
(PID.TID 0000.0001) // =======================================================
(PID.TID 0000.0001) K =   1
(PID.TID 0000.0001) //                I=6       I=16
(PID.TID 0000.0001) // |--J--|***012345|789012345|78901234
(PID.TID 0000.0001) //     20 .....-------------.......---
(PID.TID 0000.0001) //     19 .....-------------.......---
(PID.TID 0000.0001) //     18 .....-------------.......---
(PID.TID 0000.0001) //     17 ............................
(PID.TID 0000.0001) //     16 ............................
(PID.TID 0000.0001) //     15 ---..------------------..---
(PID.TID 0000.0001) //     14 ---..------------------..---
(PID.TID 0000.0001) //     13 --...-----------------...---
(PID.TID 0000.0001) //     12 -....----------------....---
(PID.TID 0000.0001) //     11 -....----------------....---
(PID.TID 0000.0001) //     10 .....--------------......---
(PID.TID 0000.0001) //      9 .....-------------.......---
(PID.TID 0000.0001) //      8 .....-------------.......---
(PID.TID 0000.0001) //      7 .....-------------.......---
(PID.TID 0000.0001) //      6 .....-------------.......---
(PID.TID 0000.0001) //      5 .....-------------.......---
(PID.TID 0000.0001) //      4 .....-------------.......---
(PID.TID 0000.0001) //      3 .....-------------.......---
(PID.TID 0000.0001) //      2 .....-------------.......---
(PID.TID 0000.0001) //      1 ............................
(PID.TID 0000.0001) //      0 ............................
(PID.TID 0000.0001) //     -1 ---..------------------..---
(PID.TID 0000.0001) //     -2 ---..------------------..---
(PID.TID 0000.0001) //     -3 --...-----------------...---
(PID.TID 0000.0001) // =======================================================
(PID.TID 0000.0001) // END OF FIELD                                          =
(PID.TID 0000.0001) // =======================================================
(PID.TID 0000.0001) 
(PID.TID 0000.0001) // =======================================================
(PID.TID 0000.0001) // Field hFacW at iteration          1
(PID.TID 0000.0001) // CMIN =          1.000000000000000E+00
(PID.TID 0000.0001) // CMAX =          1.000000000000000E+00
(PID.TID 0000.0001) // CINT =          0.000000000000000E+00
(PID.TID 0000.0001) // SYMBOLS (CMIN->CMAX): -abcdefghijklmnopqrstuvwxyz+
(PID.TID 0000.0001) //                  0.0: .
(PID.TID 0000.0001) // RANGE I (Lo:Hi:Step):(  -3:  24:   1)
(PID.TID 0000.0001) // RANGE J (Lo:Hi:Step):(  20:  -3:  -1)
(PID.TID 0000.0001) // RANGE K (Lo:Hi:Step):(   1:   1:   1)
(PID.TID 0000.0001) // =======================================================
(PID.TID 0000.0001) K =   1
(PID.TID 0000.0001) //                I=6       I=16
(PID.TID 0000.0001) // |--J--|***012345|789012345|78901234
(PID.TID 0000.0001) //     20 ......------------........--
(PID.TID 0000.0001) //     19 ......------------........--
(PID.TID 0000.0001) //     18 ......------------........--
(PID.TID 0000.0001) //     17 ............................
(PID.TID 0000.0001) //     16 ............................
(PID.TID 0000.0001) //     15 ---...-----------------...--
(PID.TID 0000.0001) //     14 ---...-----------------...--
(PID.TID 0000.0001) //     13 --....----------------....--
(PID.TID 0000.0001) //     12 -.....---------------.....--
(PID.TID 0000.0001) //     11 -.....---------------.....--
(PID.TID 0000.0001) //     10 ......-------------.......--
(PID.TID 0000.0001) //      9 ......------------........--
(PID.TID 0000.0001) //      8 ......------------........--
(PID.TID 0000.0001) //      7 ......------------........--
(PID.TID 0000.0001) //      6 ......------------........--
(PID.TID 0000.0001) //      5 ......------------........--
(PID.TID 0000.0001) //      4 ......------------........--
(PID.TID 0000.0001) //      3 ......------------........--
(PID.TID 0000.0001) //      2 ......------------........--
(PID.TID 0000.0001) //      1 ............................
(PID.TID 0000.0001) //      0 ............................
(PID.TID 0000.0001) //     -1 ---...-----------------...--
(PID.TID 0000.0001) //     -2 ---...-----------------...--
(PID.TID 0000.0001) //     -3 --....----------------....--
(PID.TID 0000.0001) // =======================================================
(PID.TID 0000.0001) // END OF FIELD                                          =
(PID.TID 0000.0001) // =======================================================
(PID.TID 0000.0001) 
(PID.TID 0000.0001) // =======================================================
(PID.TID 0000.0001) // Field hFacS at iteration          1
(PID.TID 0000.0001) // CMIN =          1.000000000000000E+00
(PID.TID 0000.0001) // CMAX =          1.000000000000000E+00
(PID.TID 0000.0001) // CINT =          0.000000000000000E+00
(PID.TID 0000.0001) // SYMBOLS (CMIN->CMAX): -abcdefghijklmnopqrstuvwxyz+
(PID.TID 0000.0001) //                  0.0: .
(PID.TID 0000.0001) // RANGE I (Lo:Hi:Step):(  -3:  24:   1)
(PID.TID 0000.0001) // RANGE J (Lo:Hi:Step):(  20:  -3:  -1)
(PID.TID 0000.0001) // RANGE K (Lo:Hi:Step):(   1:   1:   1)
(PID.TID 0000.0001) // =======================================================
(PID.TID 0000.0001) K =   1
(PID.TID 0000.0001) //                I=6       I=16
(PID.TID 0000.0001) // |--J--|***012345|789012345|78901234
(PID.TID 0000.0001) //     20 .....-------------.......---
(PID.TID 0000.0001) //     19 .....-------------.......---
(PID.TID 0000.0001) //     18 ............................
(PID.TID 0000.0001) //     17 ............................
(PID.TID 0000.0001) //     16 ............................
(PID.TID 0000.0001) //     15 ---..------------------..---
(PID.TID 0000.0001) //     14 --...-----------------...---
(PID.TID 0000.0001) //     13 -....----------------....---
(PID.TID 0000.0001) //     12 -....----------------....---
(PID.TID 0000.0001) //     11 .....--------------......---
(PID.TID 0000.0001) //     10 .....-------------.......---
(PID.TID 0000.0001) //      9 .....-------------.......---
(PID.TID 0000.0001) //      8 .....-------------.......---
(PID.TID 0000.0001) //      7 .....-------------.......---
(PID.TID 0000.0001) //      6 .....-------------.......---
(PID.TID 0000.0001) //      5 .....-------------.......---
(PID.TID 0000.0001) //      4 .....-------------.......---
(PID.TID 0000.0001) //      3 .....-------------.......---
(PID.TID 0000.0001) //      2 ............................
(PID.TID 0000.0001) //      1 ............................
(PID.TID 0000.0001) //      0 ............................
(PID.TID 0000.0001) //     -1 ---..------------------..---
(PID.TID 0000.0001) //     -2 --...-----------------...---
(PID.TID 0000.0001) //     -3 -....----------------....---
(PID.TID 0000.0001) // =======================================================
(PID.TID 0000.0001) // END OF FIELD                                          =
(PID.TID 0000.0001) // =======================================================
(PID.TID 0000.0001) 
(PID.TID 0000.0001) %MON fCori_max                    =   9.5419917861011E-05
(PID.TID 0000.0001) %MON fCori_min                    =   2.7752043431195E-05
(PID.TID 0000.0001) %MON fCori_mean                   =   6.2936249243167E-05
(PID.TID 0000.0001) %MON fCori_sd                     =   2.0885809702547E-05
(PID.TID 0000.0001) %MON fCoriG_max                   =   9.3489668167119E-05
(PID.TID 0000.0001) %MON fCoriG_min                   =   2.5256103669800E-05
(PID.TID 0000.0001) %MON fCoriG_mean                  =   6.0674632558389E-05
(PID.TID 0000.0001) %MON fCoriG_sd                    =   2.1059305790472E-05
(PID.TID 0000.0001)  PACKAGES_BOOT: opening data.pkg
(PID.TID 0000.0001)  OPEN_COPY_DATA_FILE: opening file data.pkg
(PID.TID 0000.0001) // =======================================================
(PID.TID 0000.0001) // Parameter file "data.pkg"
(PID.TID 0000.0001) // =======================================================
(PID.TID 0000.0001) >#
(PID.TID 0000.0001) ># ********
(PID.TID 0000.0001) ># Packages
(PID.TID 0000.0001) ># ********
(PID.TID 0000.0001) > &PACKAGES
(PID.TID 0000.0001) > useGMRedi    = .TRUE.,
(PID.TID 0000.0001) > useKPP       = .TRUE.,
(PID.TID 0000.0001) > useECCO      = .TRUE.,
(PID.TID 0000.0001) > useGrdchk    = .TRUE.,
(PID.TID 0000.0001) > &
(PID.TID 0000.0001) 
(PID.TID 0000.0001)  PACKAGES_BOOT: finished reading data.pkg
(PID.TID 0000.0001)  GM_READPARMS: opening data.gmredi
(PID.TID 0000.0001)  OPEN_COPY_DATA_FILE: opening file data.gmredi
(PID.TID 0000.0001) // =======================================================
(PID.TID 0000.0001) // Parameter file "data.gmredi"
(PID.TID 0000.0001) // =======================================================
(PID.TID 0000.0001) ># GM-Redi parameters
(PID.TID 0000.0001) > &GM_PARM01
(PID.TID 0000.0001) > GM_background_K=1000.d0,
(PID.TID 0000.0001) > GM_taper_scheme='ldd97',
(PID.TID 0000.0001) > GM_maxSlope=1.000000000000000E-02
(PID.TID 0000.0001) ># GM_Scrit,
(PID.TID 0000.0001) ># GM_Sd
(PID.TID 0000.0001) > &
(PID.TID 0000.0001) >
(PID.TID 0000.0001) 
(PID.TID 0000.0001)  GM_READPARMS: finished reading data.gmredi
(PID.TID 0000.0001)  KPP_INIT: opening data.kpp
(PID.TID 0000.0001)  OPEN_COPY_DATA_FILE: opening file data.kpp
(PID.TID 0000.0001) // =======================================================
(PID.TID 0000.0001) // Parameter file "data.kpp"
(PID.TID 0000.0001) // =======================================================
(PID.TID 0000.0001) >
(PID.TID 0000.0001) >#
(PID.TID 0000.0001) ># ***************
(PID.TID 0000.0001) ># Open boundaries
(PID.TID 0000.0001) ># ***************
(PID.TID 0000.0001) > &KPP_PARM01
(PID.TID 0000.0001) > &
(PID.TID 0000.0001) 
(PID.TID 0000.0001)  KPP_INIT: finished reading data.kpp
(PID.TID 0000.0001) 
(PID.TID 0000.0001) // =======================================================
(PID.TID 0000.0001) // Gradient check configuration  >>> START <<<
(PID.TID 0000.0001) // =======================================================
(PID.TID 0000.0001) 
(PID.TID 0000.0001)   eps:                              0.100E-03
(PID.TID 0000.0001)   First location:                           1
(PID.TID 0000.0001)   Last location:                            2
(PID.TID 0000.0001)   Increment:                                1
(PID.TID 0000.0001) 
(PID.TID 0000.0001) // =======================================================
(PID.TID 0000.0001) // Gradient check configuration  >>> END <<<
(PID.TID 0000.0001) // =======================================================
(PID.TID 0000.0001) 
(PID.TID 0000.0001) 
(PID.TID 0000.0001) // =======================================================
(PID.TID 0000.0001) // Calendar configuration >>> START <<<
(PID.TID 0000.0001) // =======================================================
(PID.TID 0000.0001) 
(PID.TID 0000.0001) Calendar version: 0.2.0
(PID.TID 0000.0001) 
(PID.TID 0000.0001) startTime =   /* Start time of the model integration [s] */
(PID.TID 0000.0001)                 0.000000000000000E+00
(PID.TID 0000.0001)     ;
(PID.TID 0000.0001) endTime =   /* End time of the model integration [s] */
(PID.TID 0000.0001)                 1.440000000000000E+04
(PID.TID 0000.0001)     ;
(PID.TID 0000.0001) deltatclock =   /* Time interval for a model forward step [s] */
(PID.TID 0000.0001)                 3.600000000000000E+03
(PID.TID 0000.0001)     ;
(PID.TID 0000.0001) usingGregorianCalendar =  /* Calendar Type: Gregorian Calendar */
(PID.TID 0000.0001)                   T
(PID.TID 0000.0001)     ;
(PID.TID 0000.0001) usingJulianCalendar =  /* Calendar Type: Julian Calendar */
(PID.TID 0000.0001)                   F
(PID.TID 0000.0001)     ;
(PID.TID 0000.0001) usingModelCalendar =  /* Calendar Type: Model Calendar */
(PID.TID 0000.0001)                   F
(PID.TID 0000.0001)     ;
(PID.TID 0000.0001) usingNoCalendar =  /* Calendar Type: No Calendar */
(PID.TID 0000.0001)                   F
(PID.TID 0000.0001)     ;
(PID.TID 0000.0001) modelstartdate (YYYYMMDD) =   /* Model start date YYYY-MM-DD  */
(PID.TID 0000.0001)                19920102
(PID.TID 0000.0001)     ;
(PID.TID 0000.0001) modelstartdate (HHMMSS) =   /* Model start date HH-MM-SS  */
(PID.TID 0000.0001)                  220000
(PID.TID 0000.0001)     ;
(PID.TID 0000.0001) modelenddate (YYYYMMDD) =   /* Model end date YYYY-MM-DD  */
(PID.TID 0000.0001)                19920103
(PID.TID 0000.0001)     ;
(PID.TID 0000.0001) modelenddate (HHMMSS) =   /* Model end date HH-MM-SS  */
(PID.TID 0000.0001)                   20000
(PID.TID 0000.0001)     ;
(PID.TID 0000.0001) intyears =   /* Number of calendar years affected by the integration  */
(PID.TID 0000.0001)                       1
(PID.TID 0000.0001)     ;
(PID.TID 0000.0001) intmonths =   /* Number of calendar months affected by the integration  */
(PID.TID 0000.0001)                       1
(PID.TID 0000.0001)     ;
(PID.TID 0000.0001) intdays =   /* Number of calendar days affected by the integration  */
(PID.TID 0000.0001)                       2
(PID.TID 0000.0001)     ;
(PID.TID 0000.0001) nIter0 =   /* Base timestep number  */
(PID.TID 0000.0001)                       0
(PID.TID 0000.0001)     ;
(PID.TID 0000.0001) nEndIter =   /* Final timestep number  */
(PID.TID 0000.0001)                       4
(PID.TID 0000.0001)     ;
(PID.TID 0000.0001) nTimeSteps =   /* Number of model timesteps  */
(PID.TID 0000.0001)                       4
(PID.TID 0000.0001)     ;
(PID.TID 0000.0001) 
(PID.TID 0000.0001) // =======================================================
(PID.TID 0000.0001) // Calendar configuration  >>> END <<<
(PID.TID 0000.0001) // =======================================================
(PID.TID 0000.0001) 
(PID.TID 0000.0001) 
(PID.TID 0000.0001) // =======================================================
(PID.TID 0000.0001) // External forcing configuration >>> START <<<
(PID.TID 0000.0001) // =======================================================
(PID.TID 0000.0001) 
(PID.TID 0000.0001) External forcing version: 0.2.2
(PID.TID 0000.0001) Uses Calendar version:    0.2.0
(PID.TID 0000.0001) 
(PID.TID 0000.0001) // ALLOW_ATM_TEMP:                 NOT defined
(PID.TID 0000.0001) // ALLOW_ATM_WIND:                 NOT defined
(PID.TID 0000.0001) // DOWNWARD_RADIATION:             NOT defined
(PID.TID 0000.0001) // ALLOW_BULKFORMULAE:             NOT defined
(PID.TID 0000.0001) 
(PID.TID 0000.0001)    Zonal wind stress forcing starts at          19920102 000000 THU.
(PID.TID 0000.0001)    Zonal wind stress forcing period is          00000000 120000
(PID.TID 0000.0001)    Zonal wind stress forcing is read from file:
(PID.TID 0000.0001)    >>  PH_ustress__020_016_23  <<
(PID.TID 0000.0001) 
(PID.TID 0000.0001)    Meridional wind stress forcing starts at     19920102 000000 THU.
(PID.TID 0000.0001)    Meridional wind stress forcing period is     00000000 120000
(PID.TID 0000.0001)    Meridional wind stress forcing is read from file:
(PID.TID 0000.0001)    >>  PH_vstress__020_016_23  <<
(PID.TID 0000.0001) 
(PID.TID 0000.0001)    Heat flux forcing starts at                 19920102 030000 THU.
(PID.TID 0000.0001)    Heat flux forcing period is                  00000001 000000
(PID.TID 0000.0001)    Heat flux forcing is read from file:
(PID.TID 0000.0001)    >>  PH_totflsfc__020_016_23  <<
(PID.TID 0000.0001) 
(PID.TID 0000.0001)    Salt flux forcing starts at                  19920102 030000 THU.
(PID.TID 0000.0001)    Salt flux forcing period is                  00000001 000000
(PID.TID 0000.0001)    Salt flux forcing is read from file:
(PID.TID 0000.0001)    >>  PH_pratesfc__020_016_23  <<
(PID.TID 0000.0001) 
(PID.TID 0000.0001)    Net shortwave flux forcing starts at       19920102 030000 THU.
(PID.TID 0000.0001)    Net shortwave flux forcing period is       00000001 000000
(PID.TID 0000.0001)    Net shortwave flux forcing is read from file:
(PID.TID 0000.0001)    >>  PH_swflsfc__020_016_23  <<
(PID.TID 0000.0001) // EXF_READ_EVAP:                  NOT defined
(PID.TID 0000.0001) // ALLOW_RUNOFF:                   NOT defined
(PID.TID 0000.0001) 
(PID.TID 0000.0001) // =======================================================
(PID.TID 0000.0001) // External forcing configuration  >>> END <<<
(PID.TID 0000.0001) // =======================================================
(PID.TID 0000.0001) 
(PID.TID 0000.0001) 
(PID.TID 0000.0001) // =======================================================
(PID.TID 0000.0001) // External forcing climatology configuration >>> START <<<
(PID.TID 0000.0001) // =======================================================
(PID.TID 0000.0001) 
(PID.TID 0000.0001) External forcing version: 0.2.2
(PID.TID 0000.0001) Uses Calendar version:    0.2.0
(PID.TID 0000.0001) 
(PID.TID 0000.0001) // ALLOW_CLIMTEMP_RELAXATION:      NOT defined
(PID.TID 0000.0001) // ALLOW_CLIMSALT_RELAXATION:      NOT defined
(PID.TID 0000.0001) // ALLOW_CLIMSST_RELAXATION:       NOT defined
(PID.TID 0000.0001) // ALLOW_CLIMSSS_RELAXATION:       NOT defined
(PID.TID 0000.0001) 
(PID.TID 0000.0001) // =======================================================
(PID.TID 0000.0001) // External forcing climatology configuration  >>> END <<<
(PID.TID 0000.0001) // =======================================================
(PID.TID 0000.0001) 
(PID.TID 0000.0001)  MDSREADFIELD: opening global file: PH_ssh.err__020_016_23.data
(PID.TID 0000.0001)  MDSREADFIELD: opening global file: PH_ustress.err__020_016_23.data
(PID.TID 0000.0001)  MDSREADFIELD: opening global file: PH_vstress.err__020_016_23.data
(PID.TID 0000.0001)  MDSREADFIELD: opening global file: PH_totflux.err__020_016_23.data
(PID.TID 0000.0001)  MDSREADFIELD: opening global file: PH_pme.err__020_016_23.data
(PID.TID 0000.0001) 
(PID.TID 0000.0001) // =======================================================
(PID.TID 0000.0001) // ECCO cost function configuration  >>> START <<<
(PID.TID 0000.0001) // =======================================================
(PID.TID 0000.0001) 
(PID.TID 0000.0001)   Multipliers for the indivdual cost function contributions:
(PID.TID 0000.0001) 
(PID.TID 0000.0001)   Net heat flux:                 0.100E+01
(PID.TID 0000.0001)   Salt flux:                     0.100E+01
(PID.TID 0000.0001)   Zonal wind stress:             0.100E+01
(PID.TID 0000.0001)   Meridional wind stress:        0.100E+01
(PID.TID 0000.0001)   Mean sea surface height:       0.100E+01
(PID.TID 0000.0001)   Sea surface height anomalies:  0.100E+01
(PID.TID 0000.0001)   Temperature (3d):              0.100E+01
(PID.TID 0000.0001)   Salinity (3d):                 0.100E+01
(PID.TID 0000.0001)   Temperature (3d):              0.000E+00
(PID.TID 0000.0001)   Salinity (3d):                 0.000E+00
(PID.TID 0000.0001)   Sea surface temperature:       0.100E+01
(PID.TID 0000.0001)   Sea surface salinity:         0.000E+00
(PID.TID 0000.0001)   CTD temperature:               0.000E+00
(PID.TID 0000.0001)   CTD salinity:                  0.000E+00
(PID.TID 0000.0001)   XBT Temperature:               0.000E+00
(PID.TID 0000.0001)   ARGO Temperature:               0.000E+00
(PID.TID 0000.0001)   ARGO Salt:                      0.000E+00
(PID.TID 0000.0001)   drifter velocities:            0.000E+00
(PID.TID 0000.0001)   drift between last and 1st year: 0.000E+00
(PID.TID 0000.0001)   drift between last and 1st year: 0.000E+00
(PID.TID 0000.0001) 
(PID.TID 0000.0001) 
(PID.TID 0000.0001)   Temperature data are read from: PH_Lev.ptmp__020_016_23
(PID.TID 0000.0001)   Salinity data are read from:    PH_Lev.salt__020_016_23
(PID.TID 0000.0001) 
(PID.TID 0000.0001)  ctrl_init: Initializing temperature and salinity
(PID.TID 0000.0001)                    part of the control vector.
(PID.TID 0000.0001)                    The initial surface fluxes are set to zero.
(PID.TID 0000.0001) 
 ph-wet 1: nvarlength =         9524
 ph-wet 2: surface wet C =          203
 ph-wet 3: surface wet W =          189
 ph-wet 4: surface wet S =          185
 ph-wet 5: 3D wet points =         3982
 ph-wet 6: no recs for i =            1           1
 ph-wet 6: no recs for i =            2           1
 ph-wet 6: no recs for i =            3           2
 ph-wet 6: no recs for i =            4           2
 ph-wet 6: no recs for i =            5           2
 ph-wet 6: no recs for i =            6           2
 ph-wet 6: no recs for i =            7           0
 ph-wet 6: no recs for i =            8           0
 ph-wet 6: no recs for i =            9           0
 ph-wet 6: no recs for i =           10           0
 ph-wet 6: no recs for i =           11           0
 ph-wet 6: no recs for i =           12           0
 ph-wet 6: no recs for i =           13           0
 ph-wet 6: no recs for i =           14           0
 ph-wet 7:         9524
 ph-wet 8:         7964
 ph-wet 13: global nvarlength vor k=          24        9524
 ctrl_init: no. of control variables:            6
 ctrl_init: control vector length:            9524
(PID.TID 0000.0001) 
(PID.TID 0000.0001) // =======================================================
(PID.TID 0000.0001) // ECCO control vector configuration  >>> START <<<
(PID.TID 0000.0001) // =======================================================
(PID.TID 0000.0001) 
(PID.TID 0000.0001)  Total number of ocean points per tile:
(PID.TID 0000.0001)  --------------------------------------
(PID.TID 0000.0001) 
(PID.TID 0000.0001)  snx*sny*nr =     7360
(PID.TID 0000.0001) 
(PID.TID 0000.0001)  Number of ocean points per tile:
(PID.TID 0000.0001)  --------------------------------
(PID.TID 0000.0001)  bi,bj,#(c/s/w): 0001 0001 003982 003567 003655
(PID.TID 0000.0001) 
(PID.TID 0000.0001)  Initial state temperature contribution:
(PID.TID 0000.0001)  Control variable index:    0101
(PID.TID 0000.0001) 
(PID.TID 0000.0001)  Initial state salinity contribution:
(PID.TID 0000.0001)  Control variable index:    0102
(PID.TID 0000.0001) 
(PID.TID 0000.0001)  Heat flux contribution:
(PID.TID 0000.0001)  Control variable index:    0103
(PID.TID 0000.0001) 
(PID.TID 0000.0001)    Heat flux contribution starts at:            19920102 220000 THU.
(PID.TID 0000.0001)    Heat flux contribution period is:            00000010 000000
(PID.TID 0000.0001)    Heat flux contribution is read from file:
(PID.TID 0000.0001)    >>  xx_hfl  <<
(PID.TID 0000.0001) 
(PID.TID 0000.0001)  Salt flux contribution:
(PID.TID 0000.0001)  Control varibale index:    0104
(PID.TID 0000.0001) 
(PID.TID 0000.0001)    Salt flux contribution starts at:            19920102 220000 THU.
(PID.TID 0000.0001)    Salt flux contribution period is:            00000010 000000
(PID.TID 0000.0001)    Salt flux contribution is read from file:
(PID.TID 0000.0001)    >>  xx_sfl  <<
(PID.TID 0000.0001) 
(PID.TID 0000.0001)  Zonal wind stress contribution:
(PID.TID 0000.0001)  Control variable index:    0105
(PID.TID 0000.0001) 
(PID.TID 0000.0001)    Zonal wind stress contribution starts at:    19920102 220000 THU.
(PID.TID 0000.0001)    Zonal wind stress contribution period is:    00000010 000000
(PID.TID 0000.0001)    Zonal wind stress contribution is read from file:
(PID.TID 0000.0001)    >>  xx_tauu  <<
(PID.TID 0000.0001) 
(PID.TID 0000.0001)  Meridional wind stress contribution:
(PID.TID 0000.0001)  Control variable index:    0106
(PID.TID 0000.0001) 
(PID.TID 0000.0001)    Merid. wind stress contribution starts at:   19920102 220000 THU.
(PID.TID 0000.0001)    Merid. wind stress contribution period is:   00000010 000000
(PID.TID 0000.0001)    Merid. wind stress contribution is read from file:
(PID.TID 0000.0001)    >>  xx_tauv  <<
(PID.TID 0000.0001) 
(PID.TID 0000.0001) // =======================================================
(PID.TID 0000.0001) // ECCO control vector configuration  >>> END <<<
(PID.TID 0000.0001) // =======================================================
(PID.TID 0000.0001) 
(PID.TID 0000.0001) 
(PID.TID 0000.0001) // =======================================================
(PID.TID 0000.0001) // Gradient check configuration  >>> START <<<
(PID.TID 0000.0001) // =======================================================
(PID.TID 0000.0001) 
(PID.TID 0000.0001)   eps:                              0.100E-03
(PID.TID 0000.0001)   First location:                           1
(PID.TID 0000.0001)   Last location:                            2
(PID.TID 0000.0001)   Increment:                                1
(PID.TID 0000.0001) 
(PID.TID 0000.0001) // =======================================================
(PID.TID 0000.0001) // Gradient check configuration  >>> END <<<
(PID.TID 0000.0001) // =======================================================
(PID.TID 0000.0001) 
(PID.TID 0000.0001) 
(PID.TID 0000.0001) // =======================================================
(PID.TID 0000.0001) // ECCO configuration >>> START <<<
(PID.TID 0000.0001) // =======================================================
(PID.TID 0000.0001) 
(PID.TID 0000.0001) ECCO version:              0.1.0
(PID.TID 0000.0001) 
(PID.TID 0000.0001) Packages used:
(PID.TID 0000.0001) Calendar version:          0.1.4
(PID.TID 0000.0001) External Forcing version:  0.1.1
(PID.TID 0000.0001) Adjoint support version:   0.1.0
(PID.TID 0000.0001) Optimization version:      2.1.0
(PID.TID 0000.0001) 
(PID.TID 0000.0001) // ALLOW_ECCO_FORWARD_RUN:         NOT defined
(PID.TID 0000.0001) // ALLOW_ECCO_DIAGNOSTIC_RUN:      NOT defined
(PID.TID 0000.0001) // ALLOW_ADJOINT_RUN:         NOT defined
(PID.TID 0000.0001) // ALLOW_GRADIENT_CHECK:          defined
(PID.TID 0000.0001) // ALLOW_ECCO_OPTIMIZATION:            defined
(PID.TID 0000.0001) // ALLOW_NO_DYNAMICS:                NOT defined
(PID.TID 0000.0001) // ALLOW_YMDS_TREE:                  NOT defined
(PID.TID 0000.0001) // ALLOW_STEPPING_CALL:                  defined
(PID.TID 0000.0001) // ALLOW_NONDIMENSIONAL_CONTROL_IO:      defined
(PID.TID 0000.0001) // ALLOW_EGM96_ERROR_COV:            NOT defined
(PID.TID 0000.0001) // ALLOW_READ_EGM_DATA:              NOT defined
(PID.TID 0000.0001) // ALLOW_SCAT_COST_CONTRIBUTION:                 NOT defined
(PID.TID 0000.0001) // ALLOW_HFLUX_COST_CONTRIBUTION:        defined
(PID.TID 0000.0001) // ALLOW_SFLUX_COST_CONTRIBUTION:        defined
(PID.TID 0000.0001) // ALLOW_USTRESS_COST_CONTRIBUTION:      defined
(PID.TID 0000.0001) // ALLOW_VSTRESS_COST_CONTRIBUTION:      defined
(PID.TID 0000.0001) // ALLOW_THETA_COST_CONTRIBUTION:        defined
(PID.TID 0000.0001) // ALLOW_SST_COST_CONTRIBUTION:          defined
(PID.TID 0000.0001) // ALLOW_SALT_COST_CONTRIBUTION:         defined
(PID.TID 0000.0001) // ALLOW_SSH_COST_CONTRIBUTION:          defined
(PID.TID 0000.0001) // APPLY_HFLUX_COST_CONTRIBUTION:  NOT defined
(PID.TID 0000.0001) // APPLY_SFLUX_COST_CONTRIBUTION:  NOT defined
(PID.TID 0000.0001) // APPLY_USTRESS_COST_CONTRIBUTION: NOT defined
(PID.TID 0000.0001) // APPLY_VSTRESS_COST_CONTRIBUTION: NOT defined
(PID.TID 0000.0001) // APPLY_THETA_COST_CONTRIBUTION:  NOT defined
(PID.TID 0000.0001) // APPLY_SALT_COST_CONTRIBUTION:   NOT defined
(PID.TID 0000.0001) // APPLY_SST_COST_CONTRIBUTION:    NOT defined
(PID.TID 0000.0001) // APPLY_SSH_COST_CONTRIBUTION:    NOT defined
(PID.TID 0000.0001) // ALLOW_SPH_PROJECTION:             NOT defined
(PID.TID 0000.0001) // ALLOW_THETA0_CONTROL:                 defined
(PID.TID 0000.0001) // ALLOW_SALT0_CONTROL:                  defined
(PID.TID 0000.0001) // ALLOW_HFLUX_CONTROL:                  defined
(PID.TID 0000.0001) // ALLOW_SFLUX_CONTROL:                  defined
(PID.TID 0000.0001) // ALLOW_USTRESS_CONTROL:                defined
(PID.TID 0000.0001) // ALLOW_VSTRESS_CONTROL:                defined
(PID.TID 0000.0001) // ALLOW_SWFLUX_CONTROL:             NOT defined
(PID.TID 0000.0001) // ALLOW_LWFLUX_CONTROL:             NOT defined
(PID.TID 0000.0001) // ALLOW_ATEMP_CONTROL:              NOT defined
(PID.TID 0000.0001) // ALLOW_AQH_CONTROL:                NOT defined
(PID.TID 0000.0001) // ALLOW_UWIND_CONTROL:              NOT defined
(PID.TID 0000.0001) // ALLOW_VWIND_CONTROL:              NOT defined
(PID.TID 0000.0001) // ALLOW_PRECIP_CONTROL:             NOT defined
(PID.TID 0000.0001) // ALLOW_AUTODIFF_TAMC:                defined
(PID.TID 0000.0001) // ALLOW_TAMC_CHECKPOINTING:             defined
(PID.TID 0000.0001) 
(PID.TID 0000.0001)  Experiment name:  MIT_CE_000
(PID.TID 0000.0001) 
(PID.TID 0000.0001)  Generation of adjoint code for the ECCO setup is enabled
(PID.TID 0000.0001) 
(PID.TID 0000.0001) // =======================================================
(PID.TID 0000.0001) // ECCO configuration  >>> END <<<
(PID.TID 0000.0001) // =======================================================
(PID.TID 0000.0001) 
(PID.TID 0000.0001) KPP_CHECK: #define ALLOW_KPP
(PID.TID 0000.0001) GMREDI_CHECK: #define GMREDI
(PID.TID 0000.0001) GM_AdvForm =  /* if FALSE => use SkewFlux Form */
(PID.TID 0000.0001)                   F
(PID.TID 0000.0001)     ;
(PID.TID 0000.0001) GM_ExtraDiag =  /* Tensor Extra Diag (line 1&2) non 0 */
(PID.TID 0000.0001)                   F
(PID.TID 0000.0001)     ;
(PID.TID 0000.0001) GM_isopycK =   /* Background Isopyc. Diffusivity ( m^2/s ) */
(PID.TID 0000.0001)                 1.000000000000000E+03
(PID.TID 0000.0001)     ;
(PID.TID 0000.0001)  GM_skewflx*K =   /* Background GM_SkewFlx Diffusivity ( m^2/s ) */
(PID.TID 0000.0001)                 1.000000000000000E+03
(PID.TID 0000.0001)     ;
(PID.TID 0000.0001)  GM_advec*K =   /* Backg. GM-Advec(=Bolus) Diffusivity ( m^2/s ) */
(PID.TID 0000.0001)                 0.000000000000000E+00
(PID.TID 0000.0001)     ;
(PID.TID 0000.0001)  GM_Visbeck_alpha =   /* Visbeck alpha coeff. ( ) */
(PID.TID 0000.0001)                 0.000000000000000E+00
(PID.TID 0000.0001)     ;
(PID.TID 0000.0001)  Tapering/Cliping : ldd97
(PID.TID 0000.0001) // CG2D normalisation factor =          0.1575292392863445400000000E-03
(PID.TID 0000.0001) 
(PID.TID 0000.0001) // =======================================================
(PID.TID 0000.0001) // Model configuration
(PID.TID 0000.0001) // =======================================================
(PID.TID 0000.0001) //
(PID.TID 0000.0001) // "Physical" paramters ( PARM01 in namelist )
(PID.TID 0000.0001) //
(PID.TID 0000.0001) tRef =   /* Reference temperature profile ( oC or oK ) */
(PID.TID 0000.0001)                 2.400000000000000E+01,      /* K =  1 */
(PID.TID 0000.0001)                 2.300000000000000E+01,      /* K =  2 */
(PID.TID 0000.0001)                 2.200000000000000E+01,      /* K =  3 */
(PID.TID 0000.0001)                 2.100000000000000E+01,      /* K =  4 */
(PID.TID 0000.0001)                 2.000000000000000E+01,      /* K =  5 */
(PID.TID 0000.0001)                 1.900000000000000E+01,      /* K =  6 */
(PID.TID 0000.0001)                 1.800000000000000E+01,      /* K =  7 */
(PID.TID 0000.0001)                 1.700000000000000E+01,      /* K =  8 */
(PID.TID 0000.0001)                 1.600000000000000E+01,      /* K =  9 */
(PID.TID 0000.0001)                 1.500000000000000E+01,      /* K = 10 */
(PID.TID 0000.0001)                 1.400000000000000E+01,      /* K = 11 */
(PID.TID 0000.0001)                 1.300000000000000E+01,      /* K = 12 */
(PID.TID 0000.0001)                 1.200000000000000E+01,      /* K = 13 */
(PID.TID 0000.0001)                 1.100000000000000E+01,      /* K = 14 */
(PID.TID 0000.0001)                 1.000000000000000E+01,      /* K = 15 */
(PID.TID 0000.0001)                 9.000000000000000E+00,      /* K = 16 */
(PID.TID 0000.0001)                 8.000000000000000E+00,      /* K = 17 */
(PID.TID 0000.0001)                 7.000000000000000E+00,      /* K = 18 */
(PID.TID 0000.0001)                 6.000000000000000E+00,      /* K = 19 */
(PID.TID 0000.0001)                 5.000000000000000E+00,      /* K = 20 */
(PID.TID 0000.0001)                 4.000000000000000E+00,      /* K = 21 */
(PID.TID 0000.0001)                 3.000000000000000E+00,      /* K = 22 */
(PID.TID 0000.0001)                 2.000000000000000E+00       /* K = 23 */
(PID.TID 0000.0001)     ;
(PID.TID 0000.0001) sRef =   /* Reference salinity profile ( ppt ) */
(PID.TID 0000.0001)                 3.465000000000000E+01,      /* K =  1 */
(PID.TID 0000.0001)                 3.475000000000000E+01,      /* K =  2 */
(PID.TID 0000.0001)                 3.482000000000000E+01,      /* K =  3 */
(PID.TID 0000.0001)                 3.487000000000000E+01,      /* K =  4 */
(PID.TID 0000.0001)     2 @  3.490000000000000E+01,             /* K =  5:  6 */
(PID.TID 0000.0001)                 3.486000000000000E+01,      /* K =  7 */
(PID.TID 0000.0001)                 3.478000000000000E+01,      /* K =  8 */
(PID.TID 0000.0001)                 3.469000000000000E+01,      /* K =  9 */
(PID.TID 0000.0001)                 3.460000000000000E+01,      /* K = 10 */
(PID.TID 0000.0001)                 3.458000000000000E+01,      /* K = 11 */
(PID.TID 0000.0001)                 3.462000000000000E+01,      /* K = 12 */
(PID.TID 0000.0001)                 3.468000000000000E+01,      /* K = 13 */
(PID.TID 0000.0001)                 3.472000000000000E+01,      /* K = 14 */
(PID.TID 0000.0001)                 3.473000000000000E+01,      /* K = 15 */
(PID.TID 0000.0001)                 3.474000000000000E+01,      /* K = 16 */
(PID.TID 0000.0001)     2 @  3.473000000000000E+01,             /* K = 17: 18 */
(PID.TID 0000.0001)     2 @  3.472000000000000E+01,             /* K = 19: 20 */
(PID.TID 0000.0001)                 3.471000000000000E+01,      /* K = 21 */
(PID.TID 0000.0001)                 3.470000000000000E+01,      /* K = 22 */
(PID.TID 0000.0001)                 3.469000000000000E+01       /* K = 23 */
(PID.TID 0000.0001)     ;
(PID.TID 0000.0001) viscAh =   /* Lateral eddy viscosity ( m^2/s ) */
(PID.TID 0000.0001)                 5.000000000000000E+04
(PID.TID 0000.0001)     ;
(PID.TID 0000.0001) viscAh =   /* Lateral biharmonic viscosity ( m^4/s ) */
(PID.TID 0000.0001)                 0.000000000000000E+00
(PID.TID 0000.0001)     ;
(PID.TID 0000.0001) no_slip_sides =  /* Viscous BCs: No-slip sides */
(PID.TID 0000.0001)                   F
(PID.TID 0000.0001)     ;
(PID.TID 0000.0001) viscAz =   /* Vertical eddy viscosity ( m^2/s ) */
(PID.TID 0000.0001)                 1.000000000000000E-03
(PID.TID 0000.0001)     ;
(PID.TID 0000.0001) viscAr =   /* Vertical eddy viscosity ( units of r^2/s ) */
(PID.TID 0000.0001)                 1.000000000000000E-03
(PID.TID 0000.0001)     ;
(PID.TID 0000.0001) diffKhT =   /* Laplacian diffusion of heat laterally ( m^2/s ) */
(PID.TID 0000.0001)                 1.000000000000000E+03
(PID.TID 0000.0001)     ;
(PID.TID 0000.0001) diffK4T =   /* Bihaarmonic diffusion of heat laterally ( m^4/s ) */
(PID.TID 0000.0001)                 0.000000000000000E+00
(PID.TID 0000.0001)     ;
(PID.TID 0000.0001) diffKzT =   /* Laplacian diffusion of heat vertically ( m^2/s ) */
(PID.TID 0000.0001)                 1.000000000000000E-05
(PID.TID 0000.0001)     ;
(PID.TID 0000.0001) diffKrT =   /* Laplacian diffusion of heat vertically ( m^2/s ) */
(PID.TID 0000.0001)                 1.000000000000000E-05
(PID.TID 0000.0001)     ;
(PID.TID 0000.0001) diffKhS =   /* Laplacian diffusion of salt laterally ( m^2/s ) */
(PID.TID 0000.0001)                 1.000000000000000E+03
(PID.TID 0000.0001)     ;
(PID.TID 0000.0001) diffK4S =   /* Bihaarmonic diffusion of salt laterally ( m^4/s ) */
(PID.TID 0000.0001)                 0.000000000000000E+00
(PID.TID 0000.0001)     ;
(PID.TID 0000.0001) diffKzS =   /* Laplacian diffusion of salt vertically ( m^2/s ) */
(PID.TID 0000.0001)                 1.000000000000000E-05
(PID.TID 0000.0001)     ;
(PID.TID 0000.0001) diffKrS =   /* Laplacian diffusion of salt vertically ( m^2/s ) */
(PID.TID 0000.0001)                 1.000000000000000E-05
(PID.TID 0000.0001)     ;
(PID.TID 0000.0001) tAlpha =   /* Linear EOS thermal expansion coefficient ( 1/degree ) */
(PID.TID 0000.0001)                 2.000000000000000E-04
(PID.TID 0000.0001)     ;
(PID.TID 0000.0001) sBeta =   /* Linear EOS haline contraction coefficient ( 1/ppt ) */
(PID.TID 0000.0001)                 7.400000000000000E-04
(PID.TID 0000.0001)     ;
(PID.TID 0000.0001)   1  13.499  32.600  24.480  -0.201   0.771  -0.005  -0.002   0.000   0.000   0.000   0.000   0.000
(PID.TID 0000.0001)   2  13.498  32.600  24.525  -0.202   0.771  -0.005  -0.002   0.000   0.000   0.000   0.000   0.000
(PID.TID 0000.0001)   3  13.496  32.600  24.581  -0.202   0.771  -0.005  -0.002   0.000   0.000   0.000   0.000   0.000
(PID.TID 0000.0001)   4  13.494  32.600  24.660  -0.202   0.771  -0.005  -0.002   0.000   0.000   0.000   0.000   0.000
(PID.TID 0000.0001)   5  13.491  32.600  24.750  -0.203   0.771  -0.005  -0.002   0.000   0.000   0.000   0.000   0.000
(PID.TID 0000.0001)   6  13.488  32.600  24.851  -0.203   0.770  -0.005  -0.002   0.000   0.000   0.000   0.000   0.000
(PID.TID 0000.0001)   7  13.484  32.600  24.985  -0.204   0.770  -0.005  -0.002   0.000   0.000   0.000   0.000   0.000
(PID.TID 0000.0001)   8  13.478  32.600  25.176  -0.204   0.770  -0.005  -0.002   0.000   0.000   0.000   0.000   0.000
(PID.TID 0000.0001)   9  13.469  32.600  25.456  -0.205   0.769  -0.005  -0.002   0.000   0.000   0.000   0.000   0.000
(PID.TID 0000.0001)  10   8.467  35.150  28.748  -0.163   0.781  -0.005  -0.002   0.001   0.000   0.000   0.000   0.000
(PID.TID 0000.0001)  11   8.454  35.150  29.315  -0.166   0.780  -0.005  -0.002   0.001   0.000   0.000   0.000   0.000
(PID.TID 0000.0001)  12   5.946  34.900  30.300  -0.143   0.785  -0.006  -0.002   0.001   0.000   0.000   0.000   0.000
(PID.TID 0000.0001)  13   4.433  34.900  31.591  -0.132   0.786  -0.006  -0.003   0.000   0.000   0.000   0.000   0.000
(PID.TID 0000.0001)  14   3.909  34.750  32.966  -0.134   0.785  -0.006  -0.003   0.000   0.000   0.000   0.000   0.000
(PID.TID 0000.0001)  15   1.899  34.800  35.002  -0.121   0.787  -0.006  -0.003   0.000   0.000   0.000   0.000   0.000
(PID.TID 0000.0001)  16   1.372  34.750  36.991  -0.127   0.785  -0.006  -0.003  -0.001   0.000   0.000   0.000   0.000
(PID.TID 0000.0001)  17   1.332  34.800  39.171  -0.140   0.782  -0.006  -0.003  -0.001   0.000   0.000   0.000   0.000
(PID.TID 0000.0001)  18   0.797  34.800  41.472  -0.147   0.779  -0.006  -0.003  -0.001   0.000   0.000   0.000   0.000
(PID.TID 0000.0001)  19   0.749  34.800  43.682  -0.160   0.775  -0.005  -0.002  -0.002   0.000   0.000   0.000   0.000
(PID.TID 0000.0001)  20   0.214  34.750  45.912  -0.168   0.772  -0.005  -0.002  -0.002   0.000   0.000   0.000   0.000
(PID.TID 0000.0001)  21   0.160  34.750  48.080  -0.181   0.768  -0.005  -0.002  -0.003   0.000   0.000   0.000   0.000
(PID.TID 0000.0001)  22   0.584  34.750  50.131  -0.197   0.763  -0.005  -0.002  -0.001   0.000   0.000   0.000   0.000
(PID.TID 0000.0001)  23   0.522  34.750  52.248  -0.209   0.760  -0.005  -0.002  -0.002   0.000   0.000   0.000   0.000
(PID.TID 0000.0001) rhonil =   /* Reference density ( kg/m^3 ) */
(PID.TID 0000.0001)                 9.998000000000000E+02
(PID.TID 0000.0001)     ;
(PID.TID 0000.0001) rhoConst =   /* Reference density ( kg/m^3 ) */
(PID.TID 0000.0001)                 9.998000000000000E+02
(PID.TID 0000.0001)     ;
(PID.TID 0000.0001) gravity =   /* Gravitational acceleration ( m/s^2 ) */
(PID.TID 0000.0001)                 9.810000000000000E+00
(PID.TID 0000.0001)     ;
(PID.TID 0000.0001) gBaro =   /* Barotropic gravity ( m/s^2 ) */
(PID.TID 0000.0001)                 9.810000000000000E+00
(PID.TID 0000.0001)     ;
(PID.TID 0000.0001) f0 =   /* Reference coriolis parameter ( 1/s ) */
(PID.TID 0000.0001)                 1.000000000000000E-04
(PID.TID 0000.0001)     ;
(PID.TID 0000.0001) beta =   /* Beta ( 1/(m.s) ) */
(PID.TID 0000.0001)                 9.999999999999999E-12
(PID.TID 0000.0001)     ;
(PID.TID 0000.0001) freeSurfFac =   /* Implicit free surface factor */
(PID.TID 0000.0001)                 1.000000000000000E+00
(PID.TID 0000.0001)     ;
(PID.TID 0000.0001) implicitFreeSurface =   /* Implicit free surface on/off flag */
(PID.TID 0000.0001)                   T
(PID.TID 0000.0001)     ;
(PID.TID 0000.0001) rigidLid =   /* Rigid lid on/off flag */
(PID.TID 0000.0001)                   F
(PID.TID 0000.0001)     ;
(PID.TID 0000.0001) implicSurfPress =   /* Surface Pressure implicit factor (0-1)*/
(PID.TID 0000.0001)                 1.000000000000000E+00
(PID.TID 0000.0001)     ;
(PID.TID 0000.0001) implicDiv2Dflow =   /* Barot. Flow Div. implicit factor (0-1)*/
(PID.TID 0000.0001)                 1.000000000000000E+00
(PID.TID 0000.0001)     ;
(PID.TID 0000.0001) staggerTimeStep =   /* Stagger time stepping on/off flag */
(PID.TID 0000.0001)                   F
(PID.TID 0000.0001)     ;
(PID.TID 0000.0001) momStepping =  /* Momentum equation on/off flag */
(PID.TID 0000.0001)                   T
(PID.TID 0000.0001)     ;
(PID.TID 0000.0001) momAdvection =  /* Momentum advection on/off flag */
(PID.TID 0000.0001)                   T
(PID.TID 0000.0001)     ;
(PID.TID 0000.0001) momViscosity =  /* Momentum viscosity on/off flag */
(PID.TID 0000.0001)                   T
(PID.TID 0000.0001)     ;
(PID.TID 0000.0001) useCoriolis =  /* Coriolis on/off flag */
(PID.TID 0000.0001)                   T
(PID.TID 0000.0001)     ;
(PID.TID 0000.0001) momForcing =  /* Momentum forcing on/off flag */
(PID.TID 0000.0001)                   T
(PID.TID 0000.0001)     ;
(PID.TID 0000.0001) momPressureForcing =  /* Momentum pressure term on/off flag */
(PID.TID 0000.0001)                   T
(PID.TID 0000.0001)     ;
(PID.TID 0000.0001) tempStepping =  /* Temperature equation on/off flag */
(PID.TID 0000.0001)                   T
(PID.TID 0000.0001)     ;
(PID.TID 0000.0001) nonHydrostatic =  /* Non-Hydrostatic on/off flag */
(PID.TID 0000.0001)                   F
(PID.TID 0000.0001)     ;
(PID.TID 0000.0001) //
(PID.TID 0000.0001) // Elliptic solver(s) paramters ( PARM02 in namelist )
(PID.TID 0000.0001) //
(PID.TID 0000.0001) cg2dMaxIters =   /* Upper limit on 2d con. grad iterations  */
(PID.TID 0000.0001)                    1000
(PID.TID 0000.0001)     ;
(PID.TID 0000.0001) cg2dChkResFreq =   /* 2d con. grad convergence test frequency */
(PID.TID 0000.0001)                       1
(PID.TID 0000.0001)     ;
(PID.TID 0000.0001) cg2dTargetResidual =   /* 2d con. grad target residual  */
(PID.TID 0000.0001)                 1.000000000000000E-13
(PID.TID 0000.0001)     ;
(PID.TID 0000.0001) //
(PID.TID 0000.0001) // Time stepping paramters ( PARM03 in namelist )
(PID.TID 0000.0001) //
(PID.TID 0000.0001) nIter0 =   /* Base timestep number  */
(PID.TID 0000.0001)                       0
(PID.TID 0000.0001)     ;
(PID.TID 0000.0001) nTimeSteps =   /* Number of timesteps */
(PID.TID 0000.0001)                       4
(PID.TID 0000.0001)     ;
(PID.TID 0000.0001) deltatTmom =   /* Momentum equation timestep ( s ) */
(PID.TID 0000.0001)                 3.600000000000000E+03
(PID.TID 0000.0001)     ;
(PID.TID 0000.0001) deltatTtracer =   /* Tracer equation timestep ( s ) */
(PID.TID 0000.0001)                 3.600000000000000E+03
(PID.TID 0000.0001)     ;
(PID.TID 0000.0001) deltatTClock  =   /* Model clock timestep ( s ) */
(PID.TID 0000.0001)                 3.600000000000000E+03
(PID.TID 0000.0001)     ;
(PID.TID 0000.0001) cAdjFreq =   /* Convective adjustment interval ( s ) */
(PID.TID 0000.0001)                 0.000000000000000E+00
(PID.TID 0000.0001)     ;
(PID.TID 0000.0001) abeps =   /* Adams-Bashforth stabilizing weight */
(PID.TID 0000.0001)                 1.000000000000000E-01
(PID.TID 0000.0001)     ;
(PID.TID 0000.0001) tauCD =   /* CD coupling time-scale ( s ) */
(PID.TID 0000.0001)                 1.728000000000000E+05
(PID.TID 0000.0001)     ;
(PID.TID 0000.0001) rCD =   /* Normalised CD coupling parameter */
(PID.TID 0000.0001)                 9.791666666666666E-01
(PID.TID 0000.0001)     ;
(PID.TID 0000.0001) startTime =   /* Run start time ( s ). */
(PID.TID 0000.0001)                 0.000000000000000E+00
(PID.TID 0000.0001)     ;
(PID.TID 0000.0001) endTime =   /* Integration ending time ( s ). */
(PID.TID 0000.0001)                 1.440000000000000E+04
(PID.TID 0000.0001)     ;
(PID.TID 0000.0001) pChkPtFreq =   /* Permanent restart/checkpoint file interval ( s ). */
(PID.TID 0000.0001)                 1.555200000000000E+07
(PID.TID 0000.0001)     ;
(PID.TID 0000.0001) chkPtFreq =   /* Rolling restart/checkpoint file interval ( s ). */
(PID.TID 0000.0001)                 1.555200000000000E+07
(PID.TID 0000.0001)     ;
(PID.TID 0000.0001) dumpFreq =   /* Model state write out interval ( s ). */
(PID.TID 0000.0001)                 8.640000000000000E+04
(PID.TID 0000.0001)     ;
(PID.TID 0000.0001) //
(PID.TID 0000.0001) // Gridding paramters ( PARM04 in namelist )
(PID.TID 0000.0001) //
(PID.TID 0000.0001) usingCartesianGrid =   /* Cartesian coordinates flag ( True / False ) */
(PID.TID 0000.0001)                   F
(PID.TID 0000.0001)     ;
(PID.TID 0000.0001) usingSphericalPolarGrid =   /* Spherical coordinates flag ( True / False ) */
(PID.TID 0000.0001)                   T
(PID.TID 0000.0001)     ;
(PID.TID 0000.0001) groundAtK1 =   /* Lower Boundary (ground) at the surface(k=1) ( T / F ) */
(PID.TID 0000.0001)                   F
(PID.TID 0000.0001)     ;
(PID.TID 0000.0001) Ro_SeaLevel =   /* r(1) ( units of r ) */
(PID.TID 0000.0001)                 0.000000000000000E+00
(PID.TID 0000.0001)     ;
(PID.TID 0000.0001) rkFac =   /* minus Vertical index orientation  */
(PID.TID 0000.0001)                 1.000000000000000E+00
(PID.TID 0000.0001)     ;
(PID.TID 0000.0001) horiVertRatio =   /* Ratio on units : Horiz - Vertical */
(PID.TID 0000.0001)                 1.000000000000000E+00
(PID.TID 0000.0001)     ;
(PID.TID 0000.0001) delZ =   /* W spacing ( m ) */
(PID.TID 0000.0001)     2 @  1.000000000000000E+01,             /* K =  1:  2 */
(PID.TID 0000.0001)                 1.500000000000000E+01,      /* K =  3 */
(PID.TID 0000.0001)     2 @  2.000000000000000E+01,             /* K =  4:  5 */
(PID.TID 0000.0001)                 2.500000000000000E+01,      /* K =  6 */
(PID.TID 0000.0001)                 3.500000000000000E+01,      /* K =  7 */
(PID.TID 0000.0001)                 5.000000000000000E+01,      /* K =  8 */
(PID.TID 0000.0001)                 7.500000000000000E+01,      /* K =  9 */
(PID.TID 0000.0001)                 1.000000000000000E+02,      /* K = 10 */
(PID.TID 0000.0001)                 1.500000000000000E+02,      /* K = 11 */
(PID.TID 0000.0001)                 2.000000000000000E+02,      /* K = 12 */
(PID.TID 0000.0001)                 2.750000000000000E+02,      /* K = 13 */
(PID.TID 0000.0001)                 3.500000000000000E+02,      /* K = 14 */
(PID.TID 0000.0001)                 4.150000000000000E+02,      /* K = 15 */
(PID.TID 0000.0001)                 4.500000000000000E+02,      /* K = 16 */
(PID.TID 0000.0001)     7 @  5.000000000000000E+02              /* K = 17: 23 */
(PID.TID 0000.0001)     ;
(PID.TID 0000.0001) delP =   /* W spacing ( Pa ) */
(PID.TID 0000.0001)    23 @  1.234567000000000E+05              /* K =  1: 23 */
(PID.TID 0000.0001)     ;
(PID.TID 0000.0001) delR =   /* W spacing ( units of r ) */
(PID.TID 0000.0001)     2 @  1.000000000000000E+01,             /* K =  1:  2 */
(PID.TID 0000.0001)                 1.500000000000000E+01,      /* K =  3 */
(PID.TID 0000.0001)     2 @  2.000000000000000E+01,             /* K =  4:  5 */
(PID.TID 0000.0001)                 2.500000000000000E+01,      /* K =  6 */
(PID.TID 0000.0001)                 3.500000000000000E+01,      /* K =  7 */
(PID.TID 0000.0001)                 5.000000000000000E+01,      /* K =  8 */
(PID.TID 0000.0001)                 7.500000000000000E+01,      /* K =  9 */
(PID.TID 0000.0001)                 1.000000000000000E+02,      /* K = 10 */
(PID.TID 0000.0001)                 1.500000000000000E+02,      /* K = 11 */
(PID.TID 0000.0001)                 2.000000000000000E+02,      /* K = 12 */
(PID.TID 0000.0001)                 2.750000000000000E+02,      /* K = 13 */
(PID.TID 0000.0001)                 3.500000000000000E+02,      /* K = 14 */
(PID.TID 0000.0001)                 4.150000000000000E+02,      /* K = 15 */
(PID.TID 0000.0001)                 4.500000000000000E+02,      /* K = 16 */
(PID.TID 0000.0001)     7 @  5.000000000000000E+02              /* K = 17: 23 */
(PID.TID 0000.0001)     ;
(PID.TID 0000.0001) delX =   /* U spacing ( m - cartesian, degrees - spherical ) */
(PID.TID 0000.0001)    20 @  2.000000000000000E+00              /* I =  1: 20 */
(PID.TID 0000.0001)     ;
(PID.TID 0000.0001) delY =   /* V spacing ( m - cartesian, degrees - spherical ) */
(PID.TID 0000.0001)    16 @  2.000000000000000E+00              /* J =  1: 16 */
(PID.TID 0000.0001)     ;
(PID.TID 0000.0001) phiMin =    /* South edge (ignored - cartesian, degrees - spherical ) */
(PID.TID 0000.0001)                 1.000000000000000E+01
(PID.TID 0000.0001)     ;
(PID.TID 0000.0001) thetaMin =    /* West edge ( ignored - cartesian, degrees - spherical ) */
(PID.TID 0000.0001)                -4.200000000000000E+01
(PID.TID 0000.0001)     ;
(PID.TID 0000.0001) rSphere =    /* Radius ( ignored - cartesian, m - spherical ) */
(PID.TID 0000.0001)                 6.370000000000000E+06
(PID.TID 0000.0001)     ;
(PID.TID 0000.0001) xcoord =   /* P-point X coord ( m - cartesian, degrees - spherical ) */
(PID.TID 0000.0001)                -4.100000000000000E+01,      /* I =  1 */
(PID.TID 0000.0001)                -3.900000000000000E+01,      /* I =  2 */
(PID.TID 0000.0001)                -3.700000000000000E+01,      /* I =  3 */
(PID.TID 0000.0001)                -3.500000000000000E+01,      /* I =  4 */
(PID.TID 0000.0001)                -3.300000000000000E+01,      /* I =  5 */
(PID.TID 0000.0001)                -3.100000000000000E+01,      /* I =  6 */
(PID.TID 0000.0001)                -2.900000000000000E+01,      /* I =  7 */
(PID.TID 0000.0001)                -2.700000000000000E+01,      /* I =  8 */
(PID.TID 0000.0001)                -2.500000000000000E+01,      /* I =  9 */
(PID.TID 0000.0001)                -2.300000000000000E+01,      /* I = 10 */
(PID.TID 0000.0001)                -2.100000000000000E+01,      /* I = 11 */
(PID.TID 0000.0001)                -1.900000000000000E+01,      /* I = 12 */
(PID.TID 0000.0001)                -1.700000000000000E+01,      /* I = 13 */
(PID.TID 0000.0001)                -1.500000000000000E+01,      /* I = 14 */
(PID.TID 0000.0001)                -1.300000000000000E+01,      /* I = 15 */
(PID.TID 0000.0001)                -1.100000000000000E+01,      /* I = 16 */
(PID.TID 0000.0001)                -9.000000000000000E+00,      /* I = 17 */
(PID.TID 0000.0001)                -7.000000000000000E+00,      /* I = 18 */
(PID.TID 0000.0001)                -5.000000000000000E+00,      /* I = 19 */
(PID.TID 0000.0001)                -3.000000000000000E+00       /* I = 20 */
(PID.TID 0000.0001)     ;
(PID.TID 0000.0001) ycoord =   /* P-point Y coord ( m - cartesian, degrees - spherical ) */
(PID.TID 0000.0001)                 1.100000000000000E+01,      /* J =  1 */
(PID.TID 0000.0001)                 1.300000000000000E+01,      /* J =  2 */
(PID.TID 0000.0001)                 1.500000000000000E+01,      /* J =  3 */
(PID.TID 0000.0001)                 1.700000000000000E+01,      /* J =  4 */
(PID.TID 0000.0001)                 1.900000000000000E+01,      /* J =  5 */
(PID.TID 0000.0001)                 2.100000000000000E+01,      /* J =  6 */
(PID.TID 0000.0001)                 2.300000000000000E+01,      /* J =  7 */
(PID.TID 0000.0001)                 2.500000000000000E+01,      /* J =  8 */
(PID.TID 0000.0001)                 2.700000000000000E+01,      /* J =  9 */
(PID.TID 0000.0001)                 2.900000000000000E+01,      /* J = 10 */
(PID.TID 0000.0001)                 3.100000000000000E+01,      /* J = 11 */
(PID.TID 0000.0001)                 3.300000000000000E+01,      /* J = 12 */
(PID.TID 0000.0001)                 3.500000000000000E+01,      /* J = 13 */
(PID.TID 0000.0001)                 3.700000000000000E+01,      /* J = 14 */
(PID.TID 0000.0001)                 3.900000000000000E+01,      /* J = 15 */
(PID.TID 0000.0001)                 4.100000000000000E+01       /* J = 16 */
(PID.TID 0000.0001)     ;
(PID.TID 0000.0001) rcoord =   /* P-point R coordinate (  units of r ) */
(PID.TID 0000.0001)                -5.000000000000000E+00,      /* K =  1 */
(PID.TID 0000.0001)                -1.500000000000000E+01,      /* K =  2 */
(PID.TID 0000.0001)                -2.750000000000000E+01,      /* K =  3 */
(PID.TID 0000.0001)                -4.500000000000000E+01,      /* K =  4 */
(PID.TID 0000.0001)                -6.500000000000000E+01,      /* K =  5 */
(PID.TID 0000.0001)                -8.750000000000000E+01,      /* K =  6 */
(PID.TID 0000.0001)                -1.175000000000000E+02,      /* K =  7 */
(PID.TID 0000.0001)                -1.600000000000000E+02,      /* K =  8 */
(PID.TID 0000.0001)                -2.225000000000000E+02,      /* K =  9 */
(PID.TID 0000.0001)                -3.100000000000000E+02,      /* K = 10 */
(PID.TID 0000.0001)                -4.350000000000000E+02,      /* K = 11 */
(PID.TID 0000.0001)                -6.100000000000000E+02,      /* K = 12 */
(PID.TID 0000.0001)                -8.475000000000000E+02,      /* K = 13 */
(PID.TID 0000.0001)                -1.160000000000000E+03,      /* K = 14 */
(PID.TID 0000.0001)                -1.542500000000000E+03,      /* K = 15 */
(PID.TID 0000.0001)                -1.975000000000000E+03,      /* K = 16 */
(PID.TID 0000.0001)                -2.450000000000000E+03,      /* K = 17 */
(PID.TID 0000.0001)                -2.950000000000000E+03,      /* K = 18 */
(PID.TID 0000.0001)                -3.450000000000000E+03,      /* K = 19 */
(PID.TID 0000.0001)                -3.950000000000000E+03,      /* K = 20 */
(PID.TID 0000.0001)                -4.450000000000000E+03,      /* K = 21 */
(PID.TID 0000.0001)                -4.950000000000000E+03,      /* K = 22 */
(PID.TID 0000.0001)                -5.450000000000000E+03       /* K = 23 */
(PID.TID 0000.0001)     ;
(PID.TID 0000.0001) dxF =  /* dxF(:,1,:,1) ( m - cartesian, degrees - spherical ) */
(PID.TID 0000.0001)    20 @  2.182696600587791E+05              /* I =  1: 20 */
(PID.TID 0000.0001)     ;
(PID.TID 0000.0001) dxF =  /* dxF(1,:,1,:) ( m - cartesian, degrees - spherical ) */
(PID.TID 0000.0001)                 2.182696600587791E+05,      /* J =  1 */
(PID.TID 0000.0001)                 2.166560038253696E+05,      /* J =  2 */
(PID.TID 0000.0001)                 2.147783856245979E+05,      /* J =  3 */
(PID.TID 0000.0001)                 2.126390930450167E+05,      /* J =  4 */
(PID.TID 0000.0001)                 2.102407324851014E+05,      /* J =  5 */
(PID.TID 0000.0001)                 2.075862259777553E+05,      /* J =  6 */
(PID.TID 0000.0001)                 2.046788076302621E+05,      /* J =  7 */
(PID.TID 0000.0001)                 2.015220196840248E+05,      /* J =  8 */
(PID.TID 0000.0001)                 1.981197081988899E+05,      /* J =  9 */
(PID.TID 0000.0001)                 1.944760183673163E+05,      /* J = 10 */
(PID.TID 0000.0001)                 1.905953894640962E+05,      /* J = 11 */
(PID.TID 0000.0001)                 1.864825494377832E+05,      /* J = 12 */
(PID.TID 0000.0001)                 1.821425091504150E+05,      /* J = 13 */
(PID.TID 0000.0001)                 1.775805562725496E+05,      /* J = 14 */
(PID.TID 0000.0001)                 1.728022488410539E+05,      /* J = 15 */
(PID.TID 0000.0001)                 1.678134084874913E+05       /* J = 16 */
(PID.TID 0000.0001)     ;
(PID.TID 0000.0001) dyF =  /* dyF(:,1,:,1) ( m - cartesian, degrees - spherical ) */
(PID.TID 0000.0001)    20 @  2.223549467040776E+05              /* I =  1: 20 */
(PID.TID 0000.0001)     ;
(PID.TID 0000.0001) dyF =  /* dyF(1,:,1,:) ( m - cartesian, degrees - spherical ) */
(PID.TID 0000.0001)    16 @  2.223549467040776E+05              /* J =  1: 16 */
(PID.TID 0000.0001)     ;
(PID.TID 0000.0001) dxG =  /* dxG(:,1,:,1) ( m - cartesian, degrees - spherical ) */
(PID.TID 0000.0001)    20 @  2.189768754347919E+05              /* I =  1: 20 */
(PID.TID 0000.0001)     ;
(PID.TID 0000.0001) dxG =  /* dxG(1,:,1,:) ( m - cartesian, degrees - spherical ) */
(PID.TID 0000.0001)                 2.189768754347919E+05,      /* J =  1 */
(PID.TID 0000.0001)                 2.174959576298867E+05,      /* J =  2 */
(PID.TID 0000.0001)                 2.157500545032935E+05,      /* J =  3 */
(PID.TID 0000.0001)                 2.137412931690361E+05,      /* J =  4 */
(PID.TID 0000.0001)                 2.114721209933746E+05,      /* J =  5 */
(PID.TID 0000.0001)                 2.089453026130656E+05,      /* J =  6 */
(PID.TID 0000.0001)                 2.061639165670793E+05,      /* J =  7 */
(PID.TID 0000.0001)                 2.031313515458727E+05,      /* J =  8 */
(PID.TID 0000.0001)                 1.998513022627935E+05,      /* J =  9 */
(PID.TID 0000.0001)                 1.963277649526403E+05,      /* J = 10 */
(PID.TID 0000.0001)                 1.925650325028661E+05,      /* J = 11 */
(PID.TID 0000.0001)                 1.885676892233566E+05,      /* J = 12 */
(PID.TID 0000.0001)                 1.843406052611541E+05,      /* J = 13 */
(PID.TID 0000.0001)                 1.798889306669345E+05,      /* J = 14 */
(PID.TID 0000.0001)                 1.752180891204627E+05,      /* J = 15 */
(PID.TID 0000.0001)                 1.703337713226752E+05       /* J = 16 */
(PID.TID 0000.0001)     ;
(PID.TID 0000.0001) dyG =  /* dyG(:,1,:,1) ( m - cartesian, degrees - spherical ) */
(PID.TID 0000.0001)    20 @  2.223549467040776E+05              /* I =  1: 20 */
(PID.TID 0000.0001)     ;
(PID.TID 0000.0001) dyG =  /* dyG(1,:,1,:) ( m - cartesian, degrees - spherical ) */
(PID.TID 0000.0001)    16 @  2.223549467040776E+05              /* J =  1: 16 */
(PID.TID 0000.0001)     ;
(PID.TID 0000.0001) dxC =  /* dxC(:,1,:,1) ( m - cartesian, degrees - spherical ) */
(PID.TID 0000.0001)    20 @  2.182696600587791E+05              /* I =  1: 20 */
(PID.TID 0000.0001)     ;
(PID.TID 0000.0001) dxC =  /* dxC(1,:,1,:) ( m - cartesian, degrees - spherical ) */
(PID.TID 0000.0001)                 2.182696600587791E+05,      /* J =  1 */
(PID.TID 0000.0001)                 2.166560038253696E+05,      /* J =  2 */
(PID.TID 0000.0001)                 2.147783856245979E+05,      /* J =  3 */
(PID.TID 0000.0001)                 2.126390930450167E+05,      /* J =  4 */
(PID.TID 0000.0001)                 2.102407324851014E+05,      /* J =  5 */
(PID.TID 0000.0001)                 2.075862259777553E+05,      /* J =  6 */
(PID.TID 0000.0001)                 2.046788076302621E+05,      /* J =  7 */
(PID.TID 0000.0001)                 2.015220196840248E+05,      /* J =  8 */
(PID.TID 0000.0001)                 1.981197081988899E+05,      /* J =  9 */
(PID.TID 0000.0001)                 1.944760183673163E+05,      /* J = 10 */
(PID.TID 0000.0001)                 1.905953894640962E+05,      /* J = 11 */
(PID.TID 0000.0001)                 1.864825494377832E+05,      /* J = 12 */
(PID.TID 0000.0001)                 1.821425091504150E+05,      /* J = 13 */
(PID.TID 0000.0001)                 1.775805562725496E+05,      /* J = 14 */
(PID.TID 0000.0001)                 1.728022488410539E+05,      /* J = 15 */
(PID.TID 0000.0001)                 1.678134084874913E+05       /* J = 16 */
(PID.TID 0000.0001)     ;
(PID.TID 0000.0001) dyC =  /* dyC(:,1,:,1) ( m - cartesian, degrees - spherical ) */
(PID.TID 0000.0001)    20 @  2.223549467040776E+05              /* I =  1: 20 */
(PID.TID 0000.0001)     ;
(PID.TID 0000.0001) dyC =  /* dyC(1,:,1,:) ( m - cartesian, degrees - spherical ) */
(PID.TID 0000.0001)    16 @  2.223549467040776E+05              /* J =  1: 16 */
(PID.TID 0000.0001)     ;
(PID.TID 0000.0001) dxV =  /* dxV(:,1,:,1) ( m - cartesian, degrees - spherical ) */
(PID.TID 0000.0001)    20 @  2.189768754347919E+05              /* I =  1: 20 */
(PID.TID 0000.0001)     ;
(PID.TID 0000.0001) dxV =  /* dxV(1,:,1,:) ( m - cartesian, degrees - spherical ) */
(PID.TID 0000.0001)                 2.189768754347919E+05,      /* J =  1 */
(PID.TID 0000.0001)                 2.174959576298867E+05,      /* J =  2 */
(PID.TID 0000.0001)                 2.157500545032935E+05,      /* J =  3 */
(PID.TID 0000.0001)                 2.137412931690361E+05,      /* J =  4 */
(PID.TID 0000.0001)                 2.114721209933746E+05,      /* J =  5 */
(PID.TID 0000.0001)                 2.089453026130656E+05,      /* J =  6 */
(PID.TID 0000.0001)                 2.061639165670793E+05,      /* J =  7 */
(PID.TID 0000.0001)                 2.031313515458727E+05,      /* J =  8 */
(PID.TID 0000.0001)                 1.998513022627935E+05,      /* J =  9 */
(PID.TID 0000.0001)                 1.963277649526403E+05,      /* J = 10 */
(PID.TID 0000.0001)                 1.925650325028661E+05,      /* J = 11 */
(PID.TID 0000.0001)                 1.885676892233566E+05,      /* J = 12 */
(PID.TID 0000.0001)                 1.843406052611541E+05,      /* J = 13 */
(PID.TID 0000.0001)                 1.798889306669345E+05,      /* J = 14 */
(PID.TID 0000.0001)                 1.752180891204627E+05,      /* J = 15 */
(PID.TID 0000.0001)                 1.703337713226752E+05       /* J = 16 */
(PID.TID 0000.0001)     ;
(PID.TID 0000.0001) dyU =  /* dyU(:,1,:,1) ( m - cartesian, degrees - spherical ) */
(PID.TID 0000.0001)    20 @  2.223549467040776E+05              /* I =  1: 20 */
(PID.TID 0000.0001)     ;
(PID.TID 0000.0001) dyU =  /* dyU(1,:,1,:) ( m - cartesian, degrees - spherical ) */
(PID.TID 0000.0001)    16 @  2.223549467040776E+05              /* J =  1: 16 */
(PID.TID 0000.0001)     ;
(PID.TID 0000.0001) rA =  /* rA(:,1,:,1) ( m - cartesian, degrees - spherical ) */
(PID.TID 0000.0001)    20 @  4.853087465028469E+10              /* I =  1: 20 */
(PID.TID 0000.0001)     ;
(PID.TID 0000.0001) rA =  /* rA(1,:,1,:) ( m - cartesian, degrees - spherical ) */
(PID.TID 0000.0001)                 4.853087465028469E+10,      /* J =  1 */
(PID.TID 0000.0001)                 4.817208842057614E+10,      /* J =  2 */
(PID.TID 0000.0001)                 4.775461192146851E+10,      /* J =  3 */
(PID.TID 0000.0001)                 4.727895378376868E+10,      /* J =  4 */
(PID.TID 0000.0001)                 4.674569352364785E+10,      /* J =  5 */
(PID.TID 0000.0001)                 4.615548083659052E+10,      /* J =  6 */
(PID.TID 0000.0001)                 4.550903480584064E+10,      /* J =  7 */
(PID.TID 0000.0001)                 4.480714302630917E+10,      /* J =  8 */
(PID.TID 0000.0001)                 4.405066064501157E+10,      /* J =  9 */
(PID.TID 0000.0001)                 4.324050931920184E+10,      /* J = 10 */
(PID.TID 0000.0001)                 4.237767609347684E+10,      /* J = 11 */
(PID.TID 0000.0001)                 4.146321219721255E+10,      /* J = 12 */
(PID.TID 0000.0001)                 4.049823176380374E+10,      /* J = 13 */
(PID.TID 0000.0001)                 3.948391047326549E+10,      /* J = 14 */
(PID.TID 0000.0001)                 3.842148411984549E+10,      /* J = 15 */
(PID.TID 0000.0001)                 3.731224710640179E+10       /* J = 16 */
(PID.TID 0000.0001)     ;
(PID.TID 0000.0001) rAw =  /* rAw(:,1,:,1) ( m - cartesian, degrees - spherical ) */
(PID.TID 0000.0001)    20 @  4.853087465028469E+10              /* I =  1: 20 */
(PID.TID 0000.0001)     ;
(PID.TID 0000.0001) rAw =  /* rAw(1,:,1,:) ( m - cartesian, degrees - spherical ) */
(PID.TID 0000.0001)                 4.853087465028469E+10,      /* J =  1 */
(PID.TID 0000.0001)                 4.817208842057614E+10,      /* J =  2 */
(PID.TID 0000.0001)                 4.775461192146851E+10,      /* J =  3 */
(PID.TID 0000.0001)                 4.727895378376868E+10,      /* J =  4 */
(PID.TID 0000.0001)                 4.674569352364785E+10,      /* J =  5 */
(PID.TID 0000.0001)                 4.615548083659052E+10,      /* J =  6 */
(PID.TID 0000.0001)                 4.550903480584064E+10,      /* J =  7 */
(PID.TID 0000.0001)                 4.480714302630917E+10,      /* J =  8 */
(PID.TID 0000.0001)                 4.405066064501157E+10,      /* J =  9 */
(PID.TID 0000.0001)                 4.324050931920184E+10,      /* J = 10 */
(PID.TID 0000.0001)                 4.237767609347684E+10,      /* J = 11 */
(PID.TID 0000.0001)                 4.146321219721255E+10,      /* J = 12 */
(PID.TID 0000.0001)                 4.049823176380374E+10,      /* J = 13 */
(PID.TID 0000.0001)                 3.948391047326549E+10,      /* J = 14 */
(PID.TID 0000.0001)                 3.842148411984549E+10,      /* J = 15 */
(PID.TID 0000.0001)                 3.731224710640179E+10       /* J = 16 */
(PID.TID 0000.0001)     ;
(PID.TID 0000.0001) rAs =  /* rAs(:,1,:,1) ( m - cartesian, degrees - spherical ) */
(PID.TID 0000.0001)    20 @  4.868811950398895E+10              /* I =  1: 20 */
(PID.TID 0000.0001)     ;
(PID.TID 0000.0001) rAs =  /* rAs(1,:,1,:) ( m - cartesian, degrees - spherical ) */
(PID.TID 0000.0001)                 4.868811950398895E+10,      /* J =  1 */
(PID.TID 0000.0001)                 4.835884682203275E+10,      /* J =  2 */
(PID.TID 0000.0001)                 4.797065633433311E+10,      /* J =  3 */
(PID.TID 0000.0001)                 4.752402099120342E+10,      /* J =  4 */
(PID.TID 0000.0001)                 4.701948494900997E+10,      /* J =  5 */
(PID.TID 0000.0001)                 4.645766290720264E+10,      /* J =  6 */
(PID.TID 0000.0001)                 4.583923935939737E+10,      /* J =  7 */
(PID.TID 0000.0001)                 4.516496775942608E+10,      /* J =  8 */
(PID.TID 0000.0001)                 4.443566960336987E+10,      /* J =  9 */
(PID.TID 0000.0001)                 4.365223342869237E+10,      /* J = 10 */
(PID.TID 0000.0001)                 4.281561373169270E+10,      /* J = 11 */
(PID.TID 0000.0001)                 4.192682980460108E+10,      /* J = 12 */
(PID.TID 0000.0001)                 4.098696449372525E+10,      /* J = 13 */
(PID.TID 0000.0001)                 3.999716288017197E+10,      /* J = 14 */
(PID.TID 0000.0001)                 3.895863088473959E+10,      /* J = 15 */
(PID.TID 0000.0001)                 3.787263379869147E+10       /* J = 16 */
(PID.TID 0000.0001)     ;
(PID.TID 0000.0001) 
(PID.TID 0000.0001)  MDSREADFIELD_GL: opening file: hFacC.001.001.data
(PID.TID 0000.0001)  MDSREADFIELD_GL: opening file: xx_theta.0000000000.001.001.data
(PID.TID 0000.0001)  MDSREADFIELD_GL: opening file: hFacC.001.001.data
(PID.TID 0000.0001)  MDSREADFIELD_GL: opening file: xx_salt.0000000000.001.001.data
(PID.TID 0000.0001)  MDSREADFIELD_GL: opening file: whflux.001.001.data
(PID.TID 0000.0001)  MDSREADFIELD_GL: opening file: hFacC.001.001.data
(PID.TID 0000.0001)  MDSREADFIELD_GL: opening file: xx_hfl.0000000000.001.001.data
(PID.TID 0000.0001)  MDSREADFIELD_GL: opening file: xx_hfl.0000000000.001.001.data
(PID.TID 0000.0001)  MDSREADFIELD_GL: opening file: wsflux.001.001.data
(PID.TID 0000.0001)  MDSREADFIELD_GL: opening file: hFacC.001.001.data
(PID.TID 0000.0001)  MDSREADFIELD_GL: opening file: xx_sfl.0000000000.001.001.data
(PID.TID 0000.0001)  MDSREADFIELD_GL: opening file: xx_sfl.0000000000.001.001.data
(PID.TID 0000.0001)  MDSREADFIELD_GL: opening file: wtauu.001.001.data
(PID.TID 0000.0001)  MDSREADFIELD_GL: opening file: maskW.001.001.data
(PID.TID 0000.0001)  MDSREADFIELD_GL: opening file: xx_tauu.0000000000.001.001.data
(PID.TID 0000.0001)  MDSREADFIELD_GL: opening file: xx_tauu.0000000000.001.001.data
(PID.TID 0000.0001)  MDSREADFIELD_GL: opening file: wtauv.001.001.data
(PID.TID 0000.0001)  MDSREADFIELD_GL: opening file: maskS.001.001.data
(PID.TID 0000.0001)  MDSREADFIELD_GL: opening file: xx_tauv.0000000000.001.001.data
(PID.TID 0000.0001)  MDSREADFIELD_GL: opening file: xx_tauv.0000000000.001.001.data
(PID.TID 0000.0001) %MON fCori_max                    =   9.5419917861011E-05
(PID.TID 0000.0001) %MON fCori_min                    =   2.7752043431195E-05
(PID.TID 0000.0001) %MON fCori_mean                   =   6.2936249243167E-05
(PID.TID 0000.0001) %MON fCori_sd                     =   2.0885809702547E-05
(PID.TID 0000.0001) %MON fCoriG_max                   =   9.3489668167119E-05
(PID.TID 0000.0001) %MON fCoriG_min                   =   2.5256103669800E-05
(PID.TID 0000.0001) %MON fCoriG_mean                  =   6.0674632558389E-05
(PID.TID 0000.0001) %MON fCoriG_sd                    =   2.1059305790472E-05
(PID.TID 0000.0001) // CG2D normalisation factor =          0.1575292392863445400000000E-03
(PID.TID 0000.0001) 
(PID.TID 0000.0001)  MDSREADFIELD: opening global file: PH_LevCli.ptmp__020_016_23.data
(PID.TID 0000.0001) // =======================================================
(PID.TID 0000.0001) // Field Initial Temperature at iteration          1
(PID.TID 0000.0001) // CMIN =          1.840084838867188E+01
(PID.TID 0000.0001) // CMAX =          2.607793426513672E+01
(PID.TID 0000.0001) // CINT =          2.843365139431424E-01
(PID.TID 0000.0001) // SYMBOLS (CMIN->CMAX): -abcdefghijklmnopqrstuvwxyz+
(PID.TID 0000.0001) //                  0.0: .
(PID.TID 0000.0001) // RANGE I (Lo:Hi:Step):(   1:  20:   1)
(PID.TID 0000.0001) // RANGE J (Lo:Hi:Step):(  16:   1:  -1)
(PID.TID 0000.0001) // RANGE K (Lo:Hi:Step):(   1:   1:   1)
(PID.TID 0000.0001) // =======================================================
(PID.TID 0000.0001) K =   1
(PID.TID 0000.0001)                I=10      I=20
(PID.TID 0000.0001) |--J--|123456789|123456789|
(PID.TID 0000.0001)     16 ....................
(PID.TID 0000.0001)     15 .jihhgfeedddcba---a.
(PID.TID 0000.0001)     14 .kjiihggffeedcbbabb.
(PID.TID 0000.0001)     13 .lkkjiiiihgfedccbc..
(PID.TID 0000.0001)     12 .mllkkjjjihgfedcc...
(PID.TID 0000.0001)     11 .onnmmllkjihgfeec...
(PID.TID 0000.0001)     10 .rrqqponmmlkihf.....
(PID.TID 0000.0001)      9 .utssrqponmljh......
(PID.TID 0000.0001)      8 .vuttsrqponlig......
(PID.TID 0000.0001)      7 .vuutsrrponkif......
(PID.TID 0000.0001)      6 .wvvuutsrqomjh......
(PID.TID 0000.0001)      5 .yxwwwvutsrpnl......
(PID.TID 0000.0001)      4 .zyyyxxwwvutrq......
(PID.TID 0000.0001)      3 .zzzzyyxxxxwvu......
(PID.TID 0000.0001)      2 .+++++zzz+++zy......
(PID.TID 0000.0001)      1 ....................
(PID.TID 0000.0001) // =======================================================
(PID.TID 0000.0001) // END OF FIELD                                          =
(PID.TID 0000.0001) // =======================================================
(PID.TID 0000.0001) 
(PID.TID 0000.0001)  MDSREADFIELD: opening global file: PH_LevCli.salt__020_016_23.data
(PID.TID 0000.0001) // =======================================================
(PID.TID 0000.0001) // Field Initial Salinity at iteration          1
(PID.TID 0000.0001) // CMIN =          3.501070022583008E+01
(PID.TID 0000.0001) // CMAX =          3.739887619018555E+01
(PID.TID 0000.0001) // CINT =          8.845096164279515E-02
(PID.TID 0000.0001) // SYMBOLS (CMIN->CMAX): -abcdefghijklmnopqrstuvwxyz+
(PID.TID 0000.0001) //                  0.0: .
(PID.TID 0000.0001) // RANGE I (Lo:Hi:Step):(   1:  20:   1)
(PID.TID 0000.0001) // RANGE J (Lo:Hi:Step):(  16:   1:  -1)
(PID.TID 0000.0001) // RANGE K (Lo:Hi:Step):(   1:   1:   1)
(PID.TID 0000.0001) // =======================================================
(PID.TID 0000.0001) K =   1
(PID.TID 0000.0001)                I=10      I=20
(PID.TID 0000.0001) |--J--|123456789|123456789|
(PID.TID 0000.0001)     16 ....................
(PID.TID 0000.0001)     15 .oonnnnmmnnnnnnmllk.
(PID.TID 0000.0001)     14 .ppppoooopppppppooo.
(PID.TID 0000.0001)     13 .qqqqqrrrrrrqqqqqq..
(PID.TID 0000.0001)     12 .tttttttttttssrqp...
(PID.TID 0000.0001)     11 .wwwwwwvvvvuusrpn...
(PID.TID 0000.0001)     10 .zzyyyyyxxwvusr.....
(PID.TID 0000.0001)      9 .++zzzzyxxwutr......
(PID.TID 0000.0001)      8 .+zzyyyxwvusrp......
(PID.TID 0000.0001)      7 .xxxxwwutsrpnm......
(PID.TID 0000.0001)      6 .uuuuutsqponlj......
(PID.TID 0000.0001)      5 .rrrrqqponmkji......
(PID.TID 0000.0001)      4 .poooonmmlkihg......
(PID.TID 0000.0001)      3 .mmlllllkjihec......
(PID.TID 0000.0001)      2 .jjjkkkjjihfd-......
(PID.TID 0000.0001)      1 ....................
(PID.TID 0000.0001) // =======================================================
(PID.TID 0000.0001) // END OF FIELD                                          =
(PID.TID 0000.0001) // =======================================================
(PID.TID 0000.0001) 
(PID.TID 0000.0001)  MDSREADFIELD: opening file: xx_theta.0000000000.001.001.data
(PID.TID 0000.0001)  MDSREADFIELD: opening file: xx_salt.0000000000.001.001.data
(PID.TID 0000.0001)  MDSREADFIELD: opening file: xx_hfl.0000000000.001.001.data
(PID.TID 0000.0001)  MDSREADFIELD: opening file: xx_hfl.0000000000.001.001.data
(PID.TID 0000.0001)  MDSREADFIELD: opening file: xx_hfl.0000000000.001.001.data
(PID.TID 0000.0001)  MDSREADFIELD: opening file: xx_hfl.0000000000.001.001.data
(PID.TID 0000.0001)  MDSREADFIELD: opening file: xx_sfl.0000000000.001.001.data
(PID.TID 0000.0001)  MDSREADFIELD: opening file: xx_sfl.0000000000.001.001.data
(PID.TID 0000.0001)  MDSREADFIELD: opening file: xx_sfl.0000000000.001.001.data
(PID.TID 0000.0001)  MDSREADFIELD: opening file: xx_sfl.0000000000.001.001.data
(PID.TID 0000.0001)  MDSREADFIELD: opening file: xx_tauu.0000000000.001.001.data
(PID.TID 0000.0001)  MDSREADFIELD: opening file: xx_tauu.0000000000.001.001.data
(PID.TID 0000.0001)  MDSREADFIELD: opening file: xx_tauu.0000000000.001.001.data
(PID.TID 0000.0001)  MDSREADFIELD: opening file: xx_tauu.0000000000.001.001.data
(PID.TID 0000.0001)  MDSREADFIELD: opening file: xx_tauv.0000000000.001.001.data
(PID.TID 0000.0001)  MDSREADFIELD: opening file: xx_tauv.0000000000.001.001.data
(PID.TID 0000.0001)  MDSREADFIELD: opening file: xx_tauv.0000000000.001.001.data
(PID.TID 0000.0001)  MDSREADFIELD: opening file: xx_tauv.0000000000.001.001.data
(PID.TID 0000.0001)  MDS_WRITE_RL_VEC: irec =  00000001   00015456
(PID.TID 0000.0001)  MDS_WRITE_RL_VEC: irec =  00000001   00015456
(PID.TID 0000.0001)  MDS_WRITE_RL_VEC: irec =  00000001   00015456
(PID.TID 0000.0001)  MDS_WRITE_RL_VEC: irec =  00000001   00015456
(PID.TID 0000.0001)  MDS_WRITE_RL_VEC: irec =  00000001   00015456
(PID.TID 0000.0001)  MDS_WRITE_RL_VEC: irec =  00000001   00015456
(PID.TID 0000.0001)  MDS_WRITE_RL_VEC: irec =  00000001   00015456
(PID.TID 0000.0001)  MDS_WRITE_RL_VEC: irec =  00000001   00015456
(PID.TID 0000.0001)  MDS_WRITE_RL_VEC: irec =  00000001   00015456
(PID.TID 0000.0001)  MDS_WRITE_RL_VEC: irec =  00000001   00000672
(PID.TID 0000.0001)  MDS_WRITE_RL_VEC: irec =  00000001   00015456
(PID.TID 0000.0001)  MDS_WRITE_RL_VEC: irec =  00000001   00015456
(PID.TID 0000.0001)  MDS_WRITE_RL_VEC: irec =  00000001   00015456
(PID.TID 0000.0001)  MDS_WRITE_RL_VEC: irec =  00000001   00015456
(PID.TID 0000.0001)  MDS_WRITE_RL_VEC: irec =  00000001   00000672
(PID.TID 0000.0001)  MDS_WRITE_RL_VEC: irec =  00000001   00015456
(PID.TID 0000.0001)  MDS_WRITE_RL_VEC: irec =  00000001   00015456
(PID.TID 0000.0001)  MDS_WRITE_RL_VEC: irec =  00000001   00015456
(PID.TID 0000.0001)  MDS_WRITE_RL_VEC: irec =  00000001   00015456
(PID.TID 0000.0001)  MDS_WRITE_RL_VEC: irec =  00000001   00000672
(PID.TID 0000.0001)  MDS_WRITE_RL_VEC: irec =  00000001   00000672
(PID.TID 0000.0001)  MDS_WRITE_RL_VEC: irec =  00000001   00000672
(PID.TID 0000.0001)  MDS_WRITE_RL_VEC: irec =  00000001   00000672
(PID.TID 0000.0001)  MDS_WRITE_RL_VEC: irec =  00000001   00000672
(PID.TID 0000.0001)  MDS_WRITE_RL_VEC: irec =  00000001   00000672
(PID.TID 0000.0001)  MDS_WRITE_RL_VEC: irec =  00000001   00000672
(PID.TID 0000.0001)  MDS_WRITE_RL_VEC: irec =  00000001   00000672
(PID.TID 0000.0001)  MDS_WRITE_RL_VEC: irec =  00000001   00000672
(PID.TID 0000.0001)  MDS_WRITE_RL_VEC: irec =  00000001   00000672
(PID.TID 0000.0001)  MDS_WRITE_RL_VEC: irec =  00000001   00000672
(PID.TID 0000.0001)  MDS_WRITE_RL_VEC: irec =  00000001   00000672
(PID.TID 0000.0001)  MDS_WRITE_RL_VEC: irec =  00000001   00000672
(PID.TID 0000.0001)  MDS_WRITE_RL_VEC: irec =  00000001   00000672
(PID.TID 0000.0001)  MDS_WRITE_RL_VEC: irec =  00000001   00000672
(PID.TID 0000.0001)  MDS_WRITE_RL_VEC: irec =  00000001   00000672
(PID.TID 0000.0001)  MDS_WRITE_RL_VEC: irec =  00000001   00000672
(PID.TID 0000.0001)  MDS_WRITE_RL_VEC: irec =  00000001   00000672
(PID.TID 0000.0001)  MDS_WRITE_RL_VEC: irec =  00000001   00000672
(PID.TID 0000.0001)  MDS_WRITE_RL_VEC: irec =  00000001   00000672
(PID.TID 0000.0001) 
(PID.TID 0000.0001)  exf_GetFFieldsRec: first, changed, fac:   T   F   0.16666667D+00
(PID.TID 0000.0001)  exf_GetFFieldsRec:      count0, count1:   2   3
(PID.TID 0000.0001) 
(PID.TID 0000.0001)  MDSREADFIELD: opening global file: PH_ustress__020_016_23.data
(PID.TID 0000.0001)  MDSREADFIELD: opening global file: PH_ustress__020_016_23.data
(PID.TID 0000.0001) 
(PID.TID 0000.0001)  exf_GetFFieldsRec: first, changed, fac:   T   F   0.16666667D+00
(PID.TID 0000.0001)  exf_GetFFieldsRec:      count0, count1:   2   3
(PID.TID 0000.0001) 
(PID.TID 0000.0001)  MDSREADFIELD: opening global file: PH_vstress__020_016_23.data
(PID.TID 0000.0001)  MDSREADFIELD: opening global file: PH_vstress__020_016_23.data
(PID.TID 0000.0001) 
(PID.TID 0000.0001)  exf_GetFFieldsRec: first, changed, fac:   T   F   0.20833333D+00
(PID.TID 0000.0001)  exf_GetFFieldsRec:      count0, count1:   1   2
(PID.TID 0000.0001) 
(PID.TID 0000.0001)  MDSREADFIELD: opening global file: PH_totflsfc__020_016_23.data
(PID.TID 0000.0001)  MDSREADFIELD: opening global file: PH_totflsfc__020_016_23.data
(PID.TID 0000.0001) 
(PID.TID 0000.0001)  exf_GetFFieldsRec: first, changed, fac:   T   F   0.20833333D+00
(PID.TID 0000.0001)  exf_GetFFieldsRec:      count0, count1:   1   2
(PID.TID 0000.0001) 
(PID.TID 0000.0001)  MDSREADFIELD: opening global file: PH_pratesfc__020_016_23.data
(PID.TID 0000.0001)  MDSREADFIELD: opening global file: PH_pratesfc__020_016_23.data
(PID.TID 0000.0001) 
(PID.TID 0000.0001)  exf_GetFFieldsRec: first, changed, fac:   T   F   0.20833333D+00
(PID.TID 0000.0001)  exf_GetFFieldsRec:      count0, count1:   1   2
(PID.TID 0000.0001) 
(PID.TID 0000.0001)  MDSREADFIELD: opening global file: PH_swflsfc__020_016_23.data
(PID.TID 0000.0001)  MDSREADFIELD: opening global file: PH_swflsfc__020_016_23.data
(PID.TID 0000.0001)  MDSREADFIELD: opening file: xx_hfl.0000000000.001.001.data
(PID.TID 0000.0001)  MDSREADFIELD: opening file: xx_hfl.0000000000.001.001.data
(PID.TID 0000.0001)  MDSREADFIELD: opening file: xx_sfl.0000000000.001.001.data
(PID.TID 0000.0001)  MDSREADFIELD: opening file: xx_sfl.0000000000.001.001.data
(PID.TID 0000.0001)  MDSREADFIELD: opening file: xx_tauu.0000000000.001.001.data
(PID.TID 0000.0001)  MDSREADFIELD: opening file: xx_tauu.0000000000.001.001.data
(PID.TID 0000.0001)  MDSREADFIELD: opening file: xx_tauv.0000000000.001.001.data
(PID.TID 0000.0001)  MDSREADFIELD: opening file: xx_tauv.0000000000.001.001.data
 cg2d: Sum(rhs),rhsMax =   2.90045765183322E-15  4.50737656431948E-01
(PID.TID 0000.0001)                    cg2d_init_res =    3.97910540908011E+00
(PID.TID 0000.0001)                       cg2d_iters =    50
(PID.TID 0000.0001)                         cg2d_res =    7.14109632366637E-14
(PID.TID 0000.0001) 
(PID.TID 0000.0001)  exf_GetFFieldsRec: first, changed, fac:   F   F   0.83333333D-01
(PID.TID 0000.0001)  exf_GetFFieldsRec:      count0, count1:   2   3
(PID.TID 0000.0001) 
(PID.TID 0000.0001) 
(PID.TID 0000.0001)  exf_GetFFieldsRec: first, changed, fac:   F   F   0.83333333D-01
(PID.TID 0000.0001)  exf_GetFFieldsRec:      count0, count1:   2   3
(PID.TID 0000.0001) 
(PID.TID 0000.0001) 
(PID.TID 0000.0001)  exf_GetFFieldsRec: first, changed, fac:   F   F   0.16666667D+00
(PID.TID 0000.0001)  exf_GetFFieldsRec:      count0, count1:   1   2
(PID.TID 0000.0001) 
(PID.TID 0000.0001) 
(PID.TID 0000.0001)  exf_GetFFieldsRec: first, changed, fac:   F   F   0.16666667D+00
(PID.TID 0000.0001)  exf_GetFFieldsRec:      count0, count1:   1   2
(PID.TID 0000.0001) 
(PID.TID 0000.0001) 
(PID.TID 0000.0001)  exf_GetFFieldsRec: first, changed, fac:   F   F   0.16666667D+00
(PID.TID 0000.0001)  exf_GetFFieldsRec:      count0, count1:   1   2
(PID.TID 0000.0001) 
 cg2d: Sum(rhs),rhsMax =   2.53963516883005E-15  5.55599808078902E-01
(PID.TID 0000.0001)                    cg2d_init_res =    9.18998576941769E-01
(PID.TID 0000.0001)                       cg2d_iters =    47
(PID.TID 0000.0001)                         cg2d_res =    7.10925822155873E-14
(PID.TID 0000.0001) 
(PID.TID 0000.0001)  exf_GetFFieldsRec: first, changed, fac:   F   T   0.10000000D+01
(PID.TID 0000.0001)  exf_GetFFieldsRec:      count0, count1:   3   4
(PID.TID 0000.0001) 
(PID.TID 0000.0001)  MDSREADFIELD: opening global file: PH_ustress__020_016_23.data
(PID.TID 0000.0001) 
(PID.TID 0000.0001)  exf_GetFFieldsRec: first, changed, fac:   F   T   0.10000000D+01
(PID.TID 0000.0001)  exf_GetFFieldsRec:      count0, count1:   3   4
(PID.TID 0000.0001) 
(PID.TID 0000.0001)  MDSREADFIELD: opening global file: PH_vstress__020_016_23.data
(PID.TID 0000.0001) 
(PID.TID 0000.0001)  exf_GetFFieldsRec: first, changed, fac:   F   F   0.12500000D+00
(PID.TID 0000.0001)  exf_GetFFieldsRec:      count0, count1:   1   2
(PID.TID 0000.0001) 
(PID.TID 0000.0001) 
(PID.TID 0000.0001)  exf_GetFFieldsRec: first, changed, fac:   F   F   0.12500000D+00
(PID.TID 0000.0001)  exf_GetFFieldsRec:      count0, count1:   1   2
(PID.TID 0000.0001) 
(PID.TID 0000.0001) 
(PID.TID 0000.0001)  exf_GetFFieldsRec: first, changed, fac:   F   F   0.12500000D+00
(PID.TID 0000.0001)  exf_GetFFieldsRec:      count0, count1:   1   2
(PID.TID 0000.0001) 
 cg2d: Sum(rhs),rhsMax =   6.66133814775094E-15  5.83126576740471E-01
(PID.TID 0000.0001)                    cg2d_init_res =    5.50763536382178E-01
(PID.TID 0000.0001)                       cg2d_iters =    46
(PID.TID 0000.0001)                         cg2d_res =    8.16100437856829E-14
(PID.TID 0000.0001) 
(PID.TID 0000.0001)  exf_GetFFieldsRec: first, changed, fac:   F   F   0.91666667D+00
(PID.TID 0000.0001)  exf_GetFFieldsRec:      count0, count1:   3   4
(PID.TID 0000.0001) 
(PID.TID 0000.0001) 
(PID.TID 0000.0001)  exf_GetFFieldsRec: first, changed, fac:   F   F   0.91666667D+00
(PID.TID 0000.0001)  exf_GetFFieldsRec:      count0, count1:   3   4
(PID.TID 0000.0001) 
(PID.TID 0000.0001) 
(PID.TID 0000.0001)  exf_GetFFieldsRec: first, changed, fac:   F   F   0.83333333D-01
(PID.TID 0000.0001)  exf_GetFFieldsRec:      count0, count1:   1   2
(PID.TID 0000.0001) 
(PID.TID 0000.0001) 
(PID.TID 0000.0001)  exf_GetFFieldsRec: first, changed, fac:   F   F   0.83333333D-01
(PID.TID 0000.0001)  exf_GetFFieldsRec:      count0, count1:   1   2
(PID.TID 0000.0001) 
(PID.TID 0000.0001) 
(PID.TID 0000.0001)  exf_GetFFieldsRec: first, changed, fac:   F   F   0.83333333D-01
(PID.TID 0000.0001)  exf_GetFFieldsRec:      count0, count1:   1   2
(PID.TID 0000.0001) 
 cg2d: Sum(rhs),rhsMax =   6.66133814775094E-16  6.06515181411473E-01
(PID.TID 0000.0001)                    cg2d_init_res =    2.97539835029499E-01
(PID.TID 0000.0001)                       cg2d_iters =    47
(PID.TID 0000.0001)                         cg2d_res =    4.80156696279047E-14
(PID.TID 0000.0001)  MDSREADFIELD: opening file: tbar.0000000000.001.001.data
(PID.TID 0000.0001)  MDSREADFIELD: opening global file: PH_SST_fields__020_016_23.data
(PID.TID 0000.0001)  MDSREADFIELD: opening file: tbar.0000000000.001.001.data
(PID.TID 0000.0001)  MDSREADFIELD: opening global file: PH_Lev.ptmp__020_016_23.data
(PID.TID 0000.0001)  MDSREADFIELD: opening file: sbar.0000000000.001.001.data
(PID.TID 0000.0001)  MDSREADFIELD: opening global file: PH_Lev.salt__020_016_23.data
(PID.TID 0000.0001)  MDSREADFIELD: opening file: psbar.0000000000.001.001.data
(PID.TID 0000.0001)  MDSREADFIELD: opening file: psbar.0000000000.001.001.data
(PID.TID 0000.0001)  MDSREADFIELD: opening global file: PH_TP_mean__020_016_23.data

  cost_ssh: offset_sum =    187.0000000000000    

(PID.TID 0000.0001)  MDSREADFIELD: opening file: psbar.0000000000.001.001.data
(PID.TID 0000.0001)  MDSREADFIELD: opening global file: PH_TP_fields__020_016_23.data
(PID.TID 0000.0001)  MDSREADFIELD: opening global file: PH_ERS_fields__020_016_23.data
(PID.TID 0000.0001)  MDSREADFIELD: opening file: psbar.0000000000.001.001.data
(PID.TID 0000.0001)  MDSREADFIELD: opening global file: PH_TP_fields__020_016_23.data
(PID.TID 0000.0001)  MDSREADFIELD: opening global file: PH_ERS_fields__020_016_23.data
(PID.TID 0000.0001)  MDSREADFIELD: opening file: tbar.0000000000.001.001.data
(PID.TID 0000.0001)  MDSREADFIELD: opening global file: PH_SST_fields__020_016_23.data
  --> objf_temp(bi,bj)    =   672.7408400947068    
  --> objf_salt(bi,bj)    =   127.5781358504213    
  --> objf_temp0(bi,bj)   =  0.0000000000000000E+00
  --> objf_salt0(bi,bj)   =  0.0000000000000000E+00
  --> objf_sst(bi,bj)     =   70.10588257510966    
  --> objf_sss(bi,bj)     =  0.0000000000000000E+00
  --> objf_h(bi,bj)       =   16.98122899805006    
  --> objf_hmean          =  0.8783272151292471    
  --> objf_tauu(bi,bj)    =  0.0000000000000000E+00
  --> objf_tauum(bi,bj)   =  0.0000000000000000E+00
  --> objf_tauv(bi,bj)    =  0.0000000000000000E+00
  --> objf_tauvm(bi,bj)   =  0.0000000000000000E+00
  --> objf_hflux(bi,bj)   =  0.0000000000000000E+00
  --> objf_hflux(bi,bj)   =  0.0000000000000000E+00
  --> objf_hflux(bi,bj)   =  0.0000000000000000E+00
  --> objf_sflux(bi,bj)   =  0.0000000000000000E+00
  --> objf_sflux(bi,bj)   =  0.0000000000000000E+00
  --> objf_sflux(bi,bj)   =  0.0000000000000000E+00
  --> objf_atl(bi,bj)     =  0.0000000000000000E+00
  --> objf_ctdt(bi,bj)    =  0.0000000000000000E+00
  --> objf_ctds(bi,bj)    =  0.0000000000000000E+00
  --> objf_xbt(bi,bj)     =  0.0000000000000000E+00
  --> objf_argot(bi,bj)   =  0.0000000000000000E+00
  --> objf_argos(bi,bj)   =  0.0000000000000000E+00
  --> objf_drift(bi,bj)   =  0.0000000000000000E+00
  --> objf_tdrift(bi,bj)  =  0.0000000000000000E+00
  --> objf_sdrift(bi,bj)  =  0.0000000000000000E+00
  --> objf_wdrift(bi,bj)  =  0.0000000000000000E+00
  --> objf_scatx(bi,bj)   =  0.0000000000000000E+00
  --> objf_scaty(bi,bj)   =  0.0000000000000000E+00
  --> objf_scatxm(bi,bj)  =  0.0000000000000000E+00
  --> objf_scatym(bi,bj)  =  0.0000000000000000E+00
  --> objf_uwind(bi,bj)   =  0.0000000000000000E+00
  --> objf_vwind(bi,bj)   =  0.0000000000000000E+00
  --> objf_atemp(bi,bj)   =  0.0000000000000000E+00
  --> objf_aqh(bi,bj)     =  0.0000000000000000E+00
  --> objf_obcsn(bi,bj)   =  0.0000000000000000E+00
  --> objf_obcss(bi,bj)   =  0.0000000000000000E+00
  --> objf_obcsw(bi,bj)   =  0.0000000000000000E+00
  --> objf_obcse(bi,bj)   =  0.0000000000000000E+00
  --> objf_hmean           =  0.8783272151292471    
  --> fc               =   888.2844147334170    
(PID.TID 0000.0001)  MDSREADFIELD: opening file: tbar.0000000000.001.001.data
(PID.TID 0000.0001)  MDSREADFIELD: opening global file: PH_SST_fields__020_016_23.data
(PID.TID 0000.0001)  MDSREADFIELD: opening file: adtbar.0000000000.001.001.data
(PID.TID 0000.0001)  MDSREADFIELD: opening file: adtbar.0000000000.001.001.data
(PID.TID 0000.0001)  MDSREADFIELD: opening file: adtbar.0000000000.001.001.data
(PID.TID 0000.0001)  MDSREADFIELD: opening file: adtbar.0000000000.001.001.data
(PID.TID 0000.0001)  MDSREADFIELD: opening file: adtbar.0000000000.001.001.data
(PID.TID 0000.0001)  MDSREADFIELD: opening file: adtbar.0000000000.001.001.data
(PID.TID 0000.0001)  MDSREADFIELD: opening file: adtbar.0000000000.001.001.data
(PID.TID 0000.0001)  MDSREADFIELD: opening file: adtbar.0000000000.001.001.data
(PID.TID 0000.0001)  MDSREADFIELD: opening file: adtbar.0000000000.001.001.data
(PID.TID 0000.0001)  MDSREADFIELD: opening file: adtbar.0000000000.001.001.data
(PID.TID 0000.0001)  MDSREADFIELD: opening file: adtbar.0000000000.001.001.data
(PID.TID 0000.0001)  MDSREADFIELD: opening file: adtbar.0000000000.001.001.data
(PID.TID 0000.0001)  MDSREADFIELD: opening file: adtbar.0000000000.001.001.data
(PID.TID 0000.0001)  MDSREADFIELD: opening file: adtbar.0000000000.001.001.data
(PID.TID 0000.0001)  MDSREADFIELD: opening file: adtbar.0000000000.001.001.data
(PID.TID 0000.0001)  MDSREADFIELD: opening file: adtbar.0000000000.001.001.data
(PID.TID 0000.0001)  MDSREADFIELD: opening file: adtbar.0000000000.001.001.data
(PID.TID 0000.0001)  MDSREADFIELD: opening file: adtbar.0000000000.001.001.data
(PID.TID 0000.0001)  MDSREADFIELD: opening file: adtbar.0000000000.001.001.data
(PID.TID 0000.0001)  MDSREADFIELD: opening file: adtbar.0000000000.001.001.data
(PID.TID 0000.0001)  MDSREADFIELD: opening file: adtbar.0000000000.001.001.data
(PID.TID 0000.0001)  MDSREADFIELD: opening file: adtbar.0000000000.001.001.data
(PID.TID 0000.0001)  MDSREADFIELD: opening file: adtbar.0000000000.001.001.data
(PID.TID 0000.0001)  MDSREADFIELD: opening file: psbar.0000000000.001.001.data
(PID.TID 0000.0001)  MDSREADFIELD: opening file: psbar.0000000000.001.001.data
(PID.TID 0000.0001)  MDSREADFIELD: opening global file: PH_TP_mean__020_016_23.data
(PID.TID 0000.0001)  MDSREADFIELD: opening file: psbar.0000000000.001.001.data
(PID.TID 0000.0001)  MDSREADFIELD: opening global file: PH_TP_fields__020_016_23.data
(PID.TID 0000.0001)  MDSREADFIELD: opening global file: PH_ERS_fields__020_016_23.data
(PID.TID 0000.0001)  MDSREADFIELD: opening file: adpsbar.0000000000.001.001.data
(PID.TID 0000.0001)  MDSREADFIELD: opening file: psbar.0000000000.001.001.data
(PID.TID 0000.0001)  MDSREADFIELD: opening global file: PH_TP_fields__020_016_23.data
(PID.TID 0000.0001)  MDSREADFIELD: opening global file: PH_ERS_fields__020_016_23.data
(PID.TID 0000.0001)  MDSREADFIELD: opening file: adpsbar.0000000000.001.001.data
(PID.TID 0000.0001)  MDSREADFIELD: opening file: adpsbar.0000000000.001.001.data
(PID.TID 0000.0001)  MDSREADFIELD: opening file: adpsbar.0000000000.001.001.data
(PID.TID 0000.0001)  MDSREADFIELD: opening file: sbar.0000000000.001.001.data
(PID.TID 0000.0001)  MDSREADFIELD: opening global file: PH_Lev.salt__020_016_23.data
(PID.TID 0000.0001)  MDSREADFIELD: opening file: adsbar.0000000000.001.001.data
(PID.TID 0000.0001)  MDSREADFIELD: opening file: adsbar.0000000000.001.001.data
(PID.TID 0000.0001)  MDSREADFIELD: opening file: adsbar.0000000000.001.001.data
(PID.TID 0000.0001)  MDSREADFIELD: opening file: adsbar.0000000000.001.001.data
(PID.TID 0000.0001)  MDSREADFIELD: opening file: adsbar.0000000000.001.001.data
(PID.TID 0000.0001)  MDSREADFIELD: opening file: adsbar.0000000000.001.001.data
(PID.TID 0000.0001)  MDSREADFIELD: opening file: adsbar.0000000000.001.001.data
(PID.TID 0000.0001)  MDSREADFIELD: opening file: adsbar.0000000000.001.001.data
(PID.TID 0000.0001)  MDSREADFIELD: opening file: adsbar.0000000000.001.001.data
(PID.TID 0000.0001)  MDSREADFIELD: opening file: adsbar.0000000000.001.001.data
(PID.TID 0000.0001)  MDSREADFIELD: opening file: adsbar.0000000000.001.001.data
(PID.TID 0000.0001)  MDSREADFIELD: opening file: adsbar.0000000000.001.001.data
(PID.TID 0000.0001)  MDSREADFIELD: opening file: adsbar.0000000000.001.001.data
(PID.TID 0000.0001)  MDSREADFIELD: opening file: adsbar.0000000000.001.001.data
(PID.TID 0000.0001)  MDSREADFIELD: opening file: adsbar.0000000000.001.001.data
(PID.TID 0000.0001)  MDSREADFIELD: opening file: adsbar.0000000000.001.001.data
(PID.TID 0000.0001)  MDSREADFIELD: opening file: adsbar.0000000000.001.001.data
(PID.TID 0000.0001)  MDSREADFIELD: opening file: adsbar.0000000000.001.001.data
(PID.TID 0000.0001)  MDSREADFIELD: opening file: adsbar.0000000000.001.001.data
(PID.TID 0000.0001)  MDSREADFIELD: opening file: adsbar.0000000000.001.001.data
(PID.TID 0000.0001)  MDSREADFIELD: opening file: adsbar.0000000000.001.001.data
(PID.TID 0000.0001)  MDSREADFIELD: opening file: adsbar.0000000000.001.001.data
(PID.TID 0000.0001)  MDSREADFIELD: opening file: adsbar.0000000000.001.001.data
(PID.TID 0000.0001)  MDSREADFIELD: opening file: tbar.0000000000.001.001.data
(PID.TID 0000.0001)  MDSREADFIELD: opening global file: PH_Lev.ptmp__020_016_23.data
(PID.TID 0000.0001)  MDSREADFIELD: opening file: adtbar.0000000000.001.001.data
(PID.TID 0000.0001)  MDSREADFIELD: opening file: adtbar.0000000000.001.001.data
(PID.TID 0000.0001)  MDSREADFIELD: opening file: adtbar.0000000000.001.001.data
(PID.TID 0000.0001)  MDSREADFIELD: opening file: adtbar.0000000000.001.001.data
(PID.TID 0000.0001)  MDSREADFIELD: opening file: adtbar.0000000000.001.001.data
(PID.TID 0000.0001)  MDSREADFIELD: opening file: adtbar.0000000000.001.001.data
(PID.TID 0000.0001)  MDSREADFIELD: opening file: adtbar.0000000000.001.001.data
(PID.TID 0000.0001)  MDSREADFIELD: opening file: adtbar.0000000000.001.001.data
(PID.TID 0000.0001)  MDSREADFIELD: opening file: adtbar.0000000000.001.001.data
(PID.TID 0000.0001)  MDSREADFIELD: opening file: adtbar.0000000000.001.001.data
(PID.TID 0000.0001)  MDSREADFIELD: opening file: adtbar.0000000000.001.001.data
(PID.TID 0000.0001)  MDSREADFIELD: opening file: adtbar.0000000000.001.001.data
(PID.TID 0000.0001)  MDSREADFIELD: opening file: adtbar.0000000000.001.001.data
(PID.TID 0000.0001)  MDSREADFIELD: opening file: adtbar.0000000000.001.001.data
(PID.TID 0000.0001)  MDSREADFIELD: opening file: adtbar.0000000000.001.001.data
(PID.TID 0000.0001)  MDSREADFIELD: opening file: adtbar.0000000000.001.001.data
(PID.TID 0000.0001)  MDSREADFIELD: opening file: adtbar.0000000000.001.001.data
(PID.TID 0000.0001)  MDSREADFIELD: opening file: adtbar.0000000000.001.001.data
(PID.TID 0000.0001)  MDSREADFIELD: opening file: adtbar.0000000000.001.001.data
(PID.TID 0000.0001)  MDSREADFIELD: opening file: adtbar.0000000000.001.001.data
(PID.TID 0000.0001)  MDSREADFIELD: opening file: adtbar.0000000000.001.001.data
(PID.TID 0000.0001)  MDSREADFIELD: opening file: adtbar.0000000000.001.001.data
(PID.TID 0000.0001)  MDSREADFIELD: opening file: adtbar.0000000000.001.001.data
(PID.TID 0000.0001)  MDSREADFIELD: opening file: tbar.0000000000.001.001.data
(PID.TID 0000.0001)  MDSREADFIELD: opening global file: PH_SST_fields__020_016_23.data
(PID.TID 0000.0001)  MDSREADFIELD: opening file: adtbar.0000000000.001.001.data
(PID.TID 0000.0001)  MDSREADFIELD: opening file: adtbar.0000000000.001.001.data
(PID.TID 0000.0001)  MDSREADFIELD: opening file: adtbar.0000000000.001.001.data
(PID.TID 0000.0001)  MDSREADFIELD: opening file: adtbar.0000000000.001.001.data
(PID.TID 0000.0001)  MDSREADFIELD: opening file: adtbar.0000000000.001.001.data
(PID.TID 0000.0001)  MDSREADFIELD: opening file: adtbar.0000000000.001.001.data
(PID.TID 0000.0001)  MDSREADFIELD: opening file: adtbar.0000000000.001.001.data
(PID.TID 0000.0001)  MDSREADFIELD: opening file: adtbar.0000000000.001.001.data
(PID.TID 0000.0001)  MDSREADFIELD: opening file: adtbar.0000000000.001.001.data
(PID.TID 0000.0001)  MDSREADFIELD: opening file: adtbar.0000000000.001.001.data
(PID.TID 0000.0001)  MDSREADFIELD: opening file: adtbar.0000000000.001.001.data
(PID.TID 0000.0001)  MDSREADFIELD: opening file: adtbar.0000000000.001.001.data
(PID.TID 0000.0001)  MDSREADFIELD: opening file: adtbar.0000000000.001.001.data
(PID.TID 0000.0001)  MDSREADFIELD: opening file: adtbar.0000000000.001.001.data
(PID.TID 0000.0001)  MDSREADFIELD: opening file: adtbar.0000000000.001.001.data
(PID.TID 0000.0001)  MDSREADFIELD: opening file: adtbar.0000000000.001.001.data
(PID.TID 0000.0001)  MDSREADFIELD: opening file: adtbar.0000000000.001.001.data
(PID.TID 0000.0001)  MDSREADFIELD: opening file: adtbar.0000000000.001.001.data
(PID.TID 0000.0001)  MDSREADFIELD: opening file: adtbar.0000000000.001.001.data
(PID.TID 0000.0001)  MDSREADFIELD: opening file: adtbar.0000000000.001.001.data
(PID.TID 0000.0001)  MDSREADFIELD: opening file: adtbar.0000000000.001.001.data
(PID.TID 0000.0001)  MDSREADFIELD: opening file: adtbar.0000000000.001.001.data
(PID.TID 0000.0001)  MDSREADFIELD: opening file: adtbar.0000000000.001.001.data
(PID.TID 0000.0001)  MDSREADFIELD: opening file: adsbar.0000000000.001.001.data
(PID.TID 0000.0001)  MDSREADFIELD: opening file: adsbar.0000000000.001.001.data
(PID.TID 0000.0001)  MDSREADFIELD: opening file: adsbar.0000000000.001.001.data
(PID.TID 0000.0001)  MDSREADFIELD: opening file: adsbar.0000000000.001.001.data
(PID.TID 0000.0001)  MDSREADFIELD: opening file: adsbar.0000000000.001.001.data
(PID.TID 0000.0001)  MDSREADFIELD: opening file: adsbar.0000000000.001.001.data
(PID.TID 0000.0001)  MDSREADFIELD: opening file: adsbar.0000000000.001.001.data
(PID.TID 0000.0001)  MDSREADFIELD: opening file: adsbar.0000000000.001.001.data
(PID.TID 0000.0001)  MDSREADFIELD: opening file: adsbar.0000000000.001.001.data
(PID.TID 0000.0001)  MDSREADFIELD: opening file: adsbar.0000000000.001.001.data
(PID.TID 0000.0001)  MDSREADFIELD: opening file: adsbar.0000000000.001.001.data
(PID.TID 0000.0001)  MDSREADFIELD: opening file: adsbar.0000000000.001.001.data
(PID.TID 0000.0001)  MDSREADFIELD: opening file: adsbar.0000000000.001.001.data
(PID.TID 0000.0001)  MDSREADFIELD: opening file: adsbar.0000000000.001.001.data
(PID.TID 0000.0001)  MDSREADFIELD: opening file: adsbar.0000000000.001.001.data
(PID.TID 0000.0001)  MDSREADFIELD: opening file: adsbar.0000000000.001.001.data
(PID.TID 0000.0001)  MDSREADFIELD: opening file: adsbar.0000000000.001.001.data
(PID.TID 0000.0001)  MDSREADFIELD: opening file: adsbar.0000000000.001.001.data
(PID.TID 0000.0001)  MDSREADFIELD: opening file: adsbar.0000000000.001.001.data
(PID.TID 0000.0001)  MDSREADFIELD: opening file: adsbar.0000000000.001.001.data
(PID.TID 0000.0001)  MDSREADFIELD: opening file: adsbar.0000000000.001.001.data
(PID.TID 0000.0001)  MDSREADFIELD: opening file: adsbar.0000000000.001.001.data
(PID.TID 0000.0001)  MDSREADFIELD: opening file: adsbar.0000000000.001.001.data
(PID.TID 0000.0001)  MDSREADFIELD: opening file: adtbar.0000000000.001.001.data
(PID.TID 0000.0001)  MDSREADFIELD: opening file: adtbar.0000000000.001.001.data
(PID.TID 0000.0001)  MDSREADFIELD: opening file: adtbar.0000000000.001.001.data
(PID.TID 0000.0001)  MDSREADFIELD: opening file: adtbar.0000000000.001.001.data
(PID.TID 0000.0001)  MDSREADFIELD: opening file: adtbar.0000000000.001.001.data
(PID.TID 0000.0001)  MDSREADFIELD: opening file: adtbar.0000000000.001.001.data
(PID.TID 0000.0001)  MDSREADFIELD: opening file: adtbar.0000000000.001.001.data
(PID.TID 0000.0001)  MDSREADFIELD: opening file: adtbar.0000000000.001.001.data
(PID.TID 0000.0001)  MDSREADFIELD: opening file: adtbar.0000000000.001.001.data
(PID.TID 0000.0001)  MDSREADFIELD: opening file: adtbar.0000000000.001.001.data
(PID.TID 0000.0001)  MDSREADFIELD: opening file: adtbar.0000000000.001.001.data
(PID.TID 0000.0001)  MDSREADFIELD: opening file: adtbar.0000000000.001.001.data
(PID.TID 0000.0001)  MDSREADFIELD: opening file: adtbar.0000000000.001.001.data
(PID.TID 0000.0001)  MDSREADFIELD: opening file: adtbar.0000000000.001.001.data
(PID.TID 0000.0001)  MDSREADFIELD: opening file: adtbar.0000000000.001.001.data
(PID.TID 0000.0001)  MDSREADFIELD: opening file: adtbar.0000000000.001.001.data
(PID.TID 0000.0001)  MDSREADFIELD: opening file: adtbar.0000000000.001.001.data
(PID.TID 0000.0001)  MDSREADFIELD: opening file: adtbar.0000000000.001.001.data
(PID.TID 0000.0001)  MDSREADFIELD: opening file: adtbar.0000000000.001.001.data
(PID.TID 0000.0001)  MDSREADFIELD: opening file: adtbar.0000000000.001.001.data
(PID.TID 0000.0001)  MDSREADFIELD: opening file: adtbar.0000000000.001.001.data
(PID.TID 0000.0001)  MDSREADFIELD: opening file: adtbar.0000000000.001.001.data
(PID.TID 0000.0001)  MDSREADFIELD: opening file: adtbar.0000000000.001.001.data
(PID.TID 0000.0001)  MDSREADFIELD: opening file: adpsbar.0000000000.001.001.data
(PID.TID 0000.0001)  MDSREADVECTOR: opening file: tapelev3_1_the_main_loop_gsnm1.it0000.001.001.data
(PID.TID 0000.0001)  MDS_READ_RL_VEC: irec =  00000001   00015456
(PID.TID 0000.0001)  MDSREADVECTOR: opening file: tapelev3_2_the_main_loop_gtnm1.it0000.001.001.data
(PID.TID 0000.0001)  MDS_READ_RL_VEC: irec =  00000001   00015456
(PID.TID 0000.0001)  MDSREADVECTOR: opening file: tapelev3_3_the_main_loop_gunm1.it0000.001.001.data
(PID.TID 0000.0001)  MDS_READ_RL_VEC: irec =  00000001   00015456
(PID.TID 0000.0001)  MDSREADVECTOR: opening file: tapelev3_4_the_main_loop_gvnm1.it0000.001.001.data
(PID.TID 0000.0001)  MDS_READ_RL_VEC: irec =  00000001   00015456
(PID.TID 0000.0001)  MDSREADVECTOR: opening file: tapelev3_5_the_main_loop_theta.it0000.001.001.data
(PID.TID 0000.0001)  MDS_READ_RL_VEC: irec =  00000001   00015456
(PID.TID 0000.0001)  MDSREADVECTOR: opening file: tapelev3_6_the_main_loop_salt.it0000.001.001.data
(PID.TID 0000.0001)  MDS_READ_RL_VEC: irec =  00000001   00015456
(PID.TID 0000.0001)  MDSREADVECTOR: opening file: tapelev3_7_the_main_loop_uvel.it0000.001.001.data
(PID.TID 0000.0001)  MDS_READ_RL_VEC: irec =  00000001   00015456
(PID.TID 0000.0001)  MDSREADVECTOR: opening file: tapelev3_8_the_main_loop_vvel.it0000.001.001.data
(PID.TID 0000.0001)  MDS_READ_RL_VEC: irec =  00000001   00015456
(PID.TID 0000.0001)  MDSREADVECTOR: opening file: tapelev3_9_the_main_loop_wvel.it0000.001.001.data
(PID.TID 0000.0001)  MDS_READ_RL_VEC: irec =  00000001   00015456
(PID.TID 0000.0001)  MDSREADVECTOR: opening file: tapelev3_10_the_main_loop_etan.it0000.001.001.data
(PID.TID 0000.0001)  MDS_READ_RL_VEC: irec =  00000001   00000672
(PID.TID 0000.0001)  MDSREADVECTOR: opening file: tapelev3_11_the_main_loop_gu.it0000.001.001.data
(PID.TID 0000.0001)  MDS_READ_RL_VEC: irec =  00000001   00015456
(PID.TID 0000.0001)  MDSREADVECTOR: opening file: tapelev3_12_the_main_loop_gv.it0000.001.001.data
(PID.TID 0000.0001)  MDS_READ_RL_VEC: irec =  00000001   00015456
(PID.TID 0000.0001)  MDSREADVECTOR: opening file: tapelev3_13_the_main_loop_uveld.it0000.001.001.data
(PID.TID 0000.0001)  MDS_READ_RL_VEC: irec =  00000001   00015456
(PID.TID 0000.0001)  MDSREADVECTOR: opening file: tapelev3_14_the_main_loop_vveld.it0000.001.001.data
(PID.TID 0000.0001)  MDS_READ_RL_VEC: irec =  00000001   00015456
(PID.TID 0000.0001)  MDSREADVECTOR: opening file: tapelev3_15_the_main_loop_etanm1.it0000.001.001.data
(PID.TID 0000.0001)  MDS_READ_RL_VEC: irec =  00000001   00000672
(PID.TID 0000.0001)  MDSREADVECTOR: opening file: tapelev3_16_the_main_loop_unm1.it0000.001.001.data
(PID.TID 0000.0001)  MDS_READ_RL_VEC: irec =  00000001   00015456
(PID.TID 0000.0001)  MDSREADVECTOR: opening file: tapelev3_17_the_main_loop_vnm1.it0000.001.001.data
(PID.TID 0000.0001)  MDS_READ_RL_VEC: irec =  00000001   00015456
(PID.TID 0000.0001)  MDSREADVECTOR: opening file: tapelev3_18_the_main_loop_gucd.it0000.001.001.data
(PID.TID 0000.0001)  MDS_READ_RL_VEC: irec =  00000001   00015456
(PID.TID 0000.0001)  MDSREADVECTOR: opening file: tapelev3_19_the_main_loop_gvcd.it0000.001.001.data
(PID.TID 0000.0001)  MDS_READ_RL_VEC: irec =  00000001   00015456
(PID.TID 0000.0001)  MDSREADVECTOR: opening file: tapelev3_20_the_main_loop_etah.it0000.001.001.data
(PID.TID 0000.0001)  MDS_READ_RL_VEC: irec =  00000001   00000672
(PID.TID 0000.0001)  MDSREADVECTOR: opening file: tapelev3_21_the_main_loop_hdivflow.it0000.001.001.data
(PID.TID 0000.0001)  MDS_READ_RL_VEC: irec =  00000001   00000672
(PID.TID 0000.0001)  MDSREADVECTOR: opening file: tapelev3_22_the_main_loop_hflux0.it0000.001.001.data
(PID.TID 0000.0001)  MDS_READ_RL_VEC: irec =  00000001   00000672
(PID.TID 0000.0001)  MDSREADVECTOR: opening file: tapelev3_23_the_main_loop_hflux1.it0000.001.001.data
(PID.TID 0000.0001)  MDS_READ_RL_VEC: irec =  00000001   00000672
(PID.TID 0000.0001)  MDSREADVECTOR: opening file: tapelev3_24_the_main_loop_sflux0.it0000.001.001.data
(PID.TID 0000.0001)  MDS_READ_RL_VEC: irec =  00000001   00000672
(PID.TID 0000.0001)  MDSREADVECTOR: opening file: tapelev3_25_the_main_loop_sflux1.it0000.001.001.data
(PID.TID 0000.0001)  MDS_READ_RL_VEC: irec =  00000001   00000672
(PID.TID 0000.0001)  MDSREADVECTOR: opening file: tapelev3_26_the_main_loop_swflux0.it0000.001.001.data
(PID.TID 0000.0001)  MDS_READ_RL_VEC: irec =  00000001   00000672
(PID.TID 0000.0001)  MDSREADVECTOR: opening file: tapelev3_27_the_main_loop_swflux1.it0000.001.001.data
(PID.TID 0000.0001)  MDS_READ_RL_VEC: irec =  00000001   00000672
(PID.TID 0000.0001)  MDSREADVECTOR: opening file: tapelev3_28_the_main_loop_ustress0.it0000.001.001.data
(PID.TID 0000.0001)  MDS_READ_RL_VEC: irec =  00000001   00000672
(PID.TID 0000.0001)  MDSREADVECTOR: opening file: tapelev3_29_the_main_loop_ustress1.it0000.001.001.data
(PID.TID 0000.0001)  MDS_READ_RL_VEC: irec =  00000001   00000672
(PID.TID 0000.0001)  MDSREADVECTOR: opening file: tapelev3_30_the_main_loop_vstress0.it0000.001.001.data
(PID.TID 0000.0001)  MDS_READ_RL_VEC: irec =  00000001   00000672
(PID.TID 0000.0001)  MDSREADVECTOR: opening file: tapelev3_31_the_main_loop_vstress1.it0000.001.001.data
(PID.TID 0000.0001)  MDS_READ_RL_VEC: irec =  00000001   00000672
(PID.TID 0000.0001)  MDSREADVECTOR: opening file: tapelev3_32_the_main_loop_xx_hflux0.it0000.001.001.data
(PID.TID 0000.0001)  MDS_READ_RL_VEC: irec =  00000001   00000672
(PID.TID 0000.0001)  MDSREADVECTOR: opening file: tapelev3_33_the_main_loop_xx_hflux1.it0000.001.001.data
(PID.TID 0000.0001)  MDS_READ_RL_VEC: irec =  00000001   00000672
(PID.TID 0000.0001)  MDSREADVECTOR: opening file: tapelev3_34_the_main_loop_xx_sflux0.it0000.001.001.data
(PID.TID 0000.0001)  MDS_READ_RL_VEC: irec =  00000001   00000672
(PID.TID 0000.0001)  MDSREADVECTOR: opening file: tapelev3_35_the_main_loop_xx_sflux1.it0000.001.001.data
(PID.TID 0000.0001)  MDS_READ_RL_VEC: irec =  00000001   00000672
(PID.TID 0000.0001)  MDSREADVECTOR: opening file: tapelev3_36_the_main_loop_xx_tauu0.it0000.001.001.data
(PID.TID 0000.0001)  MDS_READ_RL_VEC: irec =  00000001   00000672
(PID.TID 0000.0001)  MDSREADVECTOR: opening file: tapelev3_37_the_main_loop_xx_tauu1.it0000.001.001.data
(PID.TID 0000.0001)  MDS_READ_RL_VEC: irec =  00000001   00000672
(PID.TID 0000.0001)  MDSREADVECTOR: opening file: tapelev3_38_the_main_loop_xx_tauv0.it0000.001.001.data
(PID.TID 0000.0001)  MDS_READ_RL_VEC: irec =  00000001   00000672
(PID.TID 0000.0001)  MDSREADVECTOR: opening file: tapelev3_39_the_main_loop_xx_tauv1.it0000.001.001.data
(PID.TID 0000.0001)  MDS_READ_RL_VEC: irec =  00000001   00000672
(PID.TID 0000.0001)  MDS_WRITE_RL_VEC: irec =  00000001   00015456
(PID.TID 0000.0001)  MDS_WRITE_RL_VEC: irec =  00000001   00015456
(PID.TID 0000.0001)  MDS_WRITE_RL_VEC: irec =  00000001   00015456
(PID.TID 0000.0001)  MDS_WRITE_RL_VEC: irec =  00000001   00015456
(PID.TID 0000.0001)  MDS_WRITE_RL_VEC: irec =  00000001   00015456
(PID.TID 0000.0001)  MDS_WRITE_RL_VEC: irec =  00000001   00015456
(PID.TID 0000.0001)  MDS_WRITE_RL_VEC: irec =  00000001   00015456
(PID.TID 0000.0001)  MDS_WRITE_RL_VEC: irec =  00000001   00015456
(PID.TID 0000.0001)  MDS_WRITE_RL_VEC: irec =  00000001   00015456
(PID.TID 0000.0001)  MDS_WRITE_RL_VEC: irec =  00000001   00000672
(PID.TID 0000.0001)  MDS_WRITE_RL_VEC: irec =  00000001   00015456
(PID.TID 0000.0001)  MDS_WRITE_RL_VEC: irec =  00000001   00015456
(PID.TID 0000.0001)  MDS_WRITE_RL_VEC: irec =  00000001   00015456
(PID.TID 0000.0001)  MDS_WRITE_RL_VEC: irec =  00000001   00015456
(PID.TID 0000.0001)  MDS_WRITE_RL_VEC: irec =  00000001   00000672
(PID.TID 0000.0001)  MDS_WRITE_RL_VEC: irec =  00000001   00015456
(PID.TID 0000.0001)  MDS_WRITE_RL_VEC: irec =  00000001   00015456
(PID.TID 0000.0001)  MDS_WRITE_RL_VEC: irec =  00000001   00015456
(PID.TID 0000.0001)  MDS_WRITE_RL_VEC: irec =  00000001   00015456
(PID.TID 0000.0001)  MDS_WRITE_RL_VEC: irec =  00000001   00000672
(PID.TID 0000.0001)  MDS_WRITE_RL_VEC: irec =  00000001   00000672
(PID.TID 0000.0001)  MDS_WRITE_RL_VEC: irec =  00000001   00000672
(PID.TID 0000.0001)  MDS_WRITE_RL_VEC: irec =  00000001   00000672
(PID.TID 0000.0001)  MDS_WRITE_RL_VEC: irec =  00000001   00000672
(PID.TID 0000.0001)  MDS_WRITE_RL_VEC: irec =  00000001   00000672
(PID.TID 0000.0001)  MDS_WRITE_RL_VEC: irec =  00000001   00000672
(PID.TID 0000.0001)  MDS_WRITE_RL_VEC: irec =  00000001   00000672
(PID.TID 0000.0001)  MDS_WRITE_RL_VEC: irec =  00000001   00000672
(PID.TID 0000.0001)  MDS_WRITE_RL_VEC: irec =  00000001   00000672
(PID.TID 0000.0001)  MDS_WRITE_RL_VEC: irec =  00000001   00000672
(PID.TID 0000.0001)  MDS_WRITE_RL_VEC: irec =  00000001   00000672
(PID.TID 0000.0001)  MDS_WRITE_RL_VEC: irec =  00000001   00000672
(PID.TID 0000.0001)  MDS_WRITE_RL_VEC: irec =  00000001   00000672
(PID.TID 0000.0001)  MDS_WRITE_RL_VEC: irec =  00000001   00000672
(PID.TID 0000.0001)  MDS_WRITE_RL_VEC: irec =  00000001   00000672
(PID.TID 0000.0001)  MDS_WRITE_RL_VEC: irec =  00000001   00000672
(PID.TID 0000.0001)  MDS_WRITE_RL_VEC: irec =  00000001   00000672
(PID.TID 0000.0001)  MDS_WRITE_RL_VEC: irec =  00000001   00000672
(PID.TID 0000.0001)  MDS_WRITE_RL_VEC: irec =  00000001   00000672
(PID.TID 0000.0001) 
(PID.TID 0000.0001)  exf_GetFFieldsRec: first, changed, fac:   T   F   0.16666667D+00
(PID.TID 0000.0001)  exf_GetFFieldsRec:      count0, count1:   2   3
(PID.TID 0000.0001) 
(PID.TID 0000.0001)  MDSREADFIELD: opening global file: PH_ustress__020_016_23.data
(PID.TID 0000.0001)  MDSREADFIELD: opening global file: PH_ustress__020_016_23.data
(PID.TID 0000.0001) 
(PID.TID 0000.0001)  exf_GetFFieldsRec: first, changed, fac:   T   F   0.16666667D+00
(PID.TID 0000.0001)  exf_GetFFieldsRec:      count0, count1:   2   3
(PID.TID 0000.0001) 
(PID.TID 0000.0001)  MDSREADFIELD: opening global file: PH_vstress__020_016_23.data
(PID.TID 0000.0001)  MDSREADFIELD: opening global file: PH_vstress__020_016_23.data
(PID.TID 0000.0001) 
(PID.TID 0000.0001)  exf_GetFFieldsRec: first, changed, fac:   T   F   0.20833333D+00
(PID.TID 0000.0001)  exf_GetFFieldsRec:      count0, count1:   1   2
(PID.TID 0000.0001) 
(PID.TID 0000.0001)  MDSREADFIELD: opening global file: PH_totflsfc__020_016_23.data
(PID.TID 0000.0001)  MDSREADFIELD: opening global file: PH_totflsfc__020_016_23.data
(PID.TID 0000.0001) 
(PID.TID 0000.0001)  exf_GetFFieldsRec: first, changed, fac:   T   F   0.20833333D+00
(PID.TID 0000.0001)  exf_GetFFieldsRec:      count0, count1:   1   2
(PID.TID 0000.0001) 
(PID.TID 0000.0001)  MDSREADFIELD: opening global file: PH_pratesfc__020_016_23.data
(PID.TID 0000.0001)  MDSREADFIELD: opening global file: PH_pratesfc__020_016_23.data
(PID.TID 0000.0001) 
(PID.TID 0000.0001)  exf_GetFFieldsRec: first, changed, fac:   T   F   0.20833333D+00
(PID.TID 0000.0001)  exf_GetFFieldsRec:      count0, count1:   1   2
(PID.TID 0000.0001) 
(PID.TID 0000.0001)  MDSREADFIELD: opening global file: PH_swflsfc__020_016_23.data
(PID.TID 0000.0001)  MDSREADFIELD: opening global file: PH_swflsfc__020_016_23.data
(PID.TID 0000.0001)  MDSREADFIELD: opening file: xx_hfl.0000000000.001.001.data
(PID.TID 0000.0001)  MDSREADFIELD: opening file: xx_hfl.0000000000.001.001.data
(PID.TID 0000.0001)  MDSREADFIELD: opening file: xx_sfl.0000000000.001.001.data
(PID.TID 0000.0001)  MDSREADFIELD: opening file: xx_sfl.0000000000.001.001.data
(PID.TID 0000.0001)  MDSREADFIELD: opening file: xx_tauu.0000000000.001.001.data
(PID.TID 0000.0001)  MDSREADFIELD: opening file: xx_tauu.0000000000.001.001.data
(PID.TID 0000.0001)  MDSREADFIELD: opening file: xx_tauv.0000000000.001.001.data
(PID.TID 0000.0001)  MDSREADFIELD: opening file: xx_tauv.0000000000.001.001.data
 cg2d: Sum(rhs),rhsMax =   2.90045765183322E-15  4.50737656431948E-01
(PID.TID 0000.0001)                    cg2d_init_res =    3.97910540908011E+00
(PID.TID 0000.0001)                       cg2d_iters =    50
(PID.TID 0000.0001)                         cg2d_res =    7.14109632366637E-14
(PID.TID 0000.0001) 
(PID.TID 0000.0001)  exf_GetFFieldsRec: first, changed, fac:   F   F   0.83333333D-01
(PID.TID 0000.0001)  exf_GetFFieldsRec:      count0, count1:   2   3
(PID.TID 0000.0001) 
(PID.TID 0000.0001) 
(PID.TID 0000.0001)  exf_GetFFieldsRec: first, changed, fac:   F   F   0.83333333D-01
(PID.TID 0000.0001)  exf_GetFFieldsRec:      count0, count1:   2   3
(PID.TID 0000.0001) 
(PID.TID 0000.0001) 
(PID.TID 0000.0001)  exf_GetFFieldsRec: first, changed, fac:   F   F   0.16666667D+00
(PID.TID 0000.0001)  exf_GetFFieldsRec:      count0, count1:   1   2
(PID.TID 0000.0001) 
(PID.TID 0000.0001) 
(PID.TID 0000.0001)  exf_GetFFieldsRec: first, changed, fac:   F   F   0.16666667D+00
(PID.TID 0000.0001)  exf_GetFFieldsRec:      count0, count1:   1   2
(PID.TID 0000.0001) 
(PID.TID 0000.0001) 
(PID.TID 0000.0001)  exf_GetFFieldsRec: first, changed, fac:   F   F   0.16666667D+00
(PID.TID 0000.0001)  exf_GetFFieldsRec:      count0, count1:   1   2
(PID.TID 0000.0001) 
 cg2d: Sum(rhs),rhsMax =   2.53963516883005E-15  5.55599808078902E-01
(PID.TID 0000.0001)                    cg2d_init_res =    9.18998576941769E-01
(PID.TID 0000.0001)                       cg2d_iters =    47
(PID.TID 0000.0001)                         cg2d_res =    7.10925822155873E-14
(PID.TID 0000.0001) 
(PID.TID 0000.0001)  exf_GetFFieldsRec: first, changed, fac:   F   T   0.10000000D+01
(PID.TID 0000.0001)  exf_GetFFieldsRec:      count0, count1:   3   4
(PID.TID 0000.0001) 
(PID.TID 0000.0001)  MDSREADFIELD: opening global file: PH_ustress__020_016_23.data
(PID.TID 0000.0001) 
(PID.TID 0000.0001)  exf_GetFFieldsRec: first, changed, fac:   F   T   0.10000000D+01
(PID.TID 0000.0001)  exf_GetFFieldsRec:      count0, count1:   3   4
(PID.TID 0000.0001) 
(PID.TID 0000.0001)  MDSREADFIELD: opening global file: PH_vstress__020_016_23.data
(PID.TID 0000.0001) 
(PID.TID 0000.0001)  exf_GetFFieldsRec: first, changed, fac:   F   F   0.12500000D+00
(PID.TID 0000.0001)  exf_GetFFieldsRec:      count0, count1:   1   2
(PID.TID 0000.0001) 
(PID.TID 0000.0001) 
(PID.TID 0000.0001)  exf_GetFFieldsRec: first, changed, fac:   F   F   0.12500000D+00
(PID.TID 0000.0001)  exf_GetFFieldsRec:      count0, count1:   1   2
(PID.TID 0000.0001) 
(PID.TID 0000.0001) 
(PID.TID 0000.0001)  exf_GetFFieldsRec: first, changed, fac:   F   F   0.12500000D+00
(PID.TID 0000.0001)  exf_GetFFieldsRec:      count0, count1:   1   2
(PID.TID 0000.0001) 
 cg2d: Sum(rhs),rhsMax =   6.66133814775094E-15  5.83126576740471E-01
(PID.TID 0000.0001)                    cg2d_init_res =    5.50763536382178E-01
(PID.TID 0000.0001)                       cg2d_iters =    46
(PID.TID 0000.0001)                         cg2d_res =    8.16100437856829E-14
(PID.TID 0000.0001) 
(PID.TID 0000.0001)  exf_GetFFieldsRec: first, changed, fac:   F   F   0.91666667D+00
(PID.TID 0000.0001)  exf_GetFFieldsRec:      count0, count1:   3   4
(PID.TID 0000.0001) 
(PID.TID 0000.0001) 
(PID.TID 0000.0001)  exf_GetFFieldsRec: first, changed, fac:   F   F   0.91666667D+00
(PID.TID 0000.0001)  exf_GetFFieldsRec:      count0, count1:   3   4
(PID.TID 0000.0001) 
(PID.TID 0000.0001) 
(PID.TID 0000.0001)  exf_GetFFieldsRec: first, changed, fac:   F   F   0.83333333D-01
(PID.TID 0000.0001)  exf_GetFFieldsRec:      count0, count1:   1   2
(PID.TID 0000.0001) 
(PID.TID 0000.0001) 
(PID.TID 0000.0001)  exf_GetFFieldsRec: first, changed, fac:   F   F   0.83333333D-01
(PID.TID 0000.0001)  exf_GetFFieldsRec:      count0, count1:   1   2
(PID.TID 0000.0001) 
(PID.TID 0000.0001) 
(PID.TID 0000.0001)  exf_GetFFieldsRec: first, changed, fac:   F   F   0.83333333D-01
(PID.TID 0000.0001)  exf_GetFFieldsRec:      count0, count1:   1   2
(PID.TID 0000.0001) 
 cg2d: Sum(rhs),rhsMax =   6.66133814775094E-16  6.06515181411473E-01
(PID.TID 0000.0001)                    cg2d_init_res =    2.97539835029499E-01
(PID.TID 0000.0001)                       cg2d_iters =    47
(PID.TID 0000.0001)                         cg2d_res =    4.80156696279047E-14
(PID.TID 0000.0001)  MDSREADVECTOR: opening file: tapelev2_1_the_main_loop_gsnm1.it0000.001.001.data
(PID.TID 0000.0001)  MDS_READ_RL_VEC: irec =  00000001   00015456
(PID.TID 0000.0001)  MDSREADVECTOR: opening file: tapelev2_2_the_main_loop_gtnm1.it0000.001.001.data
(PID.TID 0000.0001)  MDS_READ_RL_VEC: irec =  00000001   00015456
(PID.TID 0000.0001)  MDSREADVECTOR: opening file: tapelev2_3_the_main_loop_gunm1.it0000.001.001.data
(PID.TID 0000.0001)  MDS_READ_RL_VEC: irec =  00000001   00015456
(PID.TID 0000.0001)  MDSREADVECTOR: opening file: tapelev2_4_the_main_loop_gvnm1.it0000.001.001.data
(PID.TID 0000.0001)  MDS_READ_RL_VEC: irec =  00000001   00015456
(PID.TID 0000.0001)  MDSREADVECTOR: opening file: tapelev2_5_the_main_loop_theta.it0000.001.001.data
(PID.TID 0000.0001)  MDS_READ_RL_VEC: irec =  00000001   00015456
(PID.TID 0000.0001)  MDSREADVECTOR: opening file: tapelev2_6_the_main_loop_salt.it0000.001.001.data
(PID.TID 0000.0001)  MDS_READ_RL_VEC: irec =  00000001   00015456
(PID.TID 0000.0001)  MDSREADVECTOR: opening file: tapelev2_7_the_main_loop_uvel.it0000.001.001.data
(PID.TID 0000.0001)  MDS_READ_RL_VEC: irec =  00000001   00015456
(PID.TID 0000.0001)  MDSREADVECTOR: opening file: tapelev2_8_the_main_loop_vvel.it0000.001.001.data
(PID.TID 0000.0001)  MDS_READ_RL_VEC: irec =  00000001   00015456
(PID.TID 0000.0001)  MDSREADVECTOR: opening file: tapelev2_9_the_main_loop_wvel.it0000.001.001.data
(PID.TID 0000.0001)  MDS_READ_RL_VEC: irec =  00000001   00015456
(PID.TID 0000.0001)  MDSREADVECTOR: opening file: tapelev2_10_the_main_loop_etan.it0000.001.001.data
(PID.TID 0000.0001)  MDS_READ_RL_VEC: irec =  00000001   00000672
(PID.TID 0000.0001)  MDSREADVECTOR: opening file: tapelev2_11_the_main_loop_gu.it0000.001.001.data
(PID.TID 0000.0001)  MDS_READ_RL_VEC: irec =  00000001   00015456
(PID.TID 0000.0001)  MDSREADVECTOR: opening file: tapelev2_12_the_main_loop_gv.it0000.001.001.data
(PID.TID 0000.0001)  MDS_READ_RL_VEC: irec =  00000001   00015456
(PID.TID 0000.0001)  MDSREADVECTOR: opening file: tapelev2_13_the_main_loop_uveld.it0000.001.001.data
(PID.TID 0000.0001)  MDS_READ_RL_VEC: irec =  00000001   00015456
(PID.TID 0000.0001)  MDSREADVECTOR: opening file: tapelev2_14_the_main_loop_vveld.it0000.001.001.data
(PID.TID 0000.0001)  MDS_READ_RL_VEC: irec =  00000001   00015456
(PID.TID 0000.0001)  MDSREADVECTOR: opening file: tapelev2_15_the_main_loop_etanm1.it0000.001.001.data
(PID.TID 0000.0001)  MDS_READ_RL_VEC: irec =  00000001   00000672
(PID.TID 0000.0001)  MDSREADVECTOR: opening file: tapelev2_16_the_main_loop_unm1.it0000.001.001.data
(PID.TID 0000.0001)  MDS_READ_RL_VEC: irec =  00000001   00015456
(PID.TID 0000.0001)  MDSREADVECTOR: opening file: tapelev2_17_the_main_loop_vnm1.it0000.001.001.data
(PID.TID 0000.0001)  MDS_READ_RL_VEC: irec =  00000001   00015456
(PID.TID 0000.0001)  MDSREADVECTOR: opening file: tapelev2_18_the_main_loop_gucd.it0000.001.001.data
(PID.TID 0000.0001)  MDS_READ_RL_VEC: irec =  00000001   00015456
(PID.TID 0000.0001)  MDSREADVECTOR: opening file: tapelev2_19_the_main_loop_gvcd.it0000.001.001.data
(PID.TID 0000.0001)  MDS_READ_RL_VEC: irec =  00000001   00015456
(PID.TID 0000.0001)  MDSREADVECTOR: opening file: tapelev2_20_the_main_loop_etah.it0000.001.001.data
(PID.TID 0000.0001)  MDS_READ_RL_VEC: irec =  00000001   00000672
(PID.TID 0000.0001)  MDSREADVECTOR: opening file: tapelev2_21_the_main_loop_hdivflow.it0000.001.001.data
(PID.TID 0000.0001)  MDS_READ_RL_VEC: irec =  00000001   00000672
(PID.TID 0000.0001)  MDSREADVECTOR: opening file: tapelev2_22_the_main_loop_hflux0.it0000.001.001.data
(PID.TID 0000.0001)  MDS_READ_RL_VEC: irec =  00000001   00000672
(PID.TID 0000.0001)  MDSREADVECTOR: opening file: tapelev2_23_the_main_loop_hflux1.it0000.001.001.data
(PID.TID 0000.0001)  MDS_READ_RL_VEC: irec =  00000001   00000672
(PID.TID 0000.0001)  MDSREADVECTOR: opening file: tapelev2_24_the_main_loop_sflux0.it0000.001.001.data
(PID.TID 0000.0001)  MDS_READ_RL_VEC: irec =  00000001   00000672
(PID.TID 0000.0001)  MDSREADVECTOR: opening file: tapelev2_25_the_main_loop_sflux1.it0000.001.001.data
(PID.TID 0000.0001)  MDS_READ_RL_VEC: irec =  00000001   00000672
(PID.TID 0000.0001)  MDSREADVECTOR: opening file: tapelev2_26_the_main_loop_swflux0.it0000.001.001.data
(PID.TID 0000.0001)  MDS_READ_RL_VEC: irec =  00000001   00000672
(PID.TID 0000.0001)  MDSREADVECTOR: opening file: tapelev2_27_the_main_loop_swflux1.it0000.001.001.data
(PID.TID 0000.0001)  MDS_READ_RL_VEC: irec =  00000001   00000672
(PID.TID 0000.0001)  MDSREADVECTOR: opening file: tapelev2_28_the_main_loop_ustress0.it0000.001.001.data
(PID.TID 0000.0001)  MDS_READ_RL_VEC: irec =  00000001   00000672
(PID.TID 0000.0001)  MDSREADVECTOR: opening file: tapelev2_29_the_main_loop_ustress1.it0000.001.001.data
(PID.TID 0000.0001)  MDS_READ_RL_VEC: irec =  00000001   00000672
(PID.TID 0000.0001)  MDSREADVECTOR: opening file: tapelev2_30_the_main_loop_vstress0.it0000.001.001.data
(PID.TID 0000.0001)  MDS_READ_RL_VEC: irec =  00000001   00000672
(PID.TID 0000.0001)  MDSREADVECTOR: opening file: tapelev2_31_the_main_loop_vstress1.it0000.001.001.data
(PID.TID 0000.0001)  MDS_READ_RL_VEC: irec =  00000001   00000672
(PID.TID 0000.0001)  MDSREADVECTOR: opening file: tapelev2_32_the_main_loop_xx_hflux0.it0000.001.001.data
(PID.TID 0000.0001)  MDS_READ_RL_VEC: irec =  00000001   00000672
(PID.TID 0000.0001)  MDSREADVECTOR: opening file: tapelev2_33_the_main_loop_xx_hflux1.it0000.001.001.data
(PID.TID 0000.0001)  MDS_READ_RL_VEC: irec =  00000001   00000672
(PID.TID 0000.0001)  MDSREADVECTOR: opening file: tapelev2_34_the_main_loop_xx_sflux0.it0000.001.001.data
(PID.TID 0000.0001)  MDS_READ_RL_VEC: irec =  00000001   00000672
(PID.TID 0000.0001)  MDSREADVECTOR: opening file: tapelev2_35_the_main_loop_xx_sflux1.it0000.001.001.data
(PID.TID 0000.0001)  MDS_READ_RL_VEC: irec =  00000001   00000672
(PID.TID 0000.0001)  MDSREADVECTOR: opening file: tapelev2_36_the_main_loop_xx_tauu0.it0000.001.001.data
(PID.TID 0000.0001)  MDS_READ_RL_VEC: irec =  00000001   00000672
(PID.TID 0000.0001)  MDSREADVECTOR: opening file: tapelev2_37_the_main_loop_xx_tauu1.it0000.001.001.data
(PID.TID 0000.0001)  MDS_READ_RL_VEC: irec =  00000001   00000672
(PID.TID 0000.0001)  MDSREADVECTOR: opening file: tapelev2_38_the_main_loop_xx_tauv0.it0000.001.001.data
(PID.TID 0000.0001)  MDS_READ_RL_VEC: irec =  00000001   00000672
(PID.TID 0000.0001)  MDSREADVECTOR: opening file: tapelev2_39_the_main_loop_xx_tauv1.it0000.001.001.data
(PID.TID 0000.0001)  MDS_READ_RL_VEC: irec =  00000001   00000672
(PID.TID 0000.0001) 
(PID.TID 0000.0001)  exf_GetFFieldsRec: first, changed, fac:   T   F   0.16666667D+00
(PID.TID 0000.0001)  exf_GetFFieldsRec:      count0, count1:   2   3
(PID.TID 0000.0001) 
(PID.TID 0000.0001)  MDSREADFIELD: opening global file: PH_ustress__020_016_23.data
(PID.TID 0000.0001)  MDSREADFIELD: opening global file: PH_ustress__020_016_23.data
(PID.TID 0000.0001) 
(PID.TID 0000.0001)  exf_GetFFieldsRec: first, changed, fac:   T   F   0.16666667D+00
(PID.TID 0000.0001)  exf_GetFFieldsRec:      count0, count1:   2   3
(PID.TID 0000.0001) 
(PID.TID 0000.0001)  MDSREADFIELD: opening global file: PH_vstress__020_016_23.data
(PID.TID 0000.0001)  MDSREADFIELD: opening global file: PH_vstress__020_016_23.data
(PID.TID 0000.0001) 
(PID.TID 0000.0001)  exf_GetFFieldsRec: first, changed, fac:   T   F   0.20833333D+00
(PID.TID 0000.0001)  exf_GetFFieldsRec:      count0, count1:   1   2
(PID.TID 0000.0001) 
(PID.TID 0000.0001)  MDSREADFIELD: opening global file: PH_totflsfc__020_016_23.data
(PID.TID 0000.0001)  MDSREADFIELD: opening global file: PH_totflsfc__020_016_23.data
(PID.TID 0000.0001) 
(PID.TID 0000.0001)  exf_GetFFieldsRec: first, changed, fac:   T   F   0.20833333D+00
(PID.TID 0000.0001)  exf_GetFFieldsRec:      count0, count1:   1   2
(PID.TID 0000.0001) 
(PID.TID 0000.0001)  MDSREADFIELD: opening global file: PH_pratesfc__020_016_23.data
(PID.TID 0000.0001)  MDSREADFIELD: opening global file: PH_pratesfc__020_016_23.data
(PID.TID 0000.0001) 
(PID.TID 0000.0001)  exf_GetFFieldsRec: first, changed, fac:   T   F   0.20833333D+00
(PID.TID 0000.0001)  exf_GetFFieldsRec:      count0, count1:   1   2
(PID.TID 0000.0001) 
(PID.TID 0000.0001)  MDSREADFIELD: opening global file: PH_swflsfc__020_016_23.data
(PID.TID 0000.0001)  MDSREADFIELD: opening global file: PH_swflsfc__020_016_23.data
(PID.TID 0000.0001)  MDSREADFIELD: opening file: xx_hfl.0000000000.001.001.data
(PID.TID 0000.0001)  MDSREADFIELD: opening file: xx_hfl.0000000000.001.001.data
(PID.TID 0000.0001)  MDSREADFIELD: opening file: xx_sfl.0000000000.001.001.data
(PID.TID 0000.0001)  MDSREADFIELD: opening file: xx_sfl.0000000000.001.001.data
(PID.TID 0000.0001)  MDSREADFIELD: opening file: xx_tauu.0000000000.001.001.data
(PID.TID 0000.0001)  MDSREADFIELD: opening file: xx_tauu.0000000000.001.001.data
(PID.TID 0000.0001)  MDSREADFIELD: opening file: xx_tauv.0000000000.001.001.data
(PID.TID 0000.0001)  MDSREADFIELD: opening file: xx_tauv.0000000000.001.001.data
 cg2d: Sum(rhs),rhsMax =   2.90045765183322E-15  4.50737656431948E-01
(PID.TID 0000.0001)                    cg2d_init_res =    3.97910540908011E+00
(PID.TID 0000.0001)                       cg2d_iters =    50
(PID.TID 0000.0001)                         cg2d_res =    7.14109632366637E-14
(PID.TID 0000.0001) 
(PID.TID 0000.0001)  exf_GetFFieldsRec: first, changed, fac:   F   F   0.83333333D-01
(PID.TID 0000.0001)  exf_GetFFieldsRec:      count0, count1:   2   3
(PID.TID 0000.0001) 
(PID.TID 0000.0001) 
(PID.TID 0000.0001)  exf_GetFFieldsRec: first, changed, fac:   F   F   0.83333333D-01
(PID.TID 0000.0001)  exf_GetFFieldsRec:      count0, count1:   2   3
(PID.TID 0000.0001) 
(PID.TID 0000.0001) 
(PID.TID 0000.0001)  exf_GetFFieldsRec: first, changed, fac:   F   F   0.16666667D+00
(PID.TID 0000.0001)  exf_GetFFieldsRec:      count0, count1:   1   2
(PID.TID 0000.0001) 
(PID.TID 0000.0001) 
(PID.TID 0000.0001)  exf_GetFFieldsRec: first, changed, fac:   F   F   0.16666667D+00
(PID.TID 0000.0001)  exf_GetFFieldsRec:      count0, count1:   1   2
(PID.TID 0000.0001) 
(PID.TID 0000.0001) 
(PID.TID 0000.0001)  exf_GetFFieldsRec: first, changed, fac:   F   F   0.16666667D+00
(PID.TID 0000.0001)  exf_GetFFieldsRec:      count0, count1:   1   2
(PID.TID 0000.0001) 
 cg2d: Sum(rhs),rhsMax =   2.53963516883005E-15  5.55599808078902E-01
(PID.TID 0000.0001)                    cg2d_init_res =    9.18998576941769E-01
(PID.TID 0000.0001)                       cg2d_iters =    47
(PID.TID 0000.0001)                         cg2d_res =    7.10925822155873E-14
(PID.TID 0000.0001) 
(PID.TID 0000.0001)  exf_GetFFieldsRec: first, changed, fac:   F   T   0.10000000D+01
(PID.TID 0000.0001)  exf_GetFFieldsRec:      count0, count1:   3   4
(PID.TID 0000.0001) 
(PID.TID 0000.0001)  MDSREADFIELD: opening global file: PH_ustress__020_016_23.data
(PID.TID 0000.0001) 
(PID.TID 0000.0001)  exf_GetFFieldsRec: first, changed, fac:   F   T   0.10000000D+01
(PID.TID 0000.0001)  exf_GetFFieldsRec:      count0, count1:   3   4
(PID.TID 0000.0001) 
(PID.TID 0000.0001)  MDSREADFIELD: opening global file: PH_vstress__020_016_23.data
(PID.TID 0000.0001) 
(PID.TID 0000.0001)  exf_GetFFieldsRec: first, changed, fac:   F   F   0.12500000D+00
(PID.TID 0000.0001)  exf_GetFFieldsRec:      count0, count1:   1   2
(PID.TID 0000.0001) 
(PID.TID 0000.0001) 
(PID.TID 0000.0001)  exf_GetFFieldsRec: first, changed, fac:   F   F   0.12500000D+00
(PID.TID 0000.0001)  exf_GetFFieldsRec:      count0, count1:   1   2
(PID.TID 0000.0001) 
(PID.TID 0000.0001) 
(PID.TID 0000.0001)  exf_GetFFieldsRec: first, changed, fac:   F   F   0.12500000D+00
(PID.TID 0000.0001)  exf_GetFFieldsRec:      count0, count1:   1   2
(PID.TID 0000.0001) 
 cg2d: Sum(rhs),rhsMax =   6.66133814775094E-15  5.83126576740471E-01
(PID.TID 0000.0001)                    cg2d_init_res =    5.50763536382178E-01
(PID.TID 0000.0001)                       cg2d_iters =    46
(PID.TID 0000.0001)                         cg2d_res =    8.16100437856829E-14
(PID.TID 0000.0001) 
(PID.TID 0000.0001)  exf_GetFFieldsRec: first, changed, fac:   F   F   0.91666667D+00
(PID.TID 0000.0001)  exf_GetFFieldsRec:      count0, count1:   3   4
(PID.TID 0000.0001) 
(PID.TID 0000.0001) 
(PID.TID 0000.0001)  exf_GetFFieldsRec: first, changed, fac:   F   F   0.91666667D+00
(PID.TID 0000.0001)  exf_GetFFieldsRec:      count0, count1:   3   4
(PID.TID 0000.0001) 
(PID.TID 0000.0001) 
(PID.TID 0000.0001)  exf_GetFFieldsRec: first, changed, fac:   F   F   0.83333333D-01
(PID.TID 0000.0001)  exf_GetFFieldsRec:      count0, count1:   1   2
(PID.TID 0000.0001) 
(PID.TID 0000.0001) 
(PID.TID 0000.0001)  exf_GetFFieldsRec: first, changed, fac:   F   F   0.83333333D-01
(PID.TID 0000.0001)  exf_GetFFieldsRec:      count0, count1:   1   2
(PID.TID 0000.0001) 
(PID.TID 0000.0001) 
(PID.TID 0000.0001)  exf_GetFFieldsRec: first, changed, fac:   F   F   0.83333333D-01
(PID.TID 0000.0001)  exf_GetFFieldsRec:      count0, count1:   1   2
(PID.TID 0000.0001) 
 cg2d: Sum(rhs),rhsMax =   6.66133814775094E-16  6.06515181411473E-01
(PID.TID 0000.0001)                    cg2d_init_res =    2.97539835029499E-01
(PID.TID 0000.0001)                       cg2d_iters =    47
(PID.TID 0000.0001)                         cg2d_res =    4.80156696279047E-14
(PID.TID 0000.0001) 
(PID.TID 0000.0001)  exf_GetFFieldsRec: first, changed, fac:   F   F   0.91666667D+00
(PID.TID 0000.0001)  exf_GetFFieldsRec:      count0, count1:   3   4
(PID.TID 0000.0001) 
(PID.TID 0000.0001) 
(PID.TID 0000.0001)  exf_GetFFieldsRec: first, changed, fac:   F   F   0.91666667D+00
(PID.TID 0000.0001)  exf_GetFFieldsRec:      count0, count1:   3   4
(PID.TID 0000.0001) 
(PID.TID 0000.0001) 
(PID.TID 0000.0001)  exf_GetFFieldsRec: first, changed, fac:   F   F   0.83333333D-01
(PID.TID 0000.0001)  exf_GetFFieldsRec:      count0, count1:   1   2
(PID.TID 0000.0001) 
(PID.TID 0000.0001) 
(PID.TID 0000.0001)  exf_GetFFieldsRec: first, changed, fac:   F   F   0.83333333D-01
(PID.TID 0000.0001)  exf_GetFFieldsRec:      count0, count1:   1   2
(PID.TID 0000.0001) 
(PID.TID 0000.0001) 
(PID.TID 0000.0001)  exf_GetFFieldsRec: first, changed, fac:   F   F   0.83333333D-01
(PID.TID 0000.0001)  exf_GetFFieldsRec:      count0, count1:   1   2
(PID.TID 0000.0001) 
 cg2d: Sum(rhs),rhsMax =   1.92039374566355E+00  1.01433031241725E-04
(PID.TID 0000.0001) 
(PID.TID 0000.0001)  exf_GetFFieldsRec: first, changed, fac:   F   T   0.10000000D+01
(PID.TID 0000.0001)  exf_GetFFieldsRec:      count0, count1:   3   4
(PID.TID 0000.0001) 
(PID.TID 0000.0001)  MDSREADFIELD: opening global file: PH_ustress__020_016_23.data
(PID.TID 0000.0001) 
(PID.TID 0000.0001)  exf_GetFFieldsRec: first, changed, fac:   F   T   0.10000000D+01
(PID.TID 0000.0001)  exf_GetFFieldsRec:      count0, count1:   3   4
(PID.TID 0000.0001) 
(PID.TID 0000.0001)  MDSREADFIELD: opening global file: PH_vstress__020_016_23.data
(PID.TID 0000.0001) 
(PID.TID 0000.0001)  exf_GetFFieldsRec: first, changed, fac:   F   F   0.12500000D+00
(PID.TID 0000.0001)  exf_GetFFieldsRec:      count0, count1:   1   2
(PID.TID 0000.0001) 
(PID.TID 0000.0001) 
(PID.TID 0000.0001)  exf_GetFFieldsRec: first, changed, fac:   F   F   0.12500000D+00
(PID.TID 0000.0001)  exf_GetFFieldsRec:      count0, count1:   1   2
(PID.TID 0000.0001) 
(PID.TID 0000.0001) 
(PID.TID 0000.0001)  exf_GetFFieldsRec: first, changed, fac:   F   F   0.12500000D+00
(PID.TID 0000.0001)  exf_GetFFieldsRec:      count0, count1:   1   2
(PID.TID 0000.0001) 
 cg2d: Sum(rhs),rhsMax =   6.42361625421199E+00  6.06485042354699E-05
(PID.TID 0000.0001) 
(PID.TID 0000.0001)  exf_GetFFieldsRec: first, changed, fac:   F   F   0.83333333D-01
(PID.TID 0000.0001)  exf_GetFFieldsRec:      count0, count1:   2   3
(PID.TID 0000.0001) 
(PID.TID 0000.0001) 
(PID.TID 0000.0001)  exf_GetFFieldsRec: first, changed, fac:   F   F   0.83333333D-01
(PID.TID 0000.0001)  exf_GetFFieldsRec:      count0, count1:   2   3
(PID.TID 0000.0001) 
(PID.TID 0000.0001) 
(PID.TID 0000.0001)  exf_GetFFieldsRec: first, changed, fac:   F   F   0.16666667D+00
(PID.TID 0000.0001)  exf_GetFFieldsRec:      count0, count1:   1   2
(PID.TID 0000.0001) 
(PID.TID 0000.0001) 
(PID.TID 0000.0001)  exf_GetFFieldsRec: first, changed, fac:   F   F   0.16666667D+00
(PID.TID 0000.0001)  exf_GetFFieldsRec:      count0, count1:   1   2
(PID.TID 0000.0001) 
(PID.TID 0000.0001) 
(PID.TID 0000.0001)  exf_GetFFieldsRec: first, changed, fac:   F   F   0.16666667D+00
(PID.TID 0000.0001)  exf_GetFFieldsRec:      count0, count1:   1   2
(PID.TID 0000.0001) 
 cg2d: Sum(rhs),rhsMax =   3.34778312144304E+00  1.74555535768704E-04
(PID.TID 0000.0001)  MDSREADFIELD: opening file: adpsbar.0000000000.001.001.data
(PID.TID 0000.0001) 
(PID.TID 0000.0001)  exf_GetFFieldsRec: first, changed, fac:   T   F   0.16666667D+00
(PID.TID 0000.0001)  exf_GetFFieldsRec:      count0, count1:   2   3
(PID.TID 0000.0001) 
(PID.TID 0000.0001)  MDSREADFIELD: opening global file: PH_ustress__020_016_23.data
(PID.TID 0000.0001)  MDSREADFIELD: opening global file: PH_ustress__020_016_23.data
(PID.TID 0000.0001) 
(PID.TID 0000.0001)  exf_GetFFieldsRec: first, changed, fac:   T   F   0.16666667D+00
(PID.TID 0000.0001)  exf_GetFFieldsRec:      count0, count1:   2   3
(PID.TID 0000.0001) 
(PID.TID 0000.0001)  MDSREADFIELD: opening global file: PH_vstress__020_016_23.data
(PID.TID 0000.0001)  MDSREADFIELD: opening global file: PH_vstress__020_016_23.data
(PID.TID 0000.0001) 
(PID.TID 0000.0001)  exf_GetFFieldsRec: first, changed, fac:   T   F   0.20833333D+00
(PID.TID 0000.0001)  exf_GetFFieldsRec:      count0, count1:   1   2
(PID.TID 0000.0001) 
(PID.TID 0000.0001)  MDSREADFIELD: opening global file: PH_totflsfc__020_016_23.data
(PID.TID 0000.0001)  MDSREADFIELD: opening global file: PH_totflsfc__020_016_23.data
(PID.TID 0000.0001) 
(PID.TID 0000.0001)  exf_GetFFieldsRec: first, changed, fac:   T   F   0.20833333D+00
(PID.TID 0000.0001)  exf_GetFFieldsRec:      count0, count1:   1   2
(PID.TID 0000.0001) 
(PID.TID 0000.0001)  MDSREADFIELD: opening global file: PH_pratesfc__020_016_23.data
(PID.TID 0000.0001)  MDSREADFIELD: opening global file: PH_pratesfc__020_016_23.data
(PID.TID 0000.0001) 
(PID.TID 0000.0001)  exf_GetFFieldsRec: first, changed, fac:   T   F   0.20833333D+00
(PID.TID 0000.0001)  exf_GetFFieldsRec:      count0, count1:   1   2
(PID.TID 0000.0001) 
(PID.TID 0000.0001)  MDSREADFIELD: opening global file: PH_swflsfc__020_016_23.data
(PID.TID 0000.0001)  MDSREADFIELD: opening global file: PH_swflsfc__020_016_23.data
(PID.TID 0000.0001)  MDSREADFIELD: opening file: xx_hfl.0000000000.001.001.data
(PID.TID 0000.0001)  MDSREADFIELD: opening file: xx_hfl.0000000000.001.001.data
(PID.TID 0000.0001)  MDSREADFIELD: opening file: xx_sfl.0000000000.001.001.data
(PID.TID 0000.0001)  MDSREADFIELD: opening file: xx_sfl.0000000000.001.001.data
(PID.TID 0000.0001)  MDSREADFIELD: opening file: xx_tauu.0000000000.001.001.data
(PID.TID 0000.0001)  MDSREADFIELD: opening file: xx_tauu.0000000000.001.001.data
(PID.TID 0000.0001)  MDSREADFIELD: opening file: xx_tauv.0000000000.001.001.data
(PID.TID 0000.0001)  MDSREADFIELD: opening file: xx_tauv.0000000000.001.001.data
 cg2d: Sum(rhs),rhsMax =   8.42891469182701E-01  3.46648470038228E-04
(PID.TID 0000.0001)  MDSREADFIELD: opening file: adxx_tauv.0000000000.001.001.data
(PID.TID 0000.0001)  MDSREADFIELD: opening file: adxx_tauv.0000000000.001.001.data
(PID.TID 0000.0001)  MDSREADFIELD: opening file: adxx_tauu.0000000000.001.001.data
(PID.TID 0000.0001)  MDSREADFIELD: opening file: adxx_tauu.0000000000.001.001.data
(PID.TID 0000.0001)  MDSREADFIELD: opening file: adxx_sfl.0000000000.001.001.data
(PID.TID 0000.0001)  MDSREADFIELD: opening file: adxx_sfl.0000000000.001.001.data
(PID.TID 0000.0001)  MDSREADFIELD: opening file: adxx_hfl.0000000000.001.001.data
(PID.TID 0000.0001)  MDSREADFIELD: opening file: adxx_hfl.0000000000.001.001.data
(PID.TID 0000.0001)  MDSREADFIELD: opening file: xx_tauv.0000000000.001.001.data
(PID.TID 0000.0001)  MDSREADFIELD: opening file: xx_tauv.0000000000.001.001.data
(PID.TID 0000.0001)  MDSREADFIELD: opening file: xx_tauv.0000000000.001.001.data
(PID.TID 0000.0001)  MDSREADFIELD: opening file: adxx_tauv.0000000000.001.001.data
(PID.TID 0000.0001)  MDSREADFIELD: opening file: xx_tauv.0000000000.001.001.data
(PID.TID 0000.0001)  MDSREADFIELD: opening file: adxx_tauv.0000000000.001.001.data
(PID.TID 0000.0001)  MDSREADFIELD: opening file: xx_tauv.0000000000.001.001.data
(PID.TID 0000.0001)  MDSREADFIELD: opening file: xx_tauv.0000000000.001.001.data
(PID.TID 0000.0001)  MDSREADFIELD: opening file: adxx_tauv.0000000000.001.001.data
(PID.TID 0000.0001)  MDSREADFIELD: opening file: adxx_tauv.0000000000.001.001.data
(PID.TID 0000.0001)  MDSREADFIELD: opening file: xx_tauu.0000000000.001.001.data
(PID.TID 0000.0001)  MDSREADFIELD: opening file: xx_tauu.0000000000.001.001.data
(PID.TID 0000.0001)  MDSREADFIELD: opening file: xx_tauu.0000000000.001.001.data
(PID.TID 0000.0001)  MDSREADFIELD: opening file: adxx_tauu.0000000000.001.001.data
(PID.TID 0000.0001)  MDSREADFIELD: opening file: xx_tauu.0000000000.001.001.data
(PID.TID 0000.0001)  MDSREADFIELD: opening file: adxx_tauu.0000000000.001.001.data
(PID.TID 0000.0001)  MDSREADFIELD: opening file: xx_tauu.0000000000.001.001.data
(PID.TID 0000.0001)  MDSREADFIELD: opening file: xx_tauu.0000000000.001.001.data
(PID.TID 0000.0001)  MDSREADFIELD: opening file: adxx_tauu.0000000000.001.001.data
(PID.TID 0000.0001)  MDSREADFIELD: opening file: adxx_tauu.0000000000.001.001.data
(PID.TID 0000.0001)  MDSREADFIELD: opening file: xx_sfl.0000000000.001.001.data
(PID.TID 0000.0001)  MDSREADFIELD: opening file: xx_sfl.0000000000.001.001.data
(PID.TID 0000.0001)  MDSREADFIELD: opening file: xx_sfl.0000000000.001.001.data
(PID.TID 0000.0001)  MDSREADFIELD: opening file: adxx_sfl.0000000000.001.001.data
(PID.TID 0000.0001)  MDSREADFIELD: opening file: xx_sfl.0000000000.001.001.data
(PID.TID 0000.0001)  MDSREADFIELD: opening file: adxx_sfl.0000000000.001.001.data
(PID.TID 0000.0001)  MDSREADFIELD: opening file: xx_sfl.0000000000.001.001.data
(PID.TID 0000.0001)  MDSREADFIELD: opening file: xx_sfl.0000000000.001.001.data
(PID.TID 0000.0001)  MDSREADFIELD: opening file: adxx_sfl.0000000000.001.001.data
(PID.TID 0000.0001)  MDSREADFIELD: opening file: adxx_sfl.0000000000.001.001.data
(PID.TID 0000.0001)  MDSREADFIELD: opening file: xx_hfl.0000000000.001.001.data
(PID.TID 0000.0001)  MDSREADFIELD: opening file: xx_hfl.0000000000.001.001.data
(PID.TID 0000.0001)  MDSREADFIELD: opening file: xx_hfl.0000000000.001.001.data
(PID.TID 0000.0001)  MDSREADFIELD: opening file: adxx_hfl.0000000000.001.001.data
(PID.TID 0000.0001)  MDSREADFIELD: opening file: xx_hfl.0000000000.001.001.data
(PID.TID 0000.0001)  MDSREADFIELD: opening file: adxx_hfl.0000000000.001.001.data
(PID.TID 0000.0001)  MDSREADFIELD: opening file: xx_hfl.0000000000.001.001.data
(PID.TID 0000.0001)  MDSREADFIELD: opening file: xx_hfl.0000000000.001.001.data
(PID.TID 0000.0001)  MDSREADFIELD: opening file: adxx_hfl.0000000000.001.001.data
(PID.TID 0000.0001)  MDSREADFIELD: opening file: adxx_hfl.0000000000.001.001.data
(PID.TID 0000.0001)  MDSREADFIELD: opening global file: PH_LevCli.ptmp__020_016_23.data
(PID.TID 0000.0001) // =======================================================
(PID.TID 0000.0001) // Field Initial Temperature at iteration          1
(PID.TID 0000.0001) // CMIN =          1.840084838867188E+01
(PID.TID 0000.0001) // CMAX =          2.607793426513672E+01
(PID.TID 0000.0001) // CINT =          2.843365139431424E-01
(PID.TID 0000.0001) // SYMBOLS (CMIN->CMAX): -abcdefghijklmnopqrstuvwxyz+
(PID.TID 0000.0001) //                  0.0: .
(PID.TID 0000.0001) // RANGE I (Lo:Hi:Step):(   1:  20:   1)
(PID.TID 0000.0001) // RANGE J (Lo:Hi:Step):(  16:   1:  -1)
(PID.TID 0000.0001) // RANGE K (Lo:Hi:Step):(   1:   1:   1)
(PID.TID 0000.0001) // =======================================================
(PID.TID 0000.0001) K =   1
(PID.TID 0000.0001)                I=10      I=20
(PID.TID 0000.0001) |--J--|123456789|123456789|
(PID.TID 0000.0001)     16 ....................
(PID.TID 0000.0001)     15 .jihhgfeedddcba---a.
(PID.TID 0000.0001)     14 .kjiihggffeedcbbabb.
(PID.TID 0000.0001)     13 .lkkjiiiihgfedccbc..
(PID.TID 0000.0001)     12 .mllkkjjjihgfedcc...
(PID.TID 0000.0001)     11 .onnmmllkjihgfeec...
(PID.TID 0000.0001)     10 .rrqqponmmlkihf.....
(PID.TID 0000.0001)      9 .utssrqponmljh......
(PID.TID 0000.0001)      8 .vuttsrqponlig......
(PID.TID 0000.0001)      7 .vuutsrrponkif......
(PID.TID 0000.0001)      6 .wvvuutsrqomjh......
(PID.TID 0000.0001)      5 .yxwwwvutsrpnl......
(PID.TID 0000.0001)      4 .zyyyxxwwvutrq......
(PID.TID 0000.0001)      3 .zzzzyyxxxxwvu......
(PID.TID 0000.0001)      2 .+++++zzz+++zy......
(PID.TID 0000.0001)      1 ....................
(PID.TID 0000.0001) // =======================================================
(PID.TID 0000.0001) // END OF FIELD                                          =
(PID.TID 0000.0001) // =======================================================
(PID.TID 0000.0001) 
(PID.TID 0000.0001)  MDSREADFIELD: opening global file: PH_LevCli.salt__020_016_23.data
(PID.TID 0000.0001) // =======================================================
(PID.TID 0000.0001) // Field Initial Salinity at iteration          1
(PID.TID 0000.0001) // CMIN =          3.501070022583008E+01
(PID.TID 0000.0001) // CMAX =          3.739887619018555E+01
(PID.TID 0000.0001) // CINT =          8.845096164279515E-02
(PID.TID 0000.0001) // SYMBOLS (CMIN->CMAX): -abcdefghijklmnopqrstuvwxyz+
(PID.TID 0000.0001) //                  0.0: .
(PID.TID 0000.0001) // RANGE I (Lo:Hi:Step):(   1:  20:   1)
(PID.TID 0000.0001) // RANGE J (Lo:Hi:Step):(  16:   1:  -1)
(PID.TID 0000.0001) // RANGE K (Lo:Hi:Step):(   1:   1:   1)
(PID.TID 0000.0001) // =======================================================
(PID.TID 0000.0001) K =   1
(PID.TID 0000.0001)                I=10      I=20
(PID.TID 0000.0001) |--J--|123456789|123456789|
(PID.TID 0000.0001)     16 ....................
(PID.TID 0000.0001)     15 .oonnnnmmnnnnnnmllk.
(PID.TID 0000.0001)     14 .ppppoooopppppppooo.
(PID.TID 0000.0001)     13 .qqqqqrrrrrrqqqqqq..
(PID.TID 0000.0001)     12 .tttttttttttssrqp...
(PID.TID 0000.0001)     11 .wwwwwwvvvvuusrpn...
(PID.TID 0000.0001)     10 .zzyyyyyxxwvusr.....
(PID.TID 0000.0001)      9 .++zzzzyxxwutr......
(PID.TID 0000.0001)      8 .+zzyyyxwvusrp......
(PID.TID 0000.0001)      7 .xxxxwwutsrpnm......
(PID.TID 0000.0001)      6 .uuuuutsqponlj......
(PID.TID 0000.0001)      5 .rrrrqqponmkji......
(PID.TID 0000.0001)      4 .poooonmmlkihg......
(PID.TID 0000.0001)      3 .mmlllllkjihec......
(PID.TID 0000.0001)      2 .jjjkkkjjihfd-......
(PID.TID 0000.0001)      1 ....................
(PID.TID 0000.0001) // =======================================================
(PID.TID 0000.0001) // END OF FIELD                                          =
(PID.TID 0000.0001) // =======================================================
(PID.TID 0000.0001) 
(PID.TID 0000.0001)  MDSREADFIELD: opening global file: PH_LevCli.ptmp__020_016_23.data
(PID.TID 0000.0001) // =======================================================
(PID.TID 0000.0001) // Field Initial Temperature at iteration          1
(PID.TID 0000.0001) // CMIN =          1.840084838867188E+01
(PID.TID 0000.0001) // CMAX =          2.607793426513672E+01
(PID.TID 0000.0001) // CINT =          2.843365139431424E-01
(PID.TID 0000.0001) // SYMBOLS (CMIN->CMAX): -abcdefghijklmnopqrstuvwxyz+
(PID.TID 0000.0001) //                  0.0: .
(PID.TID 0000.0001) // RANGE I (Lo:Hi:Step):(   1:  20:   1)
(PID.TID 0000.0001) // RANGE J (Lo:Hi:Step):(  16:   1:  -1)
(PID.TID 0000.0001) // RANGE K (Lo:Hi:Step):(   1:   1:   1)
(PID.TID 0000.0001) // =======================================================
(PID.TID 0000.0001) K =   1
(PID.TID 0000.0001)                I=10      I=20
(PID.TID 0000.0001) |--J--|123456789|123456789|
(PID.TID 0000.0001)     16 ....................
(PID.TID 0000.0001)     15 .jihhgfeedddcba---a.
(PID.TID 0000.0001)     14 .kjiihggffeedcbbabb.
(PID.TID 0000.0001)     13 .lkkjiiiihgfedccbc..
(PID.TID 0000.0001)     12 .mllkkjjjihgfedcc...
(PID.TID 0000.0001)     11 .onnmmllkjihgfeec...
(PID.TID 0000.0001)     10 .rrqqponmmlkihf.....
(PID.TID 0000.0001)      9 .utssrqponmljh......
(PID.TID 0000.0001)      8 .vuttsrqponlig......
(PID.TID 0000.0001)      7 .vuutsrrponkif......
(PID.TID 0000.0001)      6 .wvvuutsrqomjh......
(PID.TID 0000.0001)      5 .yxwwwvutsrpnl......
(PID.TID 0000.0001)      4 .zyyyxxwwvutrq......
(PID.TID 0000.0001)      3 .zzzzyyxxxxwvu......
(PID.TID 0000.0001)      2 .+++++zzz+++zy......
(PID.TID 0000.0001)      1 ....................
(PID.TID 0000.0001) // =======================================================
(PID.TID 0000.0001) // END OF FIELD                                          =
(PID.TID 0000.0001) // =======================================================
(PID.TID 0000.0001) 
(PID.TID 0000.0001)  MDSREADFIELD: opening global file: PH_LevCli.salt__020_016_23.data
(PID.TID 0000.0001) // =======================================================
(PID.TID 0000.0001) // Field Initial Salinity at iteration          1
(PID.TID 0000.0001) // CMIN =          3.501070022583008E+01
(PID.TID 0000.0001) // CMAX =          3.739887619018555E+01
(PID.TID 0000.0001) // CINT =          8.845096164279515E-02
(PID.TID 0000.0001) // SYMBOLS (CMIN->CMAX): -abcdefghijklmnopqrstuvwxyz+
(PID.TID 0000.0001) //                  0.0: .
(PID.TID 0000.0001) // RANGE I (Lo:Hi:Step):(   1:  20:   1)
(PID.TID 0000.0001) // RANGE J (Lo:Hi:Step):(  16:   1:  -1)
(PID.TID 0000.0001) // RANGE K (Lo:Hi:Step):(   1:   1:   1)
(PID.TID 0000.0001) // =======================================================
(PID.TID 0000.0001) K =   1
(PID.TID 0000.0001)                I=10      I=20
(PID.TID 0000.0001) |--J--|123456789|123456789|
(PID.TID 0000.0001)     16 ....................
(PID.TID 0000.0001)     15 .oonnnnmmnnnnnnmllk.
(PID.TID 0000.0001)     14 .ppppoooopppppppooo.
(PID.TID 0000.0001)     13 .qqqqqrrrrrrqqqqqq..
(PID.TID 0000.0001)     12 .tttttttttttssrqp...
(PID.TID 0000.0001)     11 .wwwwwwvvvvuusrpn...
(PID.TID 0000.0001)     10 .zzyyyyyxxwvusr.....
(PID.TID 0000.0001)      9 .++zzzzyxxwutr......
(PID.TID 0000.0001)      8 .+zzyyyxwvusrp......
(PID.TID 0000.0001)      7 .xxxxwwutsrpnm......
(PID.TID 0000.0001)      6 .uuuuutsqponlj......
(PID.TID 0000.0001)      5 .rrrrqqponmkji......
(PID.TID 0000.0001)      4 .poooonmmlkihg......
(PID.TID 0000.0001)      3 .mmlllllkjihec......
(PID.TID 0000.0001)      2 .jjjkkkjjihfd-......
(PID.TID 0000.0001)      1 ....................
(PID.TID 0000.0001) // =======================================================
(PID.TID 0000.0001) // END OF FIELD                                          =
(PID.TID 0000.0001) // =======================================================
(PID.TID 0000.0001) 
(PID.TID 0000.0001)  MDSREADFIELD: opening file: xx_theta.0000000000.001.001.data
(PID.TID 0000.0001)  MDSREADFIELD: opening file: adxx_salt.0000000000.001.001.data
(PID.TID 0000.0001)  MDSREADFIELD: opening file: adxx_salt.0000000000.001.001.data
(PID.TID 0000.0001)  MDSREADFIELD: opening file: adxx_salt.0000000000.001.001.data
(PID.TID 0000.0001)  MDSREADFIELD: opening file: adxx_salt.0000000000.001.001.data
(PID.TID 0000.0001)  MDSREADFIELD: opening file: adxx_salt.0000000000.001.001.data
(PID.TID 0000.0001)  MDSREADFIELD: opening file: adxx_salt.0000000000.001.001.data
(PID.TID 0000.0001)  MDSREADFIELD: opening file: adxx_salt.0000000000.001.001.data
(PID.TID 0000.0001)  MDSREADFIELD: opening file: adxx_salt.0000000000.001.001.data
(PID.TID 0000.0001)  MDSREADFIELD: opening file: adxx_salt.0000000000.001.001.data
(PID.TID 0000.0001)  MDSREADFIELD: opening file: adxx_salt.0000000000.001.001.data
(PID.TID 0000.0001)  MDSREADFIELD: opening file: adxx_salt.0000000000.001.001.data
(PID.TID 0000.0001)  MDSREADFIELD: opening file: adxx_salt.0000000000.001.001.data
(PID.TID 0000.0001)  MDSREADFIELD: opening file: adxx_salt.0000000000.001.001.data
(PID.TID 0000.0001)  MDSREADFIELD: opening file: adxx_salt.0000000000.001.001.data
(PID.TID 0000.0001)  MDSREADFIELD: opening file: adxx_salt.0000000000.001.001.data
(PID.TID 0000.0001)  MDSREADFIELD: opening file: adxx_salt.0000000000.001.001.data
(PID.TID 0000.0001)  MDSREADFIELD: opening file: adxx_salt.0000000000.001.001.data
(PID.TID 0000.0001)  MDSREADFIELD: opening file: adxx_salt.0000000000.001.001.data
(PID.TID 0000.0001)  MDSREADFIELD: opening file: adxx_salt.0000000000.001.001.data
(PID.TID 0000.0001)  MDSREADFIELD: opening file: adxx_salt.0000000000.001.001.data
(PID.TID 0000.0001)  MDSREADFIELD: opening file: adxx_salt.0000000000.001.001.data
(PID.TID 0000.0001)  MDSREADFIELD: opening file: adxx_salt.0000000000.001.001.data
(PID.TID 0000.0001)  MDSREADFIELD: opening file: adxx_salt.0000000000.001.001.data
(PID.TID 0000.0001)  MDSREADFIELD: opening file: adxx_theta.0000000000.001.001.data
(PID.TID 0000.0001)  MDSREADFIELD: opening file: adxx_theta.0000000000.001.001.data
(PID.TID 0000.0001)  MDSREADFIELD: opening file: adxx_theta.0000000000.001.001.data
(PID.TID 0000.0001)  MDSREADFIELD: opening file: adxx_theta.0000000000.001.001.data
(PID.TID 0000.0001)  MDSREADFIELD: opening file: adxx_theta.0000000000.001.001.data
(PID.TID 0000.0001)  MDSREADFIELD: opening file: adxx_theta.0000000000.001.001.data
(PID.TID 0000.0001)  MDSREADFIELD: opening file: adxx_theta.0000000000.001.001.data
(PID.TID 0000.0001)  MDSREADFIELD: opening file: adxx_theta.0000000000.001.001.data
(PID.TID 0000.0001)  MDSREADFIELD: opening file: adxx_theta.0000000000.001.001.data
(PID.TID 0000.0001)  MDSREADFIELD: opening file: adxx_theta.0000000000.001.001.data
(PID.TID 0000.0001)  MDSREADFIELD: opening file: adxx_theta.0000000000.001.001.data
(PID.TID 0000.0001)  MDSREADFIELD: opening file: adxx_theta.0000000000.001.001.data
(PID.TID 0000.0001)  MDSREADFIELD: opening file: adxx_theta.0000000000.001.001.data
(PID.TID 0000.0001)  MDSREADFIELD: opening file: adxx_theta.0000000000.001.001.data
(PID.TID 0000.0001)  MDSREADFIELD: opening file: adxx_theta.0000000000.001.001.data
(PID.TID 0000.0001)  MDSREADFIELD: opening file: adxx_theta.0000000000.001.001.data
(PID.TID 0000.0001)  MDSREADFIELD: opening file: adxx_theta.0000000000.001.001.data
(PID.TID 0000.0001)  MDSREADFIELD: opening file: adxx_theta.0000000000.001.001.data
(PID.TID 0000.0001)  MDSREADFIELD: opening file: adxx_theta.0000000000.001.001.data
(PID.TID 0000.0001)  MDSREADFIELD: opening file: adxx_theta.0000000000.001.001.data
(PID.TID 0000.0001)  MDSREADFIELD: opening file: adxx_theta.0000000000.001.001.data
(PID.TID 0000.0001)  MDSREADFIELD: opening file: adxx_theta.0000000000.001.001.data
(PID.TID 0000.0001)  MDSREADFIELD: opening file: adxx_theta.0000000000.001.001.data
(PID.TID 0000.0001)  MDSREADFIELD_GL: opening file: hFacC.001.001.data
(PID.TID 0000.0001)  MDSREADFIELD_GL: opening file: adxx_theta.0000000000.001.001.data
(PID.TID 0000.0001)  MDSREADFIELD_GL: opening file: hFacC.001.001.data
(PID.TID 0000.0001)  MDSREADFIELD_GL: opening file: adxx_salt.0000000000.001.001.data
(PID.TID 0000.0001)  MDSREADFIELD_GL: opening file: whflux.001.001.data
(PID.TID 0000.0001)  MDSREADFIELD_GL: opening file: hFacC.001.001.data
(PID.TID 0000.0001)  MDSREADFIELD_GL: opening file: adxx_hfl.0000000000.001.001.data
(PID.TID 0000.0001)  MDSREADFIELD_GL: opening file: adxx_hfl.0000000000.001.001.data
(PID.TID 0000.0001)  MDSREADFIELD_GL: opening file: wsflux.001.001.data
(PID.TID 0000.0001)  MDSREADFIELD_GL: opening file: hFacC.001.001.data
(PID.TID 0000.0001)  MDSREADFIELD_GL: opening file: adxx_sfl.0000000000.001.001.data
(PID.TID 0000.0001)  MDSREADFIELD_GL: opening file: adxx_sfl.0000000000.001.001.data
(PID.TID 0000.0001)  MDSREADFIELD_GL: opening file: wtauu.001.001.data
(PID.TID 0000.0001)  MDSREADFIELD_GL: opening file: maskW.001.001.data
(PID.TID 0000.0001)  MDSREADFIELD_GL: opening file: adxx_tauu.0000000000.001.001.data
(PID.TID 0000.0001)  MDSREADFIELD_GL: opening file: adxx_tauu.0000000000.001.001.data
(PID.TID 0000.0001)  MDSREADFIELD_GL: opening file: wtauv.001.001.data
(PID.TID 0000.0001)  MDSREADFIELD_GL: opening file: maskS.001.001.data
(PID.TID 0000.0001)  MDSREADFIELD_GL: opening file: adxx_tauv.0000000000.001.001.data
(PID.TID 0000.0001)  MDSREADFIELD_GL: opening file: adxx_tauv.0000000000.001.001.data
(PID.TID 0000.0001)  MDSREADFIELD: opening file: adxx_theta.0000000000.001.001.data
(PID.TID 0000.0001)  MDSREADFIELD: opening file: xx_theta.0000000000.001.001.data
(PID.TID 0000.0001) 
(PID.TID 0000.0001)  cal_TimeStamp: iter =          0 time =  0.00000000E+00
(PID.TID 0000.0001)                 date =   19920102      220000
(PID.TID 0000.0001) 
(PID.TID 0000.0001) %MON fCori_max                    =   9.5419917861011E-05
(PID.TID 0000.0001) %MON fCori_min                    =   2.7752043431195E-05
(PID.TID 0000.0001) %MON fCori_mean                   =   6.2936249243167E-05
(PID.TID 0000.0001) %MON fCori_sd                     =   2.0885809702547E-05
(PID.TID 0000.0001) %MON fCoriG_max                   =   9.3489668167119E-05
(PID.TID 0000.0001) %MON fCoriG_min                   =   2.5256103669800E-05
(PID.TID 0000.0001) %MON fCoriG_mean                  =   6.0674632558389E-05
(PID.TID 0000.0001) %MON fCoriG_sd                    =   2.1059305790472E-05
(PID.TID 0000.0001) // CG2D normalisation factor =          0.1575292392863445400000000E-03
(PID.TID 0000.0001) 
(PID.TID 0000.0001)  MDSREADFIELD: opening global file: PH_LevCli.ptmp__020_016_23.data
(PID.TID 0000.0001) // =======================================================
(PID.TID 0000.0001) // Field Initial Temperature at iteration          1
(PID.TID 0000.0001) // CMIN =          1.840084838867188E+01
(PID.TID 0000.0001) // CMAX =          2.607793426513672E+01
(PID.TID 0000.0001) // CINT =          2.843365139431424E-01
(PID.TID 0000.0001) // SYMBOLS (CMIN->CMAX): -abcdefghijklmnopqrstuvwxyz+
(PID.TID 0000.0001) //                  0.0: .
(PID.TID 0000.0001) // RANGE I (Lo:Hi:Step):(   1:  20:   1)
(PID.TID 0000.0001) // RANGE J (Lo:Hi:Step):(  16:   1:  -1)
(PID.TID 0000.0001) // RANGE K (Lo:Hi:Step):(   1:   1:   1)
(PID.TID 0000.0001) // =======================================================
(PID.TID 0000.0001) K =   1
(PID.TID 0000.0001)                I=10      I=20
(PID.TID 0000.0001) |--J--|123456789|123456789|
(PID.TID 0000.0001)     16 ....................
(PID.TID 0000.0001)     15 .jihhgfeedddcba---a.
(PID.TID 0000.0001)     14 .kjiihggffeedcbbabb.
(PID.TID 0000.0001)     13 .lkkjiiiihgfedccbc..
(PID.TID 0000.0001)     12 .mllkkjjjihgfedcc...
(PID.TID 0000.0001)     11 .onnmmllkjihgfeec...
(PID.TID 0000.0001)     10 .rrqqponmmlkihf.....
(PID.TID 0000.0001)      9 .utssrqponmljh......
(PID.TID 0000.0001)      8 .vuttsrqponlig......
(PID.TID 0000.0001)      7 .vuutsrrponkif......
(PID.TID 0000.0001)      6 .wvvuutsrqomjh......
(PID.TID 0000.0001)      5 .yxwwwvutsrpnl......
(PID.TID 0000.0001)      4 .zyyyxxwwvutrq......
(PID.TID 0000.0001)      3 .zzzzyyxxxxwvu......
(PID.TID 0000.0001)      2 .+++++zzz+++zy......
(PID.TID 0000.0001)      1 ....................
(PID.TID 0000.0001) // =======================================================
(PID.TID 0000.0001) // END OF FIELD                                          =
(PID.TID 0000.0001) // =======================================================
(PID.TID 0000.0001) 
(PID.TID 0000.0001)  MDSREADFIELD: opening global file: PH_LevCli.salt__020_016_23.data
(PID.TID 0000.0001) // =======================================================
(PID.TID 0000.0001) // Field Initial Salinity at iteration          1
(PID.TID 0000.0001) // CMIN =          3.501070022583008E+01
(PID.TID 0000.0001) // CMAX =          3.739887619018555E+01
(PID.TID 0000.0001) // CINT =          8.845096164279515E-02
(PID.TID 0000.0001) // SYMBOLS (CMIN->CMAX): -abcdefghijklmnopqrstuvwxyz+
(PID.TID 0000.0001) //                  0.0: .
(PID.TID 0000.0001) // RANGE I (Lo:Hi:Step):(   1:  20:   1)
(PID.TID 0000.0001) // RANGE J (Lo:Hi:Step):(  16:   1:  -1)
(PID.TID 0000.0001) // RANGE K (Lo:Hi:Step):(   1:   1:   1)
(PID.TID 0000.0001) // =======================================================
(PID.TID 0000.0001) K =   1
(PID.TID 0000.0001)                I=10      I=20
(PID.TID 0000.0001) |--J--|123456789|123456789|
(PID.TID 0000.0001)     16 ....................
(PID.TID 0000.0001)     15 .oonnnnmmnnnnnnmllk.
(PID.TID 0000.0001)     14 .ppppoooopppppppooo.
(PID.TID 0000.0001)     13 .qqqqqrrrrrrqqqqqq..
(PID.TID 0000.0001)     12 .tttttttttttssrqp...
(PID.TID 0000.0001)     11 .wwwwwwvvvvuusrpn...
(PID.TID 0000.0001)     10 .zzyyyyyxxwvusr.....
(PID.TID 0000.0001)      9 .++zzzzyxxwutr......
(PID.TID 0000.0001)      8 .+zzyyyxwvusrp......
(PID.TID 0000.0001)      7 .xxxxwwutsrpnm......
(PID.TID 0000.0001)      6 .uuuuutsqponlj......
(PID.TID 0000.0001)      5 .rrrrqqponmkji......
(PID.TID 0000.0001)      4 .poooonmmlkihg......
(PID.TID 0000.0001)      3 .mmlllllkjihec......
(PID.TID 0000.0001)      2 .jjjkkkjjihfd-......
(PID.TID 0000.0001)      1 ....................
(PID.TID 0000.0001) // =======================================================
(PID.TID 0000.0001) // END OF FIELD                                          =
(PID.TID 0000.0001) // =======================================================
(PID.TID 0000.0001) 
(PID.TID 0000.0001)  MDSREADFIELD: opening file: xx_theta.0000000000.001.001.data
(PID.TID 0000.0001)  MDSREADFIELD: opening file: xx_salt.0000000000.001.001.data
(PID.TID 0000.0001) // =======================================================
(PID.TID 0000.0001) // Model current state
(PID.TID 0000.0001) // =======================================================
(PID.TID 0000.0001) 
(PID.TID 0000.0001) // =======================================================
(PID.TID 0000.0001) // Begin MONITOR dynamic field statistics
(PID.TID 0000.0001) // =======================================================
(PID.TID 0000.0001) %MON time_tsnumber                =                     0
(PID.TID 0000.0001) %MON time_secondsf                =   0.0000000000000E+00
(PID.TID 0000.0001) %MON time_secondsi                =                     0
(PID.TID 0000.0001) %MON dynstat_eta_max              =   0.0000000000000E+00
(PID.TID 0000.0001) %MON dynstat_eta_min              =   0.0000000000000E+00
(PID.TID 0000.0001) %MON dynstat_eta_mean             =   0.0000000000000E+00
(PID.TID 0000.0001) %MON dynstat_eta_sd               =   0.0000000000000E+00
(PID.TID 0000.0001) %MON dynstat_eta_del2             =   0.0000000000000E+00
(PID.TID 0000.0001) %MON dynstat_uvel_max             =   0.0000000000000E+00
(PID.TID 0000.0001) %MON dynstat_uvel_min             =   0.0000000000000E+00
(PID.TID 0000.0001) %MON dynstat_uvel_mean            =   0.0000000000000E+00
(PID.TID 0000.0001) %MON dynstat_uvel_sd              =   0.0000000000000E+00
(PID.TID 0000.0001) %MON dynstat_uvel_del2            =   0.0000000000000E+00
(PID.TID 0000.0001) %MON dynstat_vvel_max             =   0.0000000000000E+00
(PID.TID 0000.0001) %MON dynstat_vvel_min             =   0.0000000000000E+00
(PID.TID 0000.0001) %MON dynstat_vvel_mean            =   0.0000000000000E+00
(PID.TID 0000.0001) %MON dynstat_vvel_sd              =   0.0000000000000E+00
(PID.TID 0000.0001) %MON dynstat_vvel_del2            =   0.0000000000000E+00
(PID.TID 0000.0001) %MON dynstat_wvel_max             =   0.0000000000000E+00
(PID.TID 0000.0001) %MON dynstat_wvel_min             =   0.0000000000000E+00
(PID.TID 0000.0001) %MON dynstat_wvel_mean            =   0.0000000000000E+00
(PID.TID 0000.0001) %MON dynstat_wvel_sd              =   0.0000000000000E+00
(PID.TID 0000.0001) %MON dynstat_wvel_del2            =   0.0000000000000E+00
(PID.TID 0000.0001) %MON dynstat_theta_max            =   2.6077934265137E+01
(PID.TID 0000.0001) %MON dynstat_theta_min            =   1.8064365386963E+00
(PID.TID 0000.0001) %MON dynstat_theta_mean           =   5.4784105613375E+00
(PID.TID 0000.0001) %MON dynstat_theta_sd             =   4.5923951994080E+00
(PID.TID 0000.0001) %MON dynstat_theta_del2           =   5.0898861128574E-02
(PID.TID 0000.0001) %MON dynstat_salt_max             =   3.7401638031006E+01
(PID.TID 0000.0001) %MON dynstat_salt_min             =   3.4726768493652E+01
(PID.TID 0000.0001) %MON dynstat_salt_mean            =   3.5157555715946E+01
(PID.TID 0000.0001) %MON dynstat_salt_sd              =   4.1377404390946E-01
(PID.TID 0000.0001) %MON dynstat_salt_del2            =   1.2632116608019E-02
(PID.TID 0000.0001) %MON advcfl_uvel_max              =   0.0000000000000E+00
(PID.TID 0000.0001) %MON advcfl_vvel_max              =   0.0000000000000E+00
(PID.TID 0000.0001) %MON advcfl_wvel_max              =   0.0000000000000E+00
(PID.TID 0000.0001) %MON advcfl_W_hf_max              =   0.0000000000000E+00
(PID.TID 0000.0001) %MON ke_max                       =   0.0000000000000E+00
(PID.TID 0000.0001) %MON ke_mean                      =   0.0000000000000E+00
(PID.TID 0000.0001) %MON ke_volint                    =   0.0000000000000E+00
(PID.TID 0000.0001) %MON ke_volmean                   =   0.0000000000000E+00
(PID.TID 0000.0001) // =======================================================
(PID.TID 0000.0001) // End MONITOR dynamic field statistics
(PID.TID 0000.0001) // =======================================================
(PID.TID 0000.0001)  MDSREADFIELD: opening file: xx_hfl.0000000000.001.001.data
(PID.TID 0000.0001)  MDSREADFIELD: opening file: xx_hfl.0000000000.001.001.data
(PID.TID 0000.0001)  MDSREADFIELD: opening file: xx_hfl.0000000000.001.001.data
(PID.TID 0000.0001)  MDSREADFIELD: opening file: xx_hfl.0000000000.001.001.data
(PID.TID 0000.0001)  MDSREADFIELD: opening file: xx_sfl.0000000000.001.001.data
(PID.TID 0000.0001)  MDSREADFIELD: opening file: xx_sfl.0000000000.001.001.data
(PID.TID 0000.0001)  MDSREADFIELD: opening file: xx_sfl.0000000000.001.001.data
(PID.TID 0000.0001)  MDSREADFIELD: opening file: xx_sfl.0000000000.001.001.data
(PID.TID 0000.0001)  MDSREADFIELD: opening file: xx_tauu.0000000000.001.001.data
(PID.TID 0000.0001)  MDSREADFIELD: opening file: xx_tauu.0000000000.001.001.data
(PID.TID 0000.0001)  MDSREADFIELD: opening file: xx_tauu.0000000000.001.001.data
(PID.TID 0000.0001)  MDSREADFIELD: opening file: xx_tauu.0000000000.001.001.data
(PID.TID 0000.0001)  MDSREADFIELD: opening file: xx_tauv.0000000000.001.001.data
(PID.TID 0000.0001)  MDSREADFIELD: opening file: xx_tauv.0000000000.001.001.data
(PID.TID 0000.0001)  MDSREADFIELD: opening file: xx_tauv.0000000000.001.001.data
(PID.TID 0000.0001)  MDSREADFIELD: opening file: xx_tauv.0000000000.001.001.data
(PID.TID 0000.0001) 
(PID.TID 0000.0001)  exf_GetFFieldsRec: first, changed, fac:   T   F   0.16666667D+00
(PID.TID 0000.0001)  exf_GetFFieldsRec:      count0, count1:   2   3
(PID.TID 0000.0001) 
(PID.TID 0000.0001)  MDSREADFIELD: opening global file: PH_ustress__020_016_23.data
(PID.TID 0000.0001)  MDSREADFIELD: opening global file: PH_ustress__020_016_23.data
(PID.TID 0000.0001) 
(PID.TID 0000.0001)  exf_GetFFieldsRec: first, changed, fac:   T   F   0.16666667D+00
(PID.TID 0000.0001)  exf_GetFFieldsRec:      count0, count1:   2   3
(PID.TID 0000.0001) 
(PID.TID 0000.0001)  MDSREADFIELD: opening global file: PH_vstress__020_016_23.data
(PID.TID 0000.0001)  MDSREADFIELD: opening global file: PH_vstress__020_016_23.data
(PID.TID 0000.0001) 
(PID.TID 0000.0001)  exf_GetFFieldsRec: first, changed, fac:   T   F   0.20833333D+00
(PID.TID 0000.0001)  exf_GetFFieldsRec:      count0, count1:   1   2
(PID.TID 0000.0001) 
(PID.TID 0000.0001)  MDSREADFIELD: opening global file: PH_totflsfc__020_016_23.data
(PID.TID 0000.0001)  MDSREADFIELD: opening global file: PH_totflsfc__020_016_23.data
(PID.TID 0000.0001) 
(PID.TID 0000.0001)  exf_GetFFieldsRec: first, changed, fac:   T   F   0.20833333D+00
(PID.TID 0000.0001)  exf_GetFFieldsRec:      count0, count1:   1   2
(PID.TID 0000.0001) 
(PID.TID 0000.0001)  MDSREADFIELD: opening global file: PH_pratesfc__020_016_23.data
(PID.TID 0000.0001)  MDSREADFIELD: opening global file: PH_pratesfc__020_016_23.data
(PID.TID 0000.0001) 
(PID.TID 0000.0001)  exf_GetFFieldsRec: first, changed, fac:   T   F   0.20833333D+00
(PID.TID 0000.0001)  exf_GetFFieldsRec:      count0, count1:   1   2
(PID.TID 0000.0001) 
(PID.TID 0000.0001)  MDSREADFIELD: opening global file: PH_swflsfc__020_016_23.data
(PID.TID 0000.0001)  MDSREADFIELD: opening global file: PH_swflsfc__020_016_23.data
(PID.TID 0000.0001)  MDSREADFIELD: opening file: xx_hfl.0000000000.001.001.data
(PID.TID 0000.0001)  MDSREADFIELD: opening file: xx_hfl.0000000000.001.001.data
(PID.TID 0000.0001)  MDSREADFIELD: opening file: xx_sfl.0000000000.001.001.data
(PID.TID 0000.0001)  MDSREADFIELD: opening file: xx_sfl.0000000000.001.001.data
(PID.TID 0000.0001)  MDSREADFIELD: opening file: xx_tauu.0000000000.001.001.data
(PID.TID 0000.0001)  MDSREADFIELD: opening file: xx_tauu.0000000000.001.001.data
(PID.TID 0000.0001)  MDSREADFIELD: opening file: xx_tauv.0000000000.001.001.data
(PID.TID 0000.0001)  MDSREADFIELD: opening file: xx_tauv.0000000000.001.001.data
 pathei: in check_exp: iter/time/rec/yprefix            0
   0.0000000000000000E+00           1 kf_
 pathei: in check_exp: date             0
 pathei: in check_exp: theta    21.97006225585938    
 pathei: in check_exp: salt     37.11309814453125    
 pathei: in check_exp: uvel    0.0000000000000000E+00
 pathei: in check_exp: vvel    0.0000000000000000E+00
 pathei: in check_exp: qnet     147.2961209615072    
 pathei: in check_exp: empmr   2.8335203183793567E-08
 pathei: in check_exp: fu     -1.3372420876597365E-02
 pathei: in check_exp: fv     -2.0421730043987431E-02
 cg2d: Sum(rhs),rhsMax =   2.90045765183322E-15  4.50737656431948E-01
(PID.TID 0000.0001)                    cg2d_init_res =    3.97910562457822E+00
(PID.TID 0000.0001)                       cg2d_iters =    50
(PID.TID 0000.0001)                         cg2d_res =    7.14119900981573E-14
(PID.TID 0000.0001) 
(PID.TID 0000.0001)  cal_TimeStamp: iter =          1 time =  0.36000000E+04
(PID.TID 0000.0001)                 date =   19920102      230000
(PID.TID 0000.0001) 
(PID.TID 0000.0001) 
(PID.TID 0000.0001)  exf_GetFFieldsRec: first, changed, fac:   F   F   0.83333333D-01
(PID.TID 0000.0001)  exf_GetFFieldsRec:      count0, count1:   2   3
(PID.TID 0000.0001) 
(PID.TID 0000.0001) 
(PID.TID 0000.0001)  exf_GetFFieldsRec: first, changed, fac:   F   F   0.83333333D-01
(PID.TID 0000.0001)  exf_GetFFieldsRec:      count0, count1:   2   3
(PID.TID 0000.0001) 
(PID.TID 0000.0001) 
(PID.TID 0000.0001)  exf_GetFFieldsRec: first, changed, fac:   F   F   0.16666667D+00
(PID.TID 0000.0001)  exf_GetFFieldsRec:      count0, count1:   1   2
(PID.TID 0000.0001) 
(PID.TID 0000.0001) 
(PID.TID 0000.0001)  exf_GetFFieldsRec: first, changed, fac:   F   F   0.16666667D+00
(PID.TID 0000.0001)  exf_GetFFieldsRec:      count0, count1:   1   2
(PID.TID 0000.0001) 
(PID.TID 0000.0001) 
(PID.TID 0000.0001)  exf_GetFFieldsRec: first, changed, fac:   F   F   0.16666667D+00
(PID.TID 0000.0001)  exf_GetFFieldsRec:      count0, count1:   1   2
(PID.TID 0000.0001) 
 cg2d: Sum(rhs),rhsMax =  -1.87350135405495E-15  5.55599808119866E-01
(PID.TID 0000.0001)                    cg2d_init_res =    9.18998598572980E-01
(PID.TID 0000.0001)                       cg2d_iters =    47
(PID.TID 0000.0001)                         cg2d_res =    7.10923361073074E-14
(PID.TID 0000.0001) 
(PID.TID 0000.0001)  cal_TimeStamp: iter =          2 time =  0.72000000E+04
(PID.TID 0000.0001)                 date =   19920103           0
(PID.TID 0000.0001) 
(PID.TID 0000.0001) 
(PID.TID 0000.0001)  exf_GetFFieldsRec: first, changed, fac:   F   T   0.10000000D+01
(PID.TID 0000.0001)  exf_GetFFieldsRec:      count0, count1:   3   4
(PID.TID 0000.0001) 
(PID.TID 0000.0001)  MDSREADFIELD: opening global file: PH_ustress__020_016_23.data
(PID.TID 0000.0001) 
(PID.TID 0000.0001)  exf_GetFFieldsRec: first, changed, fac:   F   T   0.10000000D+01
(PID.TID 0000.0001)  exf_GetFFieldsRec:      count0, count1:   3   4
(PID.TID 0000.0001) 
(PID.TID 0000.0001)  MDSREADFIELD: opening global file: PH_vstress__020_016_23.data
(PID.TID 0000.0001) 
(PID.TID 0000.0001)  exf_GetFFieldsRec: first, changed, fac:   F   F   0.12500000D+00
(PID.TID 0000.0001)  exf_GetFFieldsRec:      count0, count1:   1   2
(PID.TID 0000.0001) 
(PID.TID 0000.0001) 
(PID.TID 0000.0001)  exf_GetFFieldsRec: first, changed, fac:   F   F   0.12500000D+00
(PID.TID 0000.0001)  exf_GetFFieldsRec:      count0, count1:   1   2
(PID.TID 0000.0001) 
(PID.TID 0000.0001) 
(PID.TID 0000.0001)  exf_GetFFieldsRec: first, changed, fac:   F   F   0.12500000D+00
(PID.TID 0000.0001)  exf_GetFFieldsRec:      count0, count1:   1   2
(PID.TID 0000.0001) 
 cg2d: Sum(rhs),rhsMax =  -4.71844785465692E-16  5.83126576957400E-01
(PID.TID 0000.0001)                    cg2d_init_res =    5.50763553560146E-01
(PID.TID 0000.0001)                       cg2d_iters =    46
(PID.TID 0000.0001)                         cg2d_res =    8.16087161336036E-14
(PID.TID 0000.0001) 
(PID.TID 0000.0001)  cal_TimeStamp: iter =          3 time =  0.10800000E+05
(PID.TID 0000.0001)                 date =   19920103       10000
(PID.TID 0000.0001) 
(PID.TID 0000.0001) 
(PID.TID 0000.0001)  exf_GetFFieldsRec: first, changed, fac:   F   F   0.91666667D+00
(PID.TID 0000.0001)  exf_GetFFieldsRec:      count0, count1:   3   4
(PID.TID 0000.0001) 
(PID.TID 0000.0001) 
(PID.TID 0000.0001)  exf_GetFFieldsRec: first, changed, fac:   F   F   0.91666667D+00
(PID.TID 0000.0001)  exf_GetFFieldsRec:      count0, count1:   3   4
(PID.TID 0000.0001) 
(PID.TID 0000.0001) 
(PID.TID 0000.0001)  exf_GetFFieldsRec: first, changed, fac:   F   F   0.83333333D-01
(PID.TID 0000.0001)  exf_GetFFieldsRec:      count0, count1:   1   2
(PID.TID 0000.0001) 
(PID.TID 0000.0001) 
(PID.TID 0000.0001)  exf_GetFFieldsRec: first, changed, fac:   F   F   0.83333333D-01
(PID.TID 0000.0001)  exf_GetFFieldsRec:      count0, count1:   1   2
(PID.TID 0000.0001) 
(PID.TID 0000.0001) 
(PID.TID 0000.0001)  exf_GetFFieldsRec: first, changed, fac:   F   F   0.83333333D-01
(PID.TID 0000.0001)  exf_GetFFieldsRec:      count0, count1:   1   2
(PID.TID 0000.0001) 
 cg2d: Sum(rhs),rhsMax =  -5.57887069874141E-15  6.06515181996792E-01
(PID.TID 0000.0001)                    cg2d_init_res =    2.97539843163695E-01
(PID.TID 0000.0001)                       cg2d_iters =    47
(PID.TID 0000.0001)                         cg2d_res =    4.80155785664545E-14
(PID.TID 0000.0001) 
(PID.TID 0000.0001)  cal_TimeStamp: iter =          4 time =  0.14400000E+05
(PID.TID 0000.0001)                 date =   19920103       20000
(PID.TID 0000.0001) 
(PID.TID 0000.0001)  MDSREADFIELD: opening file: tbar.0000000000.001.001.data
(PID.TID 0000.0001)  MDSREADFIELD: opening global file: PH_SST_fields__020_016_23.data
(PID.TID 0000.0001)  MDSREADFIELD: opening file: tbar.0000000000.001.001.data
(PID.TID 0000.0001)  MDSREADFIELD: opening global file: PH_Lev.ptmp__020_016_23.data
(PID.TID 0000.0001)  MDSREADFIELD: opening file: sbar.0000000000.001.001.data
(PID.TID 0000.0001)  MDSREADFIELD: opening global file: PH_Lev.salt__020_016_23.data
(PID.TID 0000.0001)  MDSREADFIELD: opening file: psbar.0000000000.001.001.data
(PID.TID 0000.0001)  MDSREADFIELD: opening file: psbar.0000000000.001.001.data
(PID.TID 0000.0001)  MDSREADFIELD: opening global file: PH_TP_mean__020_016_23.data

  cost_ssh: offset_sum =    187.0000000000000    

(PID.TID 0000.0001)  MDSREADFIELD: opening file: psbar.0000000000.001.001.data
(PID.TID 0000.0001)  MDSREADFIELD: opening global file: PH_TP_fields__020_016_23.data
(PID.TID 0000.0001)  MDSREADFIELD: opening global file: PH_ERS_fields__020_016_23.data
(PID.TID 0000.0001)  MDSREADFIELD: opening file: psbar.0000000000.001.001.data
(PID.TID 0000.0001)  MDSREADFIELD: opening global file: PH_TP_fields__020_016_23.data
(PID.TID 0000.0001)  MDSREADFIELD: opening global file: PH_ERS_fields__020_016_23.data
(PID.TID 0000.0001)  MDSREADFIELD: opening file: tbar.0000000000.001.001.data
(PID.TID 0000.0001)  MDSREADFIELD: opening global file: PH_SST_fields__020_016_23.data
  --> objf_temp(bi,bj)    =   672.7408542617787    
  --> objf_salt(bi,bj)    =   127.5781346383284    
  --> objf_temp0(bi,bj)   =  0.0000000000000000E+00
  --> objf_salt0(bi,bj)   =  0.0000000000000000E+00
  --> objf_sst(bi,bj)     =   70.10586584348319    
  --> objf_sss(bi,bj)     =  0.0000000000000000E+00
  --> objf_h(bi,bj)       =   16.98122898729454    
  --> objf_hmean          =  0.8783271980431799    
  --> objf_tauu(bi,bj)    =  0.0000000000000000E+00
  --> objf_tauum(bi,bj)   =  0.0000000000000000E+00
  --> objf_tauv(bi,bj)    =  0.0000000000000000E+00
  --> objf_tauvm(bi,bj)   =  0.0000000000000000E+00
  --> objf_hflux(bi,bj)   =  0.0000000000000000E+00
  --> objf_hflux(bi,bj)   =  0.0000000000000000E+00
  --> objf_hflux(bi,bj)   =  0.0000000000000000E+00
  --> objf_sflux(bi,bj)   =  0.0000000000000000E+00
  --> objf_sflux(bi,bj)   =  0.0000000000000000E+00
  --> objf_sflux(bi,bj)   =  0.0000000000000000E+00
  --> objf_atl(bi,bj)     =  0.0000000000000000E+00
  --> objf_ctdt(bi,bj)    =  0.0000000000000000E+00
  --> objf_ctds(bi,bj)    =  0.0000000000000000E+00
  --> objf_xbt(bi,bj)     =  0.0000000000000000E+00
  --> objf_argot(bi,bj)   =  0.0000000000000000E+00
  --> objf_argos(bi,bj)   =  0.0000000000000000E+00
  --> objf_drift(bi,bj)   =  0.0000000000000000E+00
  --> objf_tdrift(bi,bj)  =  0.0000000000000000E+00
  --> objf_sdrift(bi,bj)  =  0.0000000000000000E+00
  --> objf_wdrift(bi,bj)  =  0.0000000000000000E+00
  --> objf_scatx(bi,bj)   =  0.0000000000000000E+00
  --> objf_scaty(bi,bj)   =  0.0000000000000000E+00
  --> objf_scatxm(bi,bj)  =  0.0000000000000000E+00
  --> objf_scatym(bi,bj)  =  0.0000000000000000E+00
  --> objf_uwind(bi,bj)   =  0.0000000000000000E+00
  --> objf_vwind(bi,bj)   =  0.0000000000000000E+00
  --> objf_atemp(bi,bj)   =  0.0000000000000000E+00
  --> objf_aqh(bi,bj)     =  0.0000000000000000E+00
  --> objf_obcsn(bi,bj)   =  0.0000000000000000E+00
  --> objf_obcss(bi,bj)   =  0.0000000000000000E+00
  --> objf_obcsw(bi,bj)   =  0.0000000000000000E+00
  --> objf_obcse(bi,bj)   =  0.0000000000000000E+00
  --> objf_hmean           =  0.8783271980431799    
  --> fc               =   888.2844109289281    
(PID.TID 0000.0001)  MDSREADFIELD: opening file: xx_theta.0000000000.001.001.data
(PID.TID 0000.0001)  MDSREADFIELD: opening file: xx_theta.0000000000.001.001.data
(PID.TID 0000.0001) 
(PID.TID 0000.0001)  cal_TimeStamp: iter =          0 time =  0.00000000E+00
(PID.TID 0000.0001)                 date =   19920102      220000
(PID.TID 0000.0001) 
(PID.TID 0000.0001) %MON kefCori_max                  =   9.5419917861011E-05
(PID.TID 0000.0001) %MON kefCori_min                  =   2.7752043431195E-05
(PID.TID 0000.0001) %MON kefCori_mean                 =   6.2936249243167E-05
(PID.TID 0000.0001) %MON kefCori_sd                   =   2.0885809702547E-05
(PID.TID 0000.0001) %MON kefCoriG_max                 =   9.3489668167119E-05
(PID.TID 0000.0001) %MON kefCoriG_min                 =   2.5256103669800E-05
(PID.TID 0000.0001) %MON kefCoriG_mean                =   6.0674632558389E-05
(PID.TID 0000.0001) %MON kefCoriG_sd                  =   2.1059305790472E-05
(PID.TID 0000.0001) // CG2D normalisation factor =          0.1575292392863445400000000E-03
(PID.TID 0000.0001) 
(PID.TID 0000.0001)  MDSREADFIELD: opening global file: PH_LevCli.ptmp__020_016_23.data
(PID.TID 0000.0001) // =======================================================
(PID.TID 0000.0001) // Field Initial Temperature at iteration          1
(PID.TID 0000.0001) // CMIN =          1.840084838867188E+01
(PID.TID 0000.0001) // CMAX =          2.607793426513672E+01
(PID.TID 0000.0001) // CINT =          2.843365139431424E-01
(PID.TID 0000.0001) // SYMBOLS (CMIN->CMAX): -abcdefghijklmnopqrstuvwxyz+
(PID.TID 0000.0001) //                  0.0: .
(PID.TID 0000.0001) // RANGE I (Lo:Hi:Step):(   1:  20:   1)
(PID.TID 0000.0001) // RANGE J (Lo:Hi:Step):(  16:   1:  -1)
(PID.TID 0000.0001) // RANGE K (Lo:Hi:Step):(   1:   1:   1)
(PID.TID 0000.0001) // =======================================================
(PID.TID 0000.0001) K =   1
(PID.TID 0000.0001)                I=10      I=20
(PID.TID 0000.0001) |--J--|123456789|123456789|
(PID.TID 0000.0001)     16 ....................
(PID.TID 0000.0001)     15 .jihhgfeedddcba---a.
(PID.TID 0000.0001)     14 .kjiihggffeedcbbabb.
(PID.TID 0000.0001)     13 .lkkjiiiihgfedccbc..
(PID.TID 0000.0001)     12 .mllkkjjjihgfedcc...
(PID.TID 0000.0001)     11 .onnmmllkjihgfeec...
(PID.TID 0000.0001)     10 .rrqqponmmlkihf.....
(PID.TID 0000.0001)      9 .utssrqponmljh......
(PID.TID 0000.0001)      8 .vuttsrqponlig......
(PID.TID 0000.0001)      7 .vuutsrrponkif......
(PID.TID 0000.0001)      6 .wvvuutsrqomjh......
(PID.TID 0000.0001)      5 .yxwwwvutsrpnl......
(PID.TID 0000.0001)      4 .zyyyxxwwvutrq......
(PID.TID 0000.0001)      3 .zzzzyyxxxxwvu......
(PID.TID 0000.0001)      2 .+++++zzz+++zy......
(PID.TID 0000.0001)      1 ....................
(PID.TID 0000.0001) // =======================================================
(PID.TID 0000.0001) // END OF FIELD                                          =
(PID.TID 0000.0001) // =======================================================
(PID.TID 0000.0001) 
(PID.TID 0000.0001)  MDSREADFIELD: opening global file: PH_LevCli.salt__020_016_23.data
(PID.TID 0000.0001) // =======================================================
(PID.TID 0000.0001) // Field Initial Salinity at iteration          1
(PID.TID 0000.0001) // CMIN =          3.501070022583008E+01
(PID.TID 0000.0001) // CMAX =          3.739887619018555E+01
(PID.TID 0000.0001) // CINT =          8.845096164279515E-02
(PID.TID 0000.0001) // SYMBOLS (CMIN->CMAX): -abcdefghijklmnopqrstuvwxyz+
(PID.TID 0000.0001) //                  0.0: .
(PID.TID 0000.0001) // RANGE I (Lo:Hi:Step):(   1:  20:   1)
(PID.TID 0000.0001) // RANGE J (Lo:Hi:Step):(  16:   1:  -1)
(PID.TID 0000.0001) // RANGE K (Lo:Hi:Step):(   1:   1:   1)
(PID.TID 0000.0001) // =======================================================
(PID.TID 0000.0001) K =   1
(PID.TID 0000.0001)                I=10      I=20
(PID.TID 0000.0001) |--J--|123456789|123456789|
(PID.TID 0000.0001)     16 ....................
(PID.TID 0000.0001)     15 .oonnnnmmnnnnnnmllk.
(PID.TID 0000.0001)     14 .ppppoooopppppppooo.
(PID.TID 0000.0001)     13 .qqqqqrrrrrrqqqqqq..
(PID.TID 0000.0001)     12 .tttttttttttssrqp...
(PID.TID 0000.0001)     11 .wwwwwwvvvvuusrpn...
(PID.TID 0000.0001)     10 .zzyyyyyxxwvusr.....
(PID.TID 0000.0001)      9 .++zzzzyxxwutr......
(PID.TID 0000.0001)      8 .+zzyyyxwvusrp......
(PID.TID 0000.0001)      7 .xxxxwwutsrpnm......
(PID.TID 0000.0001)      6 .uuuuutsqponlj......
(PID.TID 0000.0001)      5 .rrrrqqponmkji......
(PID.TID 0000.0001)      4 .poooonmmlkihg......
(PID.TID 0000.0001)      3 .mmlllllkjihec......
(PID.TID 0000.0001)      2 .jjjkkkjjihfd-......
(PID.TID 0000.0001)      1 ....................
(PID.TID 0000.0001) // =======================================================
(PID.TID 0000.0001) // END OF FIELD                                          =
(PID.TID 0000.0001) // =======================================================
(PID.TID 0000.0001) 
(PID.TID 0000.0001)  MDSREADFIELD: opening file: xx_theta.0000000000.001.001.data
(PID.TID 0000.0001)  MDSREADFIELD: opening file: xx_salt.0000000000.001.001.data
(PID.TID 0000.0001) // =======================================================
(PID.TID 0000.0001) // Model current state
(PID.TID 0000.0001) // =======================================================
(PID.TID 0000.0001) 
(PID.TID 0000.0001) // =======================================================
(PID.TID 0000.0001) // Begin MONITOR dynamic field statistics
(PID.TID 0000.0001) // =======================================================
(PID.TID 0000.0001) %MON time_tsnumber                =                     0
(PID.TID 0000.0001) %MON time_secondsf                =   0.0000000000000E+00
(PID.TID 0000.0001) %MON time_secondsi                =                     0
(PID.TID 0000.0001) %MON dynstat_eta_max              =   0.0000000000000E+00
(PID.TID 0000.0001) %MON dynstat_eta_min              =   0.0000000000000E+00
(PID.TID 0000.0001) %MON dynstat_eta_mean             =   0.0000000000000E+00
(PID.TID 0000.0001) %MON dynstat_eta_sd               =   0.0000000000000E+00
(PID.TID 0000.0001) %MON dynstat_eta_del2             =   0.0000000000000E+00
(PID.TID 0000.0001) %MON dynstat_uvel_max             =   0.0000000000000E+00
(PID.TID 0000.0001) %MON dynstat_uvel_min             =   0.0000000000000E+00
(PID.TID 0000.0001) %MON dynstat_uvel_mean            =   0.0000000000000E+00
(PID.TID 0000.0001) %MON dynstat_uvel_sd              =   0.0000000000000E+00
(PID.TID 0000.0001) %MON dynstat_uvel_del2            =   0.0000000000000E+00
(PID.TID 0000.0001) %MON dynstat_vvel_max             =   0.0000000000000E+00
(PID.TID 0000.0001) %MON dynstat_vvel_min             =   0.0000000000000E+00
(PID.TID 0000.0001) %MON dynstat_vvel_mean            =   0.0000000000000E+00
(PID.TID 0000.0001) %MON dynstat_vvel_sd              =   0.0000000000000E+00
(PID.TID 0000.0001) %MON dynstat_vvel_del2            =   0.0000000000000E+00
(PID.TID 0000.0001) %MON dynstat_wvel_max             =   0.0000000000000E+00
(PID.TID 0000.0001) %MON dynstat_wvel_min             =   0.0000000000000E+00
(PID.TID 0000.0001) %MON dynstat_wvel_mean            =   0.0000000000000E+00
(PID.TID 0000.0001) %MON dynstat_wvel_sd              =   0.0000000000000E+00
(PID.TID 0000.0001) %MON dynstat_wvel_del2            =   0.0000000000000E+00
(PID.TID 0000.0001) %MON dynstat_theta_max            =   2.6077934265137E+01
(PID.TID 0000.0001) %MON dynstat_theta_min            =   1.8064365386963E+00
(PID.TID 0000.0001) %MON dynstat_theta_mean           =   5.4784105586633E+00
(PID.TID 0000.0001) %MON dynstat_theta_sd             =   4.5923951874541E+00
(PID.TID 0000.0001) %MON dynstat_theta_del2           =   5.0898836015565E-02
(PID.TID 0000.0001) %MON dynstat_salt_max             =   3.7401638031006E+01
(PID.TID 0000.0001) %MON dynstat_salt_min             =   3.4726768493652E+01
(PID.TID 0000.0001) %MON dynstat_salt_mean            =   3.5157555715946E+01
(PID.TID 0000.0001) %MON dynstat_salt_sd              =   4.1377404390946E-01
(PID.TID 0000.0001) %MON dynstat_salt_del2            =   1.2632116608019E-02
(PID.TID 0000.0001) %MON advcfl_uvel_max              =   0.0000000000000E+00
(PID.TID 0000.0001) %MON advcfl_vvel_max              =   0.0000000000000E+00
(PID.TID 0000.0001) %MON advcfl_wvel_max              =   0.0000000000000E+00
(PID.TID 0000.0001) %MON advcfl_W_hf_max              =   0.0000000000000E+00
(PID.TID 0000.0001) %MON ke_max                       =   0.0000000000000E+00
(PID.TID 0000.0001) %MON ke_mean                      =   0.0000000000000E+00
(PID.TID 0000.0001) %MON ke_volint                    =   0.0000000000000E+00
(PID.TID 0000.0001) %MON ke_volmean                   =   0.0000000000000E+00
(PID.TID 0000.0001) // =======================================================
(PID.TID 0000.0001) // End MONITOR dynamic field statistics
(PID.TID 0000.0001) // =======================================================
(PID.TID 0000.0001)  MDSREADFIELD: opening file: xx_hfl.0000000000.001.001.data
(PID.TID 0000.0001)  MDSREADFIELD: opening file: xx_hfl.0000000000.001.001.data
(PID.TID 0000.0001)  MDSREADFIELD: opening file: xx_hfl.0000000000.001.001.data
(PID.TID 0000.0001)  MDSREADFIELD: opening file: xx_hfl.0000000000.001.001.data
(PID.TID 0000.0001)  MDSREADFIELD: opening file: xx_sfl.0000000000.001.001.data
(PID.TID 0000.0001)  MDSREADFIELD: opening file: xx_sfl.0000000000.001.001.data
(PID.TID 0000.0001)  MDSREADFIELD: opening file: xx_sfl.0000000000.001.001.data
(PID.TID 0000.0001)  MDSREADFIELD: opening file: xx_sfl.0000000000.001.001.data
(PID.TID 0000.0001)  MDSREADFIELD: opening file: xx_tauu.0000000000.001.001.data
(PID.TID 0000.0001)  MDSREADFIELD: opening file: xx_tauu.0000000000.001.001.data
(PID.TID 0000.0001)  MDSREADFIELD: opening file: xx_tauu.0000000000.001.001.data
(PID.TID 0000.0001)  MDSREADFIELD: opening file: xx_tauu.0000000000.001.001.data
(PID.TID 0000.0001)  MDSREADFIELD: opening file: xx_tauv.0000000000.001.001.data
(PID.TID 0000.0001)  MDSREADFIELD: opening file: xx_tauv.0000000000.001.001.data
(PID.TID 0000.0001)  MDSREADFIELD: opening file: xx_tauv.0000000000.001.001.data
(PID.TID 0000.0001)  MDSREADFIELD: opening file: xx_tauv.0000000000.001.001.data
(PID.TID 0000.0001) 
(PID.TID 0000.0001)  exf_GetFFieldsRec: first, changed, fac:   T   F   0.16666667D+00
(PID.TID 0000.0001)  exf_GetFFieldsRec:      count0, count1:   2   3
(PID.TID 0000.0001) 
(PID.TID 0000.0001)  MDSREADFIELD: opening global file: PH_ustress__020_016_23.data
(PID.TID 0000.0001)  MDSREADFIELD: opening global file: PH_ustress__020_016_23.data
(PID.TID 0000.0001) 
(PID.TID 0000.0001)  exf_GetFFieldsRec: first, changed, fac:   T   F   0.16666667D+00
(PID.TID 0000.0001)  exf_GetFFieldsRec:      count0, count1:   2   3
(PID.TID 0000.0001) 
(PID.TID 0000.0001)  MDSREADFIELD: opening global file: PH_vstress__020_016_23.data
(PID.TID 0000.0001)  MDSREADFIELD: opening global file: PH_vstress__020_016_23.data
(PID.TID 0000.0001) 
(PID.TID 0000.0001)  exf_GetFFieldsRec: first, changed, fac:   T   F   0.20833333D+00
(PID.TID 0000.0001)  exf_GetFFieldsRec:      count0, count1:   1   2
(PID.TID 0000.0001) 
(PID.TID 0000.0001)  MDSREADFIELD: opening global file: PH_totflsfc__020_016_23.data
(PID.TID 0000.0001)  MDSREADFIELD: opening global file: PH_totflsfc__020_016_23.data
(PID.TID 0000.0001) 
(PID.TID 0000.0001)  exf_GetFFieldsRec: first, changed, fac:   T   F   0.20833333D+00
(PID.TID 0000.0001)  exf_GetFFieldsRec:      count0, count1:   1   2
(PID.TID 0000.0001) 
(PID.TID 0000.0001)  MDSREADFIELD: opening global file: PH_pratesfc__020_016_23.data
(PID.TID 0000.0001)  MDSREADFIELD: opening global file: PH_pratesfc__020_016_23.data
(PID.TID 0000.0001) 
(PID.TID 0000.0001)  exf_GetFFieldsRec: first, changed, fac:   T   F   0.20833333D+00
(PID.TID 0000.0001)  exf_GetFFieldsRec:      count0, count1:   1   2
(PID.TID 0000.0001) 
(PID.TID 0000.0001)  MDSREADFIELD: opening global file: PH_swflsfc__020_016_23.data
(PID.TID 0000.0001)  MDSREADFIELD: opening global file: PH_swflsfc__020_016_23.data
(PID.TID 0000.0001)  MDSREADFIELD: opening file: xx_hfl.0000000000.001.001.data
(PID.TID 0000.0001)  MDSREADFIELD: opening file: xx_hfl.0000000000.001.001.data
(PID.TID 0000.0001)  MDSREADFIELD: opening file: xx_sfl.0000000000.001.001.data
(PID.TID 0000.0001)  MDSREADFIELD: opening file: xx_sfl.0000000000.001.001.data
(PID.TID 0000.0001)  MDSREADFIELD: opening file: xx_tauu.0000000000.001.001.data
(PID.TID 0000.0001)  MDSREADFIELD: opening file: xx_tauu.0000000000.001.001.data
(PID.TID 0000.0001)  MDSREADFIELD: opening file: xx_tauv.0000000000.001.001.data
(PID.TID 0000.0001)  MDSREADFIELD: opening file: xx_tauv.0000000000.001.001.data
 pathei: in check_exp: iter/time/rec/yprefix            0
   0.0000000000000000E+00           1 kf_
 pathei: in check_exp: date             0
 pathei: in check_exp: theta    21.97006225585938    
 pathei: in check_exp: salt     37.11309814453125    
 pathei: in check_exp: uvel    0.0000000000000000E+00
 pathei: in check_exp: vvel    0.0000000000000000E+00
 pathei: in check_exp: qnet     147.2961209615072    
 pathei: in check_exp: empmr   2.8335203183793567E-08
 pathei: in check_exp: fu     -1.3372420876597365E-02
 pathei: in check_exp: fv     -2.0421730043987431E-02
 cg2d: Sum(rhs),rhsMax =   2.90045765183322E-15  4.50737656431948E-01
(PID.TID 0000.0001)                    cg2d_init_res =    3.97910519360579E+00
(PID.TID 0000.0001)                       cg2d_iters =    50
(PID.TID 0000.0001)                         cg2d_res =    7.14099367452435E-14
(PID.TID 0000.0001) 
(PID.TID 0000.0001)  cal_TimeStamp: iter =          1 time =  0.36000000E+04
(PID.TID 0000.0001)                 date =   19920102      230000
(PID.TID 0000.0001) 
(PID.TID 0000.0001) 
(PID.TID 0000.0001)  exf_GetFFieldsRec: first, changed, fac:   F   F   0.83333333D-01
(PID.TID 0000.0001)  exf_GetFFieldsRec:      count0, count1:   2   3
(PID.TID 0000.0001) 
(PID.TID 0000.0001) 
(PID.TID 0000.0001)  exf_GetFFieldsRec: first, changed, fac:   F   F   0.83333333D-01
(PID.TID 0000.0001)  exf_GetFFieldsRec:      count0, count1:   2   3
(PID.TID 0000.0001) 
(PID.TID 0000.0001) 
(PID.TID 0000.0001)  exf_GetFFieldsRec: first, changed, fac:   F   F   0.16666667D+00
(PID.TID 0000.0001)  exf_GetFFieldsRec:      count0, count1:   1   2
(PID.TID 0000.0001) 
(PID.TID 0000.0001) 
(PID.TID 0000.0001)  exf_GetFFieldsRec: first, changed, fac:   F   F   0.16666667D+00
(PID.TID 0000.0001)  exf_GetFFieldsRec:      count0, count1:   1   2
(PID.TID 0000.0001) 
(PID.TID 0000.0001) 
(PID.TID 0000.0001)  exf_GetFFieldsRec: first, changed, fac:   F   F   0.16666667D+00
(PID.TID 0000.0001)  exf_GetFFieldsRec:      count0, count1:   1   2
(PID.TID 0000.0001) 
 cg2d: Sum(rhs),rhsMax =   3.15719672627779E-15  5.55599808037938E-01
(PID.TID 0000.0001)                    cg2d_init_res =    9.18998555311067E-01
(PID.TID 0000.0001)                       cg2d_iters =    47
(PID.TID 0000.0001)                         cg2d_res =    7.10928298473927E-14
(PID.TID 0000.0001) 
(PID.TID 0000.0001)  cal_TimeStamp: iter =          2 time =  0.72000000E+04
(PID.TID 0000.0001)                 date =   19920103           0
(PID.TID 0000.0001) 
(PID.TID 0000.0001) 
(PID.TID 0000.0001)  exf_GetFFieldsRec: first, changed, fac:   F   T   0.10000000D+01
(PID.TID 0000.0001)  exf_GetFFieldsRec:      count0, count1:   3   4
(PID.TID 0000.0001) 
(PID.TID 0000.0001)  MDSREADFIELD: opening global file: PH_ustress__020_016_23.data
(PID.TID 0000.0001) 
(PID.TID 0000.0001)  exf_GetFFieldsRec: first, changed, fac:   F   T   0.10000000D+01
(PID.TID 0000.0001)  exf_GetFFieldsRec:      count0, count1:   3   4
(PID.TID 0000.0001) 
(PID.TID 0000.0001)  MDSREADFIELD: opening global file: PH_vstress__020_016_23.data
(PID.TID 0000.0001) 
(PID.TID 0000.0001)  exf_GetFFieldsRec: first, changed, fac:   F   F   0.12500000D+00
(PID.TID 0000.0001)  exf_GetFFieldsRec:      count0, count1:   1   2
(PID.TID 0000.0001) 
(PID.TID 0000.0001) 
(PID.TID 0000.0001)  exf_GetFFieldsRec: first, changed, fac:   F   F   0.12500000D+00
(PID.TID 0000.0001)  exf_GetFFieldsRec:      count0, count1:   1   2
(PID.TID 0000.0001) 
(PID.TID 0000.0001) 
(PID.TID 0000.0001)  exf_GetFFieldsRec: first, changed, fac:   F   F   0.12500000D+00
(PID.TID 0000.0001)  exf_GetFFieldsRec:      count0, count1:   1   2
(PID.TID 0000.0001) 
 cg2d: Sum(rhs),rhsMax =   2.83106871279415E-15  5.83126576523757E-01
(PID.TID 0000.0001)                    cg2d_init_res =    5.50763519204128E-01
(PID.TID 0000.0001)                       cg2d_iters =    46
(PID.TID 0000.0001)                         cg2d_res =    8.16113713859299E-14
(PID.TID 0000.0001) 
(PID.TID 0000.0001)  cal_TimeStamp: iter =          3 time =  0.10800000E+05
(PID.TID 0000.0001)                 date =   19920103       10000
(PID.TID 0000.0001) 
(PID.TID 0000.0001) 
(PID.TID 0000.0001)  exf_GetFFieldsRec: first, changed, fac:   F   F   0.91666667D+00
(PID.TID 0000.0001)  exf_GetFFieldsRec:      count0, count1:   3   4
(PID.TID 0000.0001) 
(PID.TID 0000.0001) 
(PID.TID 0000.0001)  exf_GetFFieldsRec: first, changed, fac:   F   F   0.91666667D+00
(PID.TID 0000.0001)  exf_GetFFieldsRec:      count0, count1:   3   4
(PID.TID 0000.0001) 
(PID.TID 0000.0001) 
(PID.TID 0000.0001)  exf_GetFFieldsRec: first, changed, fac:   F   F   0.83333333D-01
(PID.TID 0000.0001)  exf_GetFFieldsRec:      count0, count1:   1   2
(PID.TID 0000.0001) 
(PID.TID 0000.0001) 
(PID.TID 0000.0001)  exf_GetFFieldsRec: first, changed, fac:   F   F   0.83333333D-01
(PID.TID 0000.0001)  exf_GetFFieldsRec:      count0, count1:   1   2
(PID.TID 0000.0001) 
(PID.TID 0000.0001) 
(PID.TID 0000.0001)  exf_GetFFieldsRec: first, changed, fac:   F   F   0.83333333D-01
(PID.TID 0000.0001)  exf_GetFFieldsRec:      count0, count1:   1   2
(PID.TID 0000.0001) 
 cg2d: Sum(rhs),rhsMax =   4.71844785465692E-16  6.06515180826586E-01
(PID.TID 0000.0001)                    cg2d_init_res =    2.97539826896158E-01
(PID.TID 0000.0001)                       cg2d_iters =    47
(PID.TID 0000.0001)                         cg2d_res =    4.80157607898985E-14
(PID.TID 0000.0001) 
(PID.TID 0000.0001)  cal_TimeStamp: iter =          4 time =  0.14400000E+05
(PID.TID 0000.0001)                 date =   19920103       20000
(PID.TID 0000.0001) 
(PID.TID 0000.0001)  MDSREADFIELD: opening file: tbar.0000000000.001.001.data
(PID.TID 0000.0001)  MDSREADFIELD: opening global file: PH_SST_fields__020_016_23.data
(PID.TID 0000.0001)  MDSREADFIELD: opening file: tbar.0000000000.001.001.data
(PID.TID 0000.0001)  MDSREADFIELD: opening global file: PH_Lev.ptmp__020_016_23.data
(PID.TID 0000.0001)  MDSREADFIELD: opening file: sbar.0000000000.001.001.data
(PID.TID 0000.0001)  MDSREADFIELD: opening global file: PH_Lev.salt__020_016_23.data
(PID.TID 0000.0001)  MDSREADFIELD: opening file: psbar.0000000000.001.001.data
(PID.TID 0000.0001)  MDSREADFIELD: opening file: psbar.0000000000.001.001.data
(PID.TID 0000.0001)  MDSREADFIELD: opening global file: PH_TP_mean__020_016_23.data

  cost_ssh: offset_sum =    187.0000000000000    

(PID.TID 0000.0001)  MDSREADFIELD: opening file: psbar.0000000000.001.001.data
(PID.TID 0000.0001)  MDSREADFIELD: opening global file: PH_TP_fields__020_016_23.data
(PID.TID 0000.0001)  MDSREADFIELD: opening global file: PH_ERS_fields__020_016_23.data
(PID.TID 0000.0001)  MDSREADFIELD: opening file: psbar.0000000000.001.001.data
(PID.TID 0000.0001)  MDSREADFIELD: opening global file: PH_TP_fields__020_016_23.data
(PID.TID 0000.0001)  MDSREADFIELD: opening global file: PH_ERS_fields__020_016_23.data
(PID.TID 0000.0001)  MDSREADFIELD: opening file: tbar.0000000000.001.001.data
(PID.TID 0000.0001)  MDSREADFIELD: opening global file: PH_SST_fields__020_016_23.data
  --> objf_temp(bi,bj)    =   672.7408259452872    
  --> objf_salt(bi,bj)    =   127.5781370675529    
  --> objf_temp0(bi,bj)   =  0.0000000000000000E+00
  --> objf_salt0(bi,bj)   =  0.0000000000000000E+00
  --> objf_sst(bi,bj)     =   70.10589931179999    
  --> objf_sss(bi,bj)     =  0.0000000000000000E+00
  --> objf_h(bi,bj)       =   16.98122900880561    
  --> objf_hmean          =  0.8783272322153762    
  --> objf_tauu(bi,bj)    =  0.0000000000000000E+00
  --> objf_tauum(bi,bj)   =  0.0000000000000000E+00
  --> objf_tauv(bi,bj)    =  0.0000000000000000E+00
  --> objf_tauvm(bi,bj)   =  0.0000000000000000E+00
  --> objf_hflux(bi,bj)   =  0.0000000000000000E+00
  --> objf_hflux(bi,bj)   =  0.0000000000000000E+00
  --> objf_hflux(bi,bj)   =  0.0000000000000000E+00
  --> objf_sflux(bi,bj)   =  0.0000000000000000E+00
  --> objf_sflux(bi,bj)   =  0.0000000000000000E+00
  --> objf_sflux(bi,bj)   =  0.0000000000000000E+00
  --> objf_atl(bi,bj)     =  0.0000000000000000E+00
  --> objf_ctdt(bi,bj)    =  0.0000000000000000E+00
  --> objf_ctds(bi,bj)    =  0.0000000000000000E+00
  --> objf_xbt(bi,bj)     =  0.0000000000000000E+00
  --> objf_argot(bi,bj)   =  0.0000000000000000E+00
  --> objf_argos(bi,bj)   =  0.0000000000000000E+00
  --> objf_drift(bi,bj)   =  0.0000000000000000E+00
  --> objf_tdrift(bi,bj)  =  0.0000000000000000E+00
  --> objf_sdrift(bi,bj)  =  0.0000000000000000E+00
  --> objf_wdrift(bi,bj)  =  0.0000000000000000E+00
  --> objf_scatx(bi,bj)   =  0.0000000000000000E+00
  --> objf_scaty(bi,bj)   =  0.0000000000000000E+00
  --> objf_scatxm(bi,bj)  =  0.0000000000000000E+00
  --> objf_scatym(bi,bj)  =  0.0000000000000000E+00
  --> objf_uwind(bi,bj)   =  0.0000000000000000E+00
  --> objf_vwind(bi,bj)   =  0.0000000000000000E+00
  --> objf_atemp(bi,bj)   =  0.0000000000000000E+00
  --> objf_aqh(bi,bj)     =  0.0000000000000000E+00
  --> objf_obcsn(bi,bj)   =  0.0000000000000000E+00
  --> objf_obcss(bi,bj)   =  0.0000000000000000E+00
  --> objf_obcsw(bi,bj)   =  0.0000000000000000E+00
  --> objf_obcse(bi,bj)   =  0.0000000000000000E+00
  --> objf_hmean           =  0.8783272322153762    
  --> fc               =   888.2844185656611    
(PID.TID 0000.0001)  MDSREADFIELD: opening file: xx_theta.0000000000.001.001.data
 ph-grd 3 -------------------------------
ph-grd 3     1    2    2    1 0.888284415E+03 0.888284411E+03 0.888284419E+03
ph-grd 3     1    1    1    0 -.381833133E-01 -.381836651E-01 -.921320641E-05
(PID.TID 0000.0001)  MDSREADFIELD: opening file: adxx_theta.0000000000.001.001.data
(PID.TID 0000.0001)  MDSREADFIELD: opening file: xx_theta.0000000000.001.001.data
(PID.TID 0000.0001) 
(PID.TID 0000.0001)  cal_TimeStamp: iter =          0 time =  0.00000000E+00
(PID.TID 0000.0001)                 date =   19920102      220000
(PID.TID 0000.0001) 
(PID.TID 0000.0001) %MON kefCori_max                  =   9.5419917861011E-05
(PID.TID 0000.0001) %MON kefCori_min                  =   2.7752043431195E-05
(PID.TID 0000.0001) %MON kefCori_mean                 =   6.2936249243167E-05
(PID.TID 0000.0001) %MON kefCori_sd                   =   2.0885809702547E-05
(PID.TID 0000.0001) %MON kefCoriG_max                 =   9.3489668167119E-05
(PID.TID 0000.0001) %MON kefCoriG_min                 =   2.5256103669800E-05
(PID.TID 0000.0001) %MON kefCoriG_mean                =   6.0674632558389E-05
(PID.TID 0000.0001) %MON kefCoriG_sd                  =   2.1059305790472E-05
(PID.TID 0000.0001) // CG2D normalisation factor =          0.1575292392863445400000000E-03
(PID.TID 0000.0001) 
(PID.TID 0000.0001)  MDSREADFIELD: opening global file: PH_LevCli.ptmp__020_016_23.data
(PID.TID 0000.0001) // =======================================================
(PID.TID 0000.0001) // Field Initial Temperature at iteration          1
(PID.TID 0000.0001) // CMIN =          1.840084838867188E+01
(PID.TID 0000.0001) // CMAX =          2.607793426513672E+01
(PID.TID 0000.0001) // CINT =          2.843365139431424E-01
(PID.TID 0000.0001) // SYMBOLS (CMIN->CMAX): -abcdefghijklmnopqrstuvwxyz+
(PID.TID 0000.0001) //                  0.0: .
(PID.TID 0000.0001) // RANGE I (Lo:Hi:Step):(   1:  20:   1)
(PID.TID 0000.0001) // RANGE J (Lo:Hi:Step):(  16:   1:  -1)
(PID.TID 0000.0001) // RANGE K (Lo:Hi:Step):(   1:   1:   1)
(PID.TID 0000.0001) // =======================================================
(PID.TID 0000.0001) K =   1
(PID.TID 0000.0001)                I=10      I=20
(PID.TID 0000.0001) |--J--|123456789|123456789|
(PID.TID 0000.0001)     16 ....................
(PID.TID 0000.0001)     15 .jihhgfeedddcba---a.
(PID.TID 0000.0001)     14 .kjiihggffeedcbbabb.
(PID.TID 0000.0001)     13 .lkkjiiiihgfedccbc..
(PID.TID 0000.0001)     12 .mllkkjjjihgfedcc...
(PID.TID 0000.0001)     11 .onnmmllkjihgfeec...
(PID.TID 0000.0001)     10 .rrqqponmmlkihf.....
(PID.TID 0000.0001)      9 .utssrqponmljh......
(PID.TID 0000.0001)      8 .vuttsrqponlig......
(PID.TID 0000.0001)      7 .vuutsrrponkif......
(PID.TID 0000.0001)      6 .wvvuutsrqomjh......
(PID.TID 0000.0001)      5 .yxwwwvutsrpnl......
(PID.TID 0000.0001)      4 .zyyyxxwwvutrq......
(PID.TID 0000.0001)      3 .zzzzyyxxxxwvu......
(PID.TID 0000.0001)      2 .+++++zzz+++zy......
(PID.TID 0000.0001)      1 ....................
(PID.TID 0000.0001) // =======================================================
(PID.TID 0000.0001) // END OF FIELD                                          =
(PID.TID 0000.0001) // =======================================================
(PID.TID 0000.0001) 
(PID.TID 0000.0001)  MDSREADFIELD: opening global file: PH_LevCli.salt__020_016_23.data
(PID.TID 0000.0001) // =======================================================
(PID.TID 0000.0001) // Field Initial Salinity at iteration          1
(PID.TID 0000.0001) // CMIN =          3.501070022583008E+01
(PID.TID 0000.0001) // CMAX =          3.739887619018555E+01
(PID.TID 0000.0001) // CINT =          8.845096164279515E-02
(PID.TID 0000.0001) // SYMBOLS (CMIN->CMAX): -abcdefghijklmnopqrstuvwxyz+
(PID.TID 0000.0001) //                  0.0: .
(PID.TID 0000.0001) // RANGE I (Lo:Hi:Step):(   1:  20:   1)
(PID.TID 0000.0001) // RANGE J (Lo:Hi:Step):(  16:   1:  -1)
(PID.TID 0000.0001) // RANGE K (Lo:Hi:Step):(   1:   1:   1)
(PID.TID 0000.0001) // =======================================================
(PID.TID 0000.0001) K =   1
(PID.TID 0000.0001)                I=10      I=20
(PID.TID 0000.0001) |--J--|123456789|123456789|
(PID.TID 0000.0001)     16 ....................
(PID.TID 0000.0001)     15 .oonnnnmmnnnnnnmllk.
(PID.TID 0000.0001)     14 .ppppoooopppppppooo.
(PID.TID 0000.0001)     13 .qqqqqrrrrrrqqqqqq..
(PID.TID 0000.0001)     12 .tttttttttttssrqp...
(PID.TID 0000.0001)     11 .wwwwwwvvvvuusrpn...
(PID.TID 0000.0001)     10 .zzyyyyyxxwvusr.....
(PID.TID 0000.0001)      9 .++zzzzyxxwutr......
(PID.TID 0000.0001)      8 .+zzyyyxwvusrp......
(PID.TID 0000.0001)      7 .xxxxwwutsrpnm......
(PID.TID 0000.0001)      6 .uuuuutsqponlj......
(PID.TID 0000.0001)      5 .rrrrqqponmkji......
(PID.TID 0000.0001)      4 .poooonmmlkihg......
(PID.TID 0000.0001)      3 .mmlllllkjihec......
(PID.TID 0000.0001)      2 .jjjkkkjjihfd-......
(PID.TID 0000.0001)      1 ....................
(PID.TID 0000.0001) // =======================================================
(PID.TID 0000.0001) // END OF FIELD                                          =
(PID.TID 0000.0001) // =======================================================
(PID.TID 0000.0001) 
(PID.TID 0000.0001)  MDSREADFIELD: opening file: xx_theta.0000000000.001.001.data
(PID.TID 0000.0001)  MDSREADFIELD: opening file: xx_salt.0000000000.001.001.data
(PID.TID 0000.0001) // =======================================================
(PID.TID 0000.0001) // Model current state
(PID.TID 0000.0001) // =======================================================
(PID.TID 0000.0001) 
(PID.TID 0000.0001) // =======================================================
(PID.TID 0000.0001) // Begin MONITOR dynamic field statistics
(PID.TID 0000.0001) // =======================================================
(PID.TID 0000.0001) %MON time_tsnumber                =                     0
(PID.TID 0000.0001) %MON time_secondsf                =   0.0000000000000E+00
(PID.TID 0000.0001) %MON time_secondsi                =                     0
(PID.TID 0000.0001) %MON dynstat_eta_max              =   0.0000000000000E+00
(PID.TID 0000.0001) %MON dynstat_eta_min              =   0.0000000000000E+00
(PID.TID 0000.0001) %MON dynstat_eta_mean             =   0.0000000000000E+00
(PID.TID 0000.0001) %MON dynstat_eta_sd               =   0.0000000000000E+00
(PID.TID 0000.0001) %MON dynstat_eta_del2             =   0.0000000000000E+00
(PID.TID 0000.0001) %MON dynstat_uvel_max             =   0.0000000000000E+00
(PID.TID 0000.0001) %MON dynstat_uvel_min             =   0.0000000000000E+00
(PID.TID 0000.0001) %MON dynstat_uvel_mean            =   0.0000000000000E+00
(PID.TID 0000.0001) %MON dynstat_uvel_sd              =   0.0000000000000E+00
(PID.TID 0000.0001) %MON dynstat_uvel_del2            =   0.0000000000000E+00
(PID.TID 0000.0001) %MON dynstat_vvel_max             =   0.0000000000000E+00
(PID.TID 0000.0001) %MON dynstat_vvel_min             =   0.0000000000000E+00
(PID.TID 0000.0001) %MON dynstat_vvel_mean            =   0.0000000000000E+00
(PID.TID 0000.0001) %MON dynstat_vvel_sd              =   0.0000000000000E+00
(PID.TID 0000.0001) %MON dynstat_vvel_del2            =   0.0000000000000E+00
(PID.TID 0000.0001) %MON dynstat_wvel_max             =   0.0000000000000E+00
(PID.TID 0000.0001) %MON dynstat_wvel_min             =   0.0000000000000E+00
(PID.TID 0000.0001) %MON dynstat_wvel_mean            =   0.0000000000000E+00
(PID.TID 0000.0001) %MON dynstat_wvel_sd              =   0.0000000000000E+00
(PID.TID 0000.0001) %MON dynstat_wvel_del2            =   0.0000000000000E+00
(PID.TID 0000.0001) %MON dynstat_theta_max            =   2.6077934265137E+01
(PID.TID 0000.0001) %MON dynstat_theta_min            =   1.8064365386963E+00
(PID.TID 0000.0001) %MON dynstat_theta_mean           =   5.4784105613375E+00
(PID.TID 0000.0001) %MON dynstat_theta_sd             =   4.5923951993935E+00
(PID.TID 0000.0001) %MON dynstat_theta_del2           =   5.0898861128574E-02
(PID.TID 0000.0001) %MON dynstat_salt_max             =   3.7401638031006E+01
(PID.TID 0000.0001) %MON dynstat_salt_min             =   3.4726768493652E+01
(PID.TID 0000.0001) %MON dynstat_salt_mean            =   3.5157555715946E+01
(PID.TID 0000.0001) %MON dynstat_salt_sd              =   4.1377404390946E-01
(PID.TID 0000.0001) %MON dynstat_salt_del2            =   1.2632116608019E-02
(PID.TID 0000.0001) %MON advcfl_uvel_max              =   0.0000000000000E+00
(PID.TID 0000.0001) %MON advcfl_vvel_max              =   0.0000000000000E+00
(PID.TID 0000.0001) %MON advcfl_wvel_max              =   0.0000000000000E+00
(PID.TID 0000.0001) %MON advcfl_W_hf_max              =   0.0000000000000E+00
(PID.TID 0000.0001) %MON ke_max                       =   0.0000000000000E+00
(PID.TID 0000.0001) %MON ke_mean                      =   0.0000000000000E+00
(PID.TID 0000.0001) %MON ke_volint                    =   0.0000000000000E+00
(PID.TID 0000.0001) %MON ke_volmean                   =   0.0000000000000E+00
(PID.TID 0000.0001) // =======================================================
(PID.TID 0000.0001) // End MONITOR dynamic field statistics
(PID.TID 0000.0001) // =======================================================
(PID.TID 0000.0001)  MDSREADFIELD: opening file: xx_hfl.0000000000.001.001.data
(PID.TID 0000.0001)  MDSREADFIELD: opening file: xx_hfl.0000000000.001.001.data
(PID.TID 0000.0001)  MDSREADFIELD: opening file: xx_hfl.0000000000.001.001.data
(PID.TID 0000.0001)  MDSREADFIELD: opening file: xx_hfl.0000000000.001.001.data
(PID.TID 0000.0001)  MDSREADFIELD: opening file: xx_sfl.0000000000.001.001.data
(PID.TID 0000.0001)  MDSREADFIELD: opening file: xx_sfl.0000000000.001.001.data
(PID.TID 0000.0001)  MDSREADFIELD: opening file: xx_sfl.0000000000.001.001.data
(PID.TID 0000.0001)  MDSREADFIELD: opening file: xx_sfl.0000000000.001.001.data
(PID.TID 0000.0001)  MDSREADFIELD: opening file: xx_tauu.0000000000.001.001.data
(PID.TID 0000.0001)  MDSREADFIELD: opening file: xx_tauu.0000000000.001.001.data
(PID.TID 0000.0001)  MDSREADFIELD: opening file: xx_tauu.0000000000.001.001.data
(PID.TID 0000.0001)  MDSREADFIELD: opening file: xx_tauu.0000000000.001.001.data
(PID.TID 0000.0001)  MDSREADFIELD: opening file: xx_tauv.0000000000.001.001.data
(PID.TID 0000.0001)  MDSREADFIELD: opening file: xx_tauv.0000000000.001.001.data
(PID.TID 0000.0001)  MDSREADFIELD: opening file: xx_tauv.0000000000.001.001.data
(PID.TID 0000.0001)  MDSREADFIELD: opening file: xx_tauv.0000000000.001.001.data
(PID.TID 0000.0001) 
(PID.TID 0000.0001)  exf_GetFFieldsRec: first, changed, fac:   T   F   0.16666667D+00
(PID.TID 0000.0001)  exf_GetFFieldsRec:      count0, count1:   2   3
(PID.TID 0000.0001) 
(PID.TID 0000.0001)  MDSREADFIELD: opening global file: PH_ustress__020_016_23.data
(PID.TID 0000.0001)  MDSREADFIELD: opening global file: PH_ustress__020_016_23.data
(PID.TID 0000.0001) 
(PID.TID 0000.0001)  exf_GetFFieldsRec: first, changed, fac:   T   F   0.16666667D+00
(PID.TID 0000.0001)  exf_GetFFieldsRec:      count0, count1:   2   3
(PID.TID 0000.0001) 
(PID.TID 0000.0001)  MDSREADFIELD: opening global file: PH_vstress__020_016_23.data
(PID.TID 0000.0001)  MDSREADFIELD: opening global file: PH_vstress__020_016_23.data
(PID.TID 0000.0001) 
(PID.TID 0000.0001)  exf_GetFFieldsRec: first, changed, fac:   T   F   0.20833333D+00
(PID.TID 0000.0001)  exf_GetFFieldsRec:      count0, count1:   1   2
(PID.TID 0000.0001) 
(PID.TID 0000.0001)  MDSREADFIELD: opening global file: PH_totflsfc__020_016_23.data
(PID.TID 0000.0001)  MDSREADFIELD: opening global file: PH_totflsfc__020_016_23.data
(PID.TID 0000.0001) 
(PID.TID 0000.0001)  exf_GetFFieldsRec: first, changed, fac:   T   F   0.20833333D+00
(PID.TID 0000.0001)  exf_GetFFieldsRec:      count0, count1:   1   2
(PID.TID 0000.0001) 
(PID.TID 0000.0001)  MDSREADFIELD: opening global file: PH_pratesfc__020_016_23.data
(PID.TID 0000.0001)  MDSREADFIELD: opening global file: PH_pratesfc__020_016_23.data
(PID.TID 0000.0001) 
(PID.TID 0000.0001)  exf_GetFFieldsRec: first, changed, fac:   T   F   0.20833333D+00
(PID.TID 0000.0001)  exf_GetFFieldsRec:      count0, count1:   1   2
(PID.TID 0000.0001) 
(PID.TID 0000.0001)  MDSREADFIELD: opening global file: PH_swflsfc__020_016_23.data
(PID.TID 0000.0001)  MDSREADFIELD: opening global file: PH_swflsfc__020_016_23.data
(PID.TID 0000.0001)  MDSREADFIELD: opening file: xx_hfl.0000000000.001.001.data
(PID.TID 0000.0001)  MDSREADFIELD: opening file: xx_hfl.0000000000.001.001.data
(PID.TID 0000.0001)  MDSREADFIELD: opening file: xx_sfl.0000000000.001.001.data
(PID.TID 0000.0001)  MDSREADFIELD: opening file: xx_sfl.0000000000.001.001.data
(PID.TID 0000.0001)  MDSREADFIELD: opening file: xx_tauu.0000000000.001.001.data
(PID.TID 0000.0001)  MDSREADFIELD: opening file: xx_tauu.0000000000.001.001.data
(PID.TID 0000.0001)  MDSREADFIELD: opening file: xx_tauv.0000000000.001.001.data
(PID.TID 0000.0001)  MDSREADFIELD: opening file: xx_tauv.0000000000.001.001.data
 pathei: in check_exp: iter/time/rec/yprefix            0
   0.0000000000000000E+00           1 kf_
 pathei: in check_exp: date             0
 pathei: in check_exp: theta    21.97006225585938    
 pathei: in check_exp: salt     37.11309814453125    
 pathei: in check_exp: uvel    0.0000000000000000E+00
 pathei: in check_exp: vvel    0.0000000000000000E+00
 pathei: in check_exp: qnet     147.2961209615072    
 pathei: in check_exp: empmr   2.8335203183793567E-08
 pathei: in check_exp: fu     -1.3372420876597365E-02
 pathei: in check_exp: fv     -2.0421730043987431E-02
 cg2d: Sum(rhs),rhsMax =   2.90045765183322E-15  4.50737656431948E-01
(PID.TID 0000.0001)                    cg2d_init_res =    3.97910540088546E+00
(PID.TID 0000.0001)                       cg2d_iters =    50
(PID.TID 0000.0001)                         cg2d_res =    7.14089803996215E-14
(PID.TID 0000.0001) 
(PID.TID 0000.0001)  cal_TimeStamp: iter =          1 time =  0.36000000E+04
(PID.TID 0000.0001)                 date =   19920102      230000
(PID.TID 0000.0001) 
(PID.TID 0000.0001) 
(PID.TID 0000.0001)  exf_GetFFieldsRec: first, changed, fac:   F   F   0.83333333D-01
(PID.TID 0000.0001)  exf_GetFFieldsRec:      count0, count1:   2   3
(PID.TID 0000.0001) 
(PID.TID 0000.0001) 
(PID.TID 0000.0001)  exf_GetFFieldsRec: first, changed, fac:   F   F   0.83333333D-01
(PID.TID 0000.0001)  exf_GetFFieldsRec:      count0, count1:   2   3
(PID.TID 0000.0001) 
(PID.TID 0000.0001) 
(PID.TID 0000.0001)  exf_GetFFieldsRec: first, changed, fac:   F   F   0.16666667D+00
(PID.TID 0000.0001)  exf_GetFFieldsRec:      count0, count1:   1   2
(PID.TID 0000.0001) 
(PID.TID 0000.0001) 
(PID.TID 0000.0001)  exf_GetFFieldsRec: first, changed, fac:   F   F   0.16666667D+00
(PID.TID 0000.0001)  exf_GetFFieldsRec:      count0, count1:   1   2
(PID.TID 0000.0001) 
(PID.TID 0000.0001) 
(PID.TID 0000.0001)  exf_GetFFieldsRec: first, changed, fac:   F   F   0.16666667D+00
(PID.TID 0000.0001)  exf_GetFFieldsRec:      count0, count1:   1   2
(PID.TID 0000.0001) 
 cg2d: Sum(rhs),rhsMax =   1.66533453693773E-16  5.55599808124580E-01
(PID.TID 0000.0001)                    cg2d_init_res =    9.18998597094372E-01
(PID.TID 0000.0001)                       cg2d_iters =    47
(PID.TID 0000.0001)                         cg2d_res =    7.10930361737491E-14
(PID.TID 0000.0001) 
(PID.TID 0000.0001)  cal_TimeStamp: iter =          2 time =  0.72000000E+04
(PID.TID 0000.0001)                 date =   19920103           0
(PID.TID 0000.0001) 
(PID.TID 0000.0001) 
(PID.TID 0000.0001)  exf_GetFFieldsRec: first, changed, fac:   F   T   0.10000000D+01
(PID.TID 0000.0001)  exf_GetFFieldsRec:      count0, count1:   3   4
(PID.TID 0000.0001) 
(PID.TID 0000.0001)  MDSREADFIELD: opening global file: PH_ustress__020_016_23.data
(PID.TID 0000.0001) 
(PID.TID 0000.0001)  exf_GetFFieldsRec: first, changed, fac:   F   T   0.10000000D+01
(PID.TID 0000.0001)  exf_GetFFieldsRec:      count0, count1:   3   4
(PID.TID 0000.0001) 
(PID.TID 0000.0001)  MDSREADFIELD: opening global file: PH_vstress__020_016_23.data
(PID.TID 0000.0001) 
(PID.TID 0000.0001)  exf_GetFFieldsRec: first, changed, fac:   F   F   0.12500000D+00
(PID.TID 0000.0001)  exf_GetFFieldsRec:      count0, count1:   1   2
(PID.TID 0000.0001) 
(PID.TID 0000.0001) 
(PID.TID 0000.0001)  exf_GetFFieldsRec: first, changed, fac:   F   F   0.12500000D+00
(PID.TID 0000.0001)  exf_GetFFieldsRec:      count0, count1:   1   2
(PID.TID 0000.0001) 
(PID.TID 0000.0001) 
(PID.TID 0000.0001)  exf_GetFFieldsRec: first, changed, fac:   F   F   0.12500000D+00
(PID.TID 0000.0001)  exf_GetFFieldsRec:      count0, count1:   1   2
(PID.TID 0000.0001) 
 cg2d: Sum(rhs),rhsMax =   8.16013923099490E-15  5.83126576979009E-01
(PID.TID 0000.0001)                    cg2d_init_res =    5.50763551867741E-01
(PID.TID 0000.0001)                       cg2d_iters =    46
(PID.TID 0000.0001)                         cg2d_res =    8.16122329281977E-14
(PID.TID 0000.0001) 
(PID.TID 0000.0001)  cal_TimeStamp: iter =          3 time =  0.10800000E+05
(PID.TID 0000.0001)                 date =   19920103       10000
(PID.TID 0000.0001) 
(PID.TID 0000.0001) 
(PID.TID 0000.0001)  exf_GetFFieldsRec: first, changed, fac:   F   F   0.91666667D+00
(PID.TID 0000.0001)  exf_GetFFieldsRec:      count0, count1:   3   4
(PID.TID 0000.0001) 
(PID.TID 0000.0001) 
(PID.TID 0000.0001)  exf_GetFFieldsRec: first, changed, fac:   F   F   0.91666667D+00
(PID.TID 0000.0001)  exf_GetFFieldsRec:      count0, count1:   3   4
(PID.TID 0000.0001) 
(PID.TID 0000.0001) 
(PID.TID 0000.0001)  exf_GetFFieldsRec: first, changed, fac:   F   F   0.83333333D-01
(PID.TID 0000.0001)  exf_GetFFieldsRec:      count0, count1:   1   2
(PID.TID 0000.0001) 
(PID.TID 0000.0001) 
(PID.TID 0000.0001)  exf_GetFFieldsRec: first, changed, fac:   F   F   0.83333333D-01
(PID.TID 0000.0001)  exf_GetFFieldsRec:      count0, count1:   1   2
(PID.TID 0000.0001) 
(PID.TID 0000.0001) 
(PID.TID 0000.0001)  exf_GetFFieldsRec: first, changed, fac:   F   F   0.83333333D-01
(PID.TID 0000.0001)  exf_GetFFieldsRec:      count0, count1:   1   2
(PID.TID 0000.0001) 
 cg2d: Sum(rhs),rhsMax =   3.55271367880050E-15  6.06515182046494E-01
(PID.TID 0000.0001)                    cg2d_init_res =    2.97539840832979E-01
(PID.TID 0000.0001)                       cg2d_iters =    47
(PID.TID 0000.0001)                         cg2d_res =    4.80148961983486E-14
(PID.TID 0000.0001) 
(PID.TID 0000.0001)  cal_TimeStamp: iter =          4 time =  0.14400000E+05
(PID.TID 0000.0001)                 date =   19920103       20000
(PID.TID 0000.0001) 
(PID.TID 0000.0001)  MDSREADFIELD: opening file: tbar.0000000000.001.001.data
(PID.TID 0000.0001)  MDSREADFIELD: opening global file: PH_SST_fields__020_016_23.data
(PID.TID 0000.0001)  MDSREADFIELD: opening file: tbar.0000000000.001.001.data
(PID.TID 0000.0001)  MDSREADFIELD: opening global file: PH_Lev.ptmp__020_016_23.data
(PID.TID 0000.0001)  MDSREADFIELD: opening file: sbar.0000000000.001.001.data
(PID.TID 0000.0001)  MDSREADFIELD: opening global file: PH_Lev.salt__020_016_23.data
(PID.TID 0000.0001)  MDSREADFIELD: opening file: psbar.0000000000.001.001.data
(PID.TID 0000.0001)  MDSREADFIELD: opening file: psbar.0000000000.001.001.data
(PID.TID 0000.0001)  MDSREADFIELD: opening global file: PH_TP_mean__020_016_23.data

  cost_ssh: offset_sum =    187.0000000000000    

(PID.TID 0000.0001)  MDSREADFIELD: opening file: psbar.0000000000.001.001.data
(PID.TID 0000.0001)  MDSREADFIELD: opening global file: PH_TP_fields__020_016_23.data
(PID.TID 0000.0001)  MDSREADFIELD: opening global file: PH_ERS_fields__020_016_23.data
(PID.TID 0000.0001)  MDSREADFIELD: opening file: psbar.0000000000.001.001.data
(PID.TID 0000.0001)  MDSREADFIELD: opening global file: PH_TP_fields__020_016_23.data
(PID.TID 0000.0001)  MDSREADFIELD: opening global file: PH_ERS_fields__020_016_23.data
(PID.TID 0000.0001)  MDSREADFIELD: opening file: tbar.0000000000.001.001.data
(PID.TID 0000.0001)  MDSREADFIELD: opening global file: PH_SST_fields__020_016_23.data
  --> objf_temp(bi,bj)    =   672.7408546454099    
  --> objf_salt(bi,bj)    =   127.5781327683294    
  --> objf_temp0(bi,bj)   =  0.0000000000000000E+00
  --> objf_salt0(bi,bj)   =  0.0000000000000000E+00
  --> objf_sst(bi,bj)     =   70.10589509588026    
  --> objf_sss(bi,bj)     =  0.0000000000000000E+00
  --> objf_h(bi,bj)       =   16.98122901088640    
  --> objf_hmean          =  0.8783271942516974    
  --> objf_tauu(bi,bj)    =  0.0000000000000000E+00
  --> objf_tauum(bi,bj)   =  0.0000000000000000E+00
  --> objf_tauv(bi,bj)    =  0.0000000000000000E+00
  --> objf_tauvm(bi,bj)   =  0.0000000000000000E+00
  --> objf_hflux(bi,bj)   =  0.0000000000000000E+00
  --> objf_hflux(bi,bj)   =  0.0000000000000000E+00
  --> objf_hflux(bi,bj)   =  0.0000000000000000E+00
  --> objf_sflux(bi,bj)   =  0.0000000000000000E+00
  --> objf_sflux(bi,bj)   =  0.0000000000000000E+00
  --> objf_sflux(bi,bj)   =  0.0000000000000000E+00
  --> objf_atl(bi,bj)     =  0.0000000000000000E+00
  --> objf_ctdt(bi,bj)    =  0.0000000000000000E+00
  --> objf_ctds(bi,bj)    =  0.0000000000000000E+00
  --> objf_xbt(bi,bj)     =  0.0000000000000000E+00
  --> objf_argot(bi,bj)   =  0.0000000000000000E+00
  --> objf_argos(bi,bj)   =  0.0000000000000000E+00
  --> objf_drift(bi,bj)   =  0.0000000000000000E+00
  --> objf_tdrift(bi,bj)  =  0.0000000000000000E+00
  --> objf_sdrift(bi,bj)  =  0.0000000000000000E+00
  --> objf_wdrift(bi,bj)  =  0.0000000000000000E+00
  --> objf_scatx(bi,bj)   =  0.0000000000000000E+00
  --> objf_scaty(bi,bj)   =  0.0000000000000000E+00
  --> objf_scatxm(bi,bj)  =  0.0000000000000000E+00
  --> objf_scatym(bi,bj)  =  0.0000000000000000E+00
  --> objf_uwind(bi,bj)   =  0.0000000000000000E+00
  --> objf_vwind(bi,bj)   =  0.0000000000000000E+00
  --> objf_atemp(bi,bj)   =  0.0000000000000000E+00
  --> objf_aqh(bi,bj)     =  0.0000000000000000E+00
  --> objf_obcsn(bi,bj)   =  0.0000000000000000E+00
  --> objf_obcss(bi,bj)   =  0.0000000000000000E+00
  --> objf_obcsw(bi,bj)   =  0.0000000000000000E+00
  --> objf_obcse(bi,bj)   =  0.0000000000000000E+00
  --> objf_hmean           =  0.8783271942516974    
  --> fc               =   888.2844387147576    
(PID.TID 0000.0001)  MDSREADFIELD: opening file: xx_theta.0000000000.001.001.data
(PID.TID 0000.0001)  MDSREADFIELD: opening file: xx_theta.0000000000.001.001.data
(PID.TID 0000.0001) 
(PID.TID 0000.0001)  cal_TimeStamp: iter =          0 time =  0.00000000E+00
(PID.TID 0000.0001)                 date =   19920102      220000
(PID.TID 0000.0001) 
(PID.TID 0000.0001) %MON kefCori_max                  =   9.5419917861011E-05
(PID.TID 0000.0001) %MON kefCori_min                  =   2.7752043431195E-05
(PID.TID 0000.0001) %MON kefCori_mean                 =   6.2936249243167E-05
(PID.TID 0000.0001) %MON kefCori_sd                   =   2.0885809702547E-05
(PID.TID 0000.0001) %MON kefCoriG_max                 =   9.3489668167119E-05
(PID.TID 0000.0001) %MON kefCoriG_min                 =   2.5256103669800E-05
(PID.TID 0000.0001) %MON kefCoriG_mean                =   6.0674632558389E-05
(PID.TID 0000.0001) %MON kefCoriG_sd                  =   2.1059305790472E-05
(PID.TID 0000.0001) // CG2D normalisation factor =          0.1575292392863445400000000E-03
(PID.TID 0000.0001) 
(PID.TID 0000.0001)  MDSREADFIELD: opening global file: PH_LevCli.ptmp__020_016_23.data
(PID.TID 0000.0001) // =======================================================
(PID.TID 0000.0001) // Field Initial Temperature at iteration          1
(PID.TID 0000.0001) // CMIN =          1.840084838867188E+01
(PID.TID 0000.0001) // CMAX =          2.607793426513672E+01
(PID.TID 0000.0001) // CINT =          2.843365139431424E-01
(PID.TID 0000.0001) // SYMBOLS (CMIN->CMAX): -abcdefghijklmnopqrstuvwxyz+
(PID.TID 0000.0001) //                  0.0: .
(PID.TID 0000.0001) // RANGE I (Lo:Hi:Step):(   1:  20:   1)
(PID.TID 0000.0001) // RANGE J (Lo:Hi:Step):(  16:   1:  -1)
(PID.TID 0000.0001) // RANGE K (Lo:Hi:Step):(   1:   1:   1)
(PID.TID 0000.0001) // =======================================================
(PID.TID 0000.0001) K =   1
(PID.TID 0000.0001)                I=10      I=20
(PID.TID 0000.0001) |--J--|123456789|123456789|
(PID.TID 0000.0001)     16 ....................
(PID.TID 0000.0001)     15 .jihhgfeedddcba---a.
(PID.TID 0000.0001)     14 .kjiihggffeedcbbabb.
(PID.TID 0000.0001)     13 .lkkjiiiihgfedccbc..
(PID.TID 0000.0001)     12 .mllkkjjjihgfedcc...
(PID.TID 0000.0001)     11 .onnmmllkjihgfeec...
(PID.TID 0000.0001)     10 .rrqqponmmlkihf.....
(PID.TID 0000.0001)      9 .utssrqponmljh......
(PID.TID 0000.0001)      8 .vuttsrqponlig......
(PID.TID 0000.0001)      7 .vuutsrrponkif......
(PID.TID 0000.0001)      6 .wvvuutsrqomjh......
(PID.TID 0000.0001)      5 .yxwwwvutsrpnl......
(PID.TID 0000.0001)      4 .zyyyxxwwvutrq......
(PID.TID 0000.0001)      3 .zzzzyyxxxxwvu......
(PID.TID 0000.0001)      2 .+++++zzz+++zy......
(PID.TID 0000.0001)      1 ....................
(PID.TID 0000.0001) // =======================================================
(PID.TID 0000.0001) // END OF FIELD                                          =
(PID.TID 0000.0001) // =======================================================
(PID.TID 0000.0001) 
(PID.TID 0000.0001)  MDSREADFIELD: opening global file: PH_LevCli.salt__020_016_23.data
(PID.TID 0000.0001) // =======================================================
(PID.TID 0000.0001) // Field Initial Salinity at iteration          1
(PID.TID 0000.0001) // CMIN =          3.501070022583008E+01
(PID.TID 0000.0001) // CMAX =          3.739887619018555E+01
(PID.TID 0000.0001) // CINT =          8.845096164279515E-02
(PID.TID 0000.0001) // SYMBOLS (CMIN->CMAX): -abcdefghijklmnopqrstuvwxyz+
(PID.TID 0000.0001) //                  0.0: .
(PID.TID 0000.0001) // RANGE I (Lo:Hi:Step):(   1:  20:   1)
(PID.TID 0000.0001) // RANGE J (Lo:Hi:Step):(  16:   1:  -1)
(PID.TID 0000.0001) // RANGE K (Lo:Hi:Step):(   1:   1:   1)
(PID.TID 0000.0001) // =======================================================
(PID.TID 0000.0001) K =   1
(PID.TID 0000.0001)                I=10      I=20
(PID.TID 0000.0001) |--J--|123456789|123456789|
(PID.TID 0000.0001)     16 ....................
(PID.TID 0000.0001)     15 .oonnnnmmnnnnnnmllk.
(PID.TID 0000.0001)     14 .ppppoooopppppppooo.
(PID.TID 0000.0001)     13 .qqqqqrrrrrrqqqqqq..
(PID.TID 0000.0001)     12 .tttttttttttssrqp...
(PID.TID 0000.0001)     11 .wwwwwwvvvvuusrpn...
(PID.TID 0000.0001)     10 .zzyyyyyxxwvusr.....
(PID.TID 0000.0001)      9 .++zzzzyxxwutr......
(PID.TID 0000.0001)      8 .+zzyyyxwvusrp......
(PID.TID 0000.0001)      7 .xxxxwwutsrpnm......
(PID.TID 0000.0001)      6 .uuuuutsqponlj......
(PID.TID 0000.0001)      5 .rrrrqqponmkji......
(PID.TID 0000.0001)      4 .poooonmmlkihg......
(PID.TID 0000.0001)      3 .mmlllllkjihec......
(PID.TID 0000.0001)      2 .jjjkkkjjihfd-......
(PID.TID 0000.0001)      1 ....................
(PID.TID 0000.0001) // =======================================================
(PID.TID 0000.0001) // END OF FIELD                                          =
(PID.TID 0000.0001) // =======================================================
(PID.TID 0000.0001) 
(PID.TID 0000.0001)  MDSREADFIELD: opening file: xx_theta.0000000000.001.001.data
(PID.TID 0000.0001)  MDSREADFIELD: opening file: xx_salt.0000000000.001.001.data
(PID.TID 0000.0001) // =======================================================
(PID.TID 0000.0001) // Model current state
(PID.TID 0000.0001) // =======================================================
(PID.TID 0000.0001) 
(PID.TID 0000.0001) // =======================================================
(PID.TID 0000.0001) // Begin MONITOR dynamic field statistics
(PID.TID 0000.0001) // =======================================================
(PID.TID 0000.0001) %MON time_tsnumber                =                     0
(PID.TID 0000.0001) %MON time_secondsf                =   0.0000000000000E+00
(PID.TID 0000.0001) %MON time_secondsi                =                     0
(PID.TID 0000.0001) %MON dynstat_eta_max              =   0.0000000000000E+00
(PID.TID 0000.0001) %MON dynstat_eta_min              =   0.0000000000000E+00
(PID.TID 0000.0001) %MON dynstat_eta_mean             =   0.0000000000000E+00
(PID.TID 0000.0001) %MON dynstat_eta_sd               =   0.0000000000000E+00
(PID.TID 0000.0001) %MON dynstat_eta_del2             =   0.0000000000000E+00
(PID.TID 0000.0001) %MON dynstat_uvel_max             =   0.0000000000000E+00
(PID.TID 0000.0001) %MON dynstat_uvel_min             =   0.0000000000000E+00
(PID.TID 0000.0001) %MON dynstat_uvel_mean            =   0.0000000000000E+00
(PID.TID 0000.0001) %MON dynstat_uvel_sd              =   0.0000000000000E+00
(PID.TID 0000.0001) %MON dynstat_uvel_del2            =   0.0000000000000E+00
(PID.TID 0000.0001) %MON dynstat_vvel_max             =   0.0000000000000E+00
(PID.TID 0000.0001) %MON dynstat_vvel_min             =   0.0000000000000E+00
(PID.TID 0000.0001) %MON dynstat_vvel_mean            =   0.0000000000000E+00
(PID.TID 0000.0001) %MON dynstat_vvel_sd              =   0.0000000000000E+00
(PID.TID 0000.0001) %MON dynstat_vvel_del2            =   0.0000000000000E+00
(PID.TID 0000.0001) %MON dynstat_wvel_max             =   0.0000000000000E+00
(PID.TID 0000.0001) %MON dynstat_wvel_min             =   0.0000000000000E+00
(PID.TID 0000.0001) %MON dynstat_wvel_mean            =   0.0000000000000E+00
(PID.TID 0000.0001) %MON dynstat_wvel_sd              =   0.0000000000000E+00
(PID.TID 0000.0001) %MON dynstat_wvel_del2            =   0.0000000000000E+00
(PID.TID 0000.0001) %MON dynstat_theta_max            =   2.6077934265137E+01
(PID.TID 0000.0001) %MON dynstat_theta_min            =   1.8064365386963E+00
(PID.TID 0000.0001) %MON dynstat_theta_mean           =   5.4784105586633E+00
(PID.TID 0000.0001) %MON dynstat_theta_sd             =   4.5923951874685E+00
(PID.TID 0000.0001) %MON dynstat_theta_del2           =   5.0898836015565E-02
(PID.TID 0000.0001) %MON dynstat_salt_max             =   3.7401638031006E+01
(PID.TID 0000.0001) %MON dynstat_salt_min             =   3.4726768493652E+01
(PID.TID 0000.0001) %MON dynstat_salt_mean            =   3.5157555715946E+01
(PID.TID 0000.0001) %MON dynstat_salt_sd              =   4.1377404390946E-01
(PID.TID 0000.0001) %MON dynstat_salt_del2            =   1.2632116608019E-02
(PID.TID 0000.0001) %MON advcfl_uvel_max              =   0.0000000000000E+00
(PID.TID 0000.0001) %MON advcfl_vvel_max              =   0.0000000000000E+00
(PID.TID 0000.0001) %MON advcfl_wvel_max              =   0.0000000000000E+00
(PID.TID 0000.0001) %MON advcfl_W_hf_max              =   0.0000000000000E+00
(PID.TID 0000.0001) %MON ke_max                       =   0.0000000000000E+00
(PID.TID 0000.0001) %MON ke_mean                      =   0.0000000000000E+00
(PID.TID 0000.0001) %MON ke_volint                    =   0.0000000000000E+00
(PID.TID 0000.0001) %MON ke_volmean                   =   0.0000000000000E+00
(PID.TID 0000.0001) // =======================================================
(PID.TID 0000.0001) // End MONITOR dynamic field statistics
(PID.TID 0000.0001) // =======================================================
(PID.TID 0000.0001)  MDSREADFIELD: opening file: xx_hfl.0000000000.001.001.data
(PID.TID 0000.0001)  MDSREADFIELD: opening file: xx_hfl.0000000000.001.001.data
(PID.TID 0000.0001)  MDSREADFIELD: opening file: xx_hfl.0000000000.001.001.data
(PID.TID 0000.0001)  MDSREADFIELD: opening file: xx_hfl.0000000000.001.001.data
(PID.TID 0000.0001)  MDSREADFIELD: opening file: xx_sfl.0000000000.001.001.data
(PID.TID 0000.0001)  MDSREADFIELD: opening file: xx_sfl.0000000000.001.001.data
(PID.TID 0000.0001)  MDSREADFIELD: opening file: xx_sfl.0000000000.001.001.data
(PID.TID 0000.0001)  MDSREADFIELD: opening file: xx_sfl.0000000000.001.001.data
(PID.TID 0000.0001)  MDSREADFIELD: opening file: xx_tauu.0000000000.001.001.data
(PID.TID 0000.0001)  MDSREADFIELD: opening file: xx_tauu.0000000000.001.001.data
(PID.TID 0000.0001)  MDSREADFIELD: opening file: xx_tauu.0000000000.001.001.data
(PID.TID 0000.0001)  MDSREADFIELD: opening file: xx_tauu.0000000000.001.001.data
(PID.TID 0000.0001)  MDSREADFIELD: opening file: xx_tauv.0000000000.001.001.data
(PID.TID 0000.0001)  MDSREADFIELD: opening file: xx_tauv.0000000000.001.001.data
(PID.TID 0000.0001)  MDSREADFIELD: opening file: xx_tauv.0000000000.001.001.data
(PID.TID 0000.0001)  MDSREADFIELD: opening file: xx_tauv.0000000000.001.001.data
(PID.TID 0000.0001) 
(PID.TID 0000.0001)  exf_GetFFieldsRec: first, changed, fac:   T   F   0.16666667D+00
(PID.TID 0000.0001)  exf_GetFFieldsRec:      count0, count1:   2   3
(PID.TID 0000.0001) 
(PID.TID 0000.0001)  MDSREADFIELD: opening global file: PH_ustress__020_016_23.data
(PID.TID 0000.0001)  MDSREADFIELD: opening global file: PH_ustress__020_016_23.data
(PID.TID 0000.0001) 
(PID.TID 0000.0001)  exf_GetFFieldsRec: first, changed, fac:   T   F   0.16666667D+00
(PID.TID 0000.0001)  exf_GetFFieldsRec:      count0, count1:   2   3
(PID.TID 0000.0001) 
(PID.TID 0000.0001)  MDSREADFIELD: opening global file: PH_vstress__020_016_23.data
(PID.TID 0000.0001)  MDSREADFIELD: opening global file: PH_vstress__020_016_23.data
(PID.TID 0000.0001) 
(PID.TID 0000.0001)  exf_GetFFieldsRec: first, changed, fac:   T   F   0.20833333D+00
(PID.TID 0000.0001)  exf_GetFFieldsRec:      count0, count1:   1   2
(PID.TID 0000.0001) 
(PID.TID 0000.0001)  MDSREADFIELD: opening global file: PH_totflsfc__020_016_23.data
(PID.TID 0000.0001)  MDSREADFIELD: opening global file: PH_totflsfc__020_016_23.data
(PID.TID 0000.0001) 
(PID.TID 0000.0001)  exf_GetFFieldsRec: first, changed, fac:   T   F   0.20833333D+00
(PID.TID 0000.0001)  exf_GetFFieldsRec:      count0, count1:   1   2
(PID.TID 0000.0001) 
(PID.TID 0000.0001)  MDSREADFIELD: opening global file: PH_pratesfc__020_016_23.data
(PID.TID 0000.0001)  MDSREADFIELD: opening global file: PH_pratesfc__020_016_23.data
(PID.TID 0000.0001) 
(PID.TID 0000.0001)  exf_GetFFieldsRec: first, changed, fac:   T   F   0.20833333D+00
(PID.TID 0000.0001)  exf_GetFFieldsRec:      count0, count1:   1   2
(PID.TID 0000.0001) 
(PID.TID 0000.0001)  MDSREADFIELD: opening global file: PH_swflsfc__020_016_23.data
(PID.TID 0000.0001)  MDSREADFIELD: opening global file: PH_swflsfc__020_016_23.data
(PID.TID 0000.0001)  MDSREADFIELD: opening file: xx_hfl.0000000000.001.001.data
(PID.TID 0000.0001)  MDSREADFIELD: opening file: xx_hfl.0000000000.001.001.data
(PID.TID 0000.0001)  MDSREADFIELD: opening file: xx_sfl.0000000000.001.001.data
(PID.TID 0000.0001)  MDSREADFIELD: opening file: xx_sfl.0000000000.001.001.data
(PID.TID 0000.0001)  MDSREADFIELD: opening file: xx_tauu.0000000000.001.001.data
(PID.TID 0000.0001)  MDSREADFIELD: opening file: xx_tauu.0000000000.001.001.data
(PID.TID 0000.0001)  MDSREADFIELD: opening file: xx_tauv.0000000000.001.001.data
(PID.TID 0000.0001)  MDSREADFIELD: opening file: xx_tauv.0000000000.001.001.data
 pathei: in check_exp: iter/time/rec/yprefix            0
   0.0000000000000000E+00           1 kf_
 pathei: in check_exp: date             0
 pathei: in check_exp: theta    21.97006225585938    
 pathei: in check_exp: salt     37.11309814453125    
 pathei: in check_exp: uvel    0.0000000000000000E+00
 pathei: in check_exp: vvel    0.0000000000000000E+00
 pathei: in check_exp: qnet     147.2961209615072    
 pathei: in check_exp: empmr   2.8335203183793567E-08
 pathei: in check_exp: fu     -1.3372420876597365E-02
 pathei: in check_exp: fv     -2.0421730043987431E-02
 cg2d: Sum(rhs),rhsMax =   2.90045765183322E-15  4.50737656431948E-01
(PID.TID 0000.0001)                    cg2d_init_res =    3.97910541734102E+00
(PID.TID 0000.0001)                       cg2d_iters =    50
(PID.TID 0000.0001)                         cg2d_res =    7.14129448585250E-14
(PID.TID 0000.0001) 
(PID.TID 0000.0001)  cal_TimeStamp: iter =          1 time =  0.36000000E+04
(PID.TID 0000.0001)                 date =   19920102      230000
(PID.TID 0000.0001) 
(PID.TID 0000.0001) 
(PID.TID 0000.0001)  exf_GetFFieldsRec: first, changed, fac:   F   F   0.83333333D-01
(PID.TID 0000.0001)  exf_GetFFieldsRec:      count0, count1:   2   3
(PID.TID 0000.0001) 
(PID.TID 0000.0001) 
(PID.TID 0000.0001)  exf_GetFFieldsRec: first, changed, fac:   F   F   0.83333333D-01
(PID.TID 0000.0001)  exf_GetFFieldsRec:      count0, count1:   2   3
(PID.TID 0000.0001) 
(PID.TID 0000.0001) 
(PID.TID 0000.0001)  exf_GetFFieldsRec: first, changed, fac:   F   F   0.16666667D+00
(PID.TID 0000.0001)  exf_GetFFieldsRec:      count0, count1:   1   2
(PID.TID 0000.0001) 
(PID.TID 0000.0001) 
(PID.TID 0000.0001)  exf_GetFFieldsRec: first, changed, fac:   F   F   0.16666667D+00
(PID.TID 0000.0001)  exf_GetFFieldsRec:      count0, count1:   1   2
(PID.TID 0000.0001) 
(PID.TID 0000.0001) 
(PID.TID 0000.0001)  exf_GetFFieldsRec: first, changed, fac:   F   F   0.16666667D+00
(PID.TID 0000.0001)  exf_GetFFieldsRec:      count0, count1:   1   2
(PID.TID 0000.0001) 
 cg2d: Sum(rhs),rhsMax =   8.81239525796218E-16  5.55599808033225E-01
(PID.TID 0000.0001)                    cg2d_init_res =    9.18998556789658E-01
(PID.TID 0000.0001)                       cg2d_iters =    47
(PID.TID 0000.0001)                         cg2d_res =    7.10921287553431E-14
(PID.TID 0000.0001) 
(PID.TID 0000.0001)  cal_TimeStamp: iter =          2 time =  0.72000000E+04
(PID.TID 0000.0001)                 date =   19920103           0
(PID.TID 0000.0001) 
(PID.TID 0000.0001) 
(PID.TID 0000.0001)  exf_GetFFieldsRec: first, changed, fac:   F   T   0.10000000D+01
(PID.TID 0000.0001)  exf_GetFFieldsRec:      count0, count1:   3   4
(PID.TID 0000.0001) 
(PID.TID 0000.0001)  MDSREADFIELD: opening global file: PH_ustress__020_016_23.data
(PID.TID 0000.0001) 
(PID.TID 0000.0001)  exf_GetFFieldsRec: first, changed, fac:   F   T   0.10000000D+01
(PID.TID 0000.0001)  exf_GetFFieldsRec:      count0, count1:   3   4
(PID.TID 0000.0001) 
(PID.TID 0000.0001)  MDSREADFIELD: opening global file: PH_vstress__020_016_23.data
(PID.TID 0000.0001) 
(PID.TID 0000.0001)  exf_GetFFieldsRec: first, changed, fac:   F   F   0.12500000D+00
(PID.TID 0000.0001)  exf_GetFFieldsRec:      count0, count1:   1   2
(PID.TID 0000.0001) 
(PID.TID 0000.0001) 
(PID.TID 0000.0001)  exf_GetFFieldsRec: first, changed, fac:   F   F   0.12500000D+00
(PID.TID 0000.0001)  exf_GetFFieldsRec:      count0, count1:   1   2
(PID.TID 0000.0001) 
(PID.TID 0000.0001) 
(PID.TID 0000.0001)  exf_GetFFieldsRec: first, changed, fac:   F   F   0.12500000D+00
(PID.TID 0000.0001)  exf_GetFFieldsRec:      count0, count1:   1   2
(PID.TID 0000.0001) 
 cg2d: Sum(rhs),rhsMax =   2.38697950294409E-15  5.83126576502095E-01
(PID.TID 0000.0001)                    cg2d_init_res =    5.50763520896668E-01
(PID.TID 0000.0001)                       cg2d_iters =    46
(PID.TID 0000.0001)                         cg2d_res =    8.16078553879494E-14
(PID.TID 0000.0001) 
(PID.TID 0000.0001)  cal_TimeStamp: iter =          3 time =  0.10800000E+05
(PID.TID 0000.0001)                 date =   19920103       10000
(PID.TID 0000.0001) 
(PID.TID 0000.0001) 
(PID.TID 0000.0001)  exf_GetFFieldsRec: first, changed, fac:   F   F   0.91666667D+00
(PID.TID 0000.0001)  exf_GetFFieldsRec:      count0, count1:   3   4
(PID.TID 0000.0001) 
(PID.TID 0000.0001) 
(PID.TID 0000.0001)  exf_GetFFieldsRec: first, changed, fac:   F   F   0.91666667D+00
(PID.TID 0000.0001)  exf_GetFFieldsRec:      count0, count1:   3   4
(PID.TID 0000.0001) 
(PID.TID 0000.0001) 
(PID.TID 0000.0001)  exf_GetFFieldsRec: first, changed, fac:   F   F   0.83333333D-01
(PID.TID 0000.0001)  exf_GetFFieldsRec:      count0, count1:   1   2
(PID.TID 0000.0001) 
(PID.TID 0000.0001) 
(PID.TID 0000.0001)  exf_GetFFieldsRec: first, changed, fac:   F   F   0.83333333D-01
(PID.TID 0000.0001)  exf_GetFFieldsRec:      count0, count1:   1   2
(PID.TID 0000.0001) 
(PID.TID 0000.0001) 
(PID.TID 0000.0001)  exf_GetFFieldsRec: first, changed, fac:   F   F   0.83333333D-01
(PID.TID 0000.0001)  exf_GetFFieldsRec:      count0, count1:   1   2
(PID.TID 0000.0001) 
 cg2d: Sum(rhs),rhsMax =   2.96984659087229E-15  6.06515180776863E-01
(PID.TID 0000.0001)                    cg2d_init_res =    2.97539829235787E-01
(PID.TID 0000.0001)                       cg2d_iters =    47
(PID.TID 0000.0001)                         cg2d_res =    4.80164480482565E-14
(PID.TID 0000.0001) 
(PID.TID 0000.0001)  cal_TimeStamp: iter =          4 time =  0.14400000E+05
(PID.TID 0000.0001)                 date =   19920103       20000
(PID.TID 0000.0001) 
(PID.TID 0000.0001)  MDSREADFIELD: opening file: tbar.0000000000.001.001.data
(PID.TID 0000.0001)  MDSREADFIELD: opening global file: PH_SST_fields__020_016_23.data
(PID.TID 0000.0001)  MDSREADFIELD: opening file: tbar.0000000000.001.001.data
(PID.TID 0000.0001)  MDSREADFIELD: opening global file: PH_Lev.ptmp__020_016_23.data
(PID.TID 0000.0001)  MDSREADFIELD: opening file: sbar.0000000000.001.001.data
(PID.TID 0000.0001)  MDSREADFIELD: opening global file: PH_Lev.salt__020_016_23.data
(PID.TID 0000.0001)  MDSREADFIELD: opening file: psbar.0000000000.001.001.data
(PID.TID 0000.0001)  MDSREADFIELD: opening file: psbar.0000000000.001.001.data
(PID.TID 0000.0001)  MDSREADFIELD: opening global file: PH_TP_mean__020_016_23.data

  cost_ssh: offset_sum =    187.0000000000000    

(PID.TID 0000.0001)  MDSREADFIELD: opening file: psbar.0000000000.001.001.data
(PID.TID 0000.0001)  MDSREADFIELD: opening global file: PH_TP_fields__020_016_23.data
(PID.TID 0000.0001)  MDSREADFIELD: opening global file: PH_ERS_fields__020_016_23.data
(PID.TID 0000.0001)  MDSREADFIELD: opening file: psbar.0000000000.001.001.data
(PID.TID 0000.0001)  MDSREADFIELD: opening global file: PH_TP_fields__020_016_23.data
(PID.TID 0000.0001)  MDSREADFIELD: opening global file: PH_ERS_fields__020_016_23.data
(PID.TID 0000.0001)  MDSREADFIELD: opening file: tbar.0000000000.001.001.data
(PID.TID 0000.0001)  MDSREADFIELD: opening global file: PH_SST_fields__020_016_23.data
  --> objf_temp(bi,bj)    =   672.7408255607104    
  --> objf_salt(bi,bj)    =   127.5781389465697    
  --> objf_temp0(bi,bj)   =  0.0000000000000000E+00
  --> objf_salt0(bi,bj)   =  0.0000000000000000E+00
  --> objf_sst(bi,bj)     =   70.10587006048210    
  --> objf_sss(bi,bj)     =  0.0000000000000000E+00
  --> objf_h(bi,bj)       =   16.98122898520404    
  --> objf_hmean          =  0.8783272360068591    
  --> objf_tauu(bi,bj)    =  0.0000000000000000E+00
  --> objf_tauum(bi,bj)   =  0.0000000000000000E+00
  --> objf_tauv(bi,bj)    =  0.0000000000000000E+00
  --> objf_tauvm(bi,bj)   =  0.0000000000000000E+00
  --> objf_hflux(bi,bj)   =  0.0000000000000000E+00
  --> objf_hflux(bi,bj)   =  0.0000000000000000E+00
  --> objf_hflux(bi,bj)   =  0.0000000000000000E+00
  --> objf_sflux(bi,bj)   =  0.0000000000000000E+00
  --> objf_sflux(bi,bj)   =  0.0000000000000000E+00
  --> objf_sflux(bi,bj)   =  0.0000000000000000E+00
  --> objf_atl(bi,bj)     =  0.0000000000000000E+00
  --> objf_ctdt(bi,bj)    =  0.0000000000000000E+00
  --> objf_ctds(bi,bj)    =  0.0000000000000000E+00
  --> objf_xbt(bi,bj)     =  0.0000000000000000E+00
  --> objf_argot(bi,bj)   =  0.0000000000000000E+00
  --> objf_argos(bi,bj)   =  0.0000000000000000E+00
  --> objf_drift(bi,bj)   =  0.0000000000000000E+00
  --> objf_tdrift(bi,bj)  =  0.0000000000000000E+00
  --> objf_sdrift(bi,bj)  =  0.0000000000000000E+00
  --> objf_wdrift(bi,bj)  =  0.0000000000000000E+00
  --> objf_scatx(bi,bj)   =  0.0000000000000000E+00
  --> objf_scaty(bi,bj)   =  0.0000000000000000E+00
  --> objf_scatxm(bi,bj)  =  0.0000000000000000E+00
  --> objf_scatym(bi,bj)  =  0.0000000000000000E+00
  --> objf_uwind(bi,bj)   =  0.0000000000000000E+00
  --> objf_vwind(bi,bj)   =  0.0000000000000000E+00
  --> objf_atemp(bi,bj)   =  0.0000000000000000E+00
  --> objf_aqh(bi,bj)     =  0.0000000000000000E+00
  --> objf_obcsn(bi,bj)   =  0.0000000000000000E+00
  --> objf_obcss(bi,bj)   =  0.0000000000000000E+00
  --> objf_obcsw(bi,bj)   =  0.0000000000000000E+00
  --> objf_obcse(bi,bj)   =  0.0000000000000000E+00
  --> objf_hmean           =  0.8783272360068591    
  --> fc               =   888.2843907889730    
(PID.TID 0000.0001)  MDSREADFIELD: opening file: xx_theta.0000000000.001.001.data
 ph-grd 3 -------------------------------
ph-grd 3     2    3    2    1 0.888284415E+03 0.888284439E+03 0.888284391E+03
ph-grd 3     2    2    2    0 0.239629991E+00 0.239628923E+00 0.445850248E-05
(PID.TID 0000.0001) 
(PID.TID 0000.0001) // =======================================================
(PID.TID 0000.0001) // Gradient check results  >>> START <<<
(PID.TID 0000.0001) // =======================================================
(PID.TID 0000.0001) 
(PID.TID 0000.0001) 
(PID.TID 0000.0001)  EPS =  0.100E-03
(PID.TID 0000.0001) grdchk output:                 I        ITILEPOS        JTILEPOS           LAYER            X(I)      X(I)+/-EPS
(PID.TID 0000.0001) grdchk output:                FC             FC1             FC2 FC1-FC2/(2*EPS)        GRAD(FC)   1-FDGRD/ADGRD
(PID.TID 0000.0001) grdchk output:                 1               2               2               1 0.000000000D+00 -.100000000D-03
(PID.TID 0000.0001) grdchk output:   0.888284415D+03 0.888284411D+03 0.888284411D+03 -.381836651D-01 -.381833133D-01 -.921320641D-05
(PID.TID 0000.0001) 
(PID.TID 0000.0001) 
(PID.TID 0000.0001) // =======================================================
(PID.TID 0000.0001) // Gradient check results  >>> END <<<
(PID.TID 0000.0001) // =======================================================
(PID.TID 0000.0001) 
(PID.TID 0000.0001)  Seconds in section "ALL                [THE_MODEL_MAIN]":
(PID.TID 0000.0001)          User time:   9.804575233720243
(PID.TID 0000.0001)        System time:   1.307542057707906
(PID.TID 0000.0001)    Wall clock time:   14.35768604278564
(PID.TID 0000.0001)         No. starts:           1
(PID.TID 0000.0001)          No. stops:           1
(PID.TID 0000.0001)  Seconds in section "INITIALISE_FIXED   [THE_MODEL_MAIN]":
(PID.TID 0000.0001)          User time:  0.2118620052933693
(PID.TID 0000.0001)        System time:  8.7890999391674995E-02
(PID.TID 0000.0001)    Wall clock time:  0.9476479291915894
(PID.TID 0000.0001)         No. starts:           1
(PID.TID 0000.0001)          No. stops:           1
(PID.TID 0000.0001)  Seconds in section "ADTHE_MAIN_LOOP          [ADJOINT RUN]":
(PID.TID 0000.0001)          User time:   4.936399191617966
(PID.TID 0000.0001)        System time:  0.9526270031929016
(PID.TID 0000.0001)    Wall clock time:   7.908375978469849
(PID.TID 0000.0001)         No. starts:           1
(PID.TID 0000.0001)          No. stops:           1
(PID.TID 0000.0001)  Seconds in section "I/O (WRITE)        [ADJOINT LOOP]":
(PID.TID 0000.0001)          User time:  3.7704706192016602E-03
(PID.TID 0000.0001)        System time:  5.5918097496032715E-04
(PID.TID 0000.0001)    Wall clock time:  4.0178298950195313E-03
(PID.TID 0000.0001)         No. starts:          40
(PID.TID 0000.0001)          No. stops:          40
(PID.TID 0000.0001)  Seconds in section "STATEKPP      [KPP_CALC]":
(PID.TID 0000.0001)          User time:  0.1511260867118835
(PID.TID 0000.0001)        System time:  4.5250952243804932E-03
(PID.TID 0000.0001)    Wall clock time:  0.1560882329940796
(PID.TID 0000.0001)         No. starts:          24
(PID.TID 0000.0001)          No. stops:          24
(PID.TID 0000.0001)  Seconds in section "KPPMIX [KPP_CALC]":
(PID.TID 0000.0001)          User time:  0.6209455728530884
(PID.TID 0000.0001)        System time:  5.1999986171722412E-03
(PID.TID 0000.0001)    Wall clock time:  0.6278939247131348
(PID.TID 0000.0001)         No. starts:          24
(PID.TID 0000.0001)          No. stops:          24
(PID.TID 0000.0001)  Seconds in section "GRDCHK_MAIN          [ADJOINT RUN]":
(PID.TID 0000.0001)          User time:   4.610473155975342
(PID.TID 0000.0001)        System time:  0.2158050537109375
(PID.TID 0000.0001)    Wall clock time:   5.134283065795898
(PID.TID 0000.0001)         No. starts:           1
(PID.TID 0000.0001)          No. stops:           1
(PID.TID 0000.0001)  Seconds in section "ECCO SPIN-UP":
(PID.TID 0000.0001)          User time:   1.282562255859375
(PID.TID 0000.0001)        System time:  4.1138887405395508E-02
(PID.TID 0000.0001)    Wall clock time:   1.330617070198059
(PID.TID 0000.0001)         No. starts:           4
(PID.TID 0000.0001)          No. stops:           4
(PID.TID 0000.0001)  Seconds in section "INITIALISE_VARIA    [THE_MAIN_LOOP]":
(PID.TID 0000.0001)          User time:   1.210350513458252
(PID.TID 0000.0001)        System time:  1.5409946441650391E-02
(PID.TID 0000.0001)    Wall clock time:   1.232424974441528
(PID.TID 0000.0001)         No. starts:           4
(PID.TID 0000.0001)          No. stops:           4
(PID.TID 0000.0001)  Seconds in section "MONITOR             [THE_MAIN_LOOP]":
(PID.TID 0000.0001)          User time:  4.5218467712402344E-02
(PID.TID 0000.0001)        System time:  7.8988075256347656E-04
(PID.TID 0000.0001)    Wall clock time:  4.6182990074157715E-02
(PID.TID 0000.0001)         No. starts:           4
(PID.TID 0000.0001)          No. stops:           4
(PID.TID 0000.0001)  Seconds in section "COST_FORCING       [ECCO SPIN-UP]":
(PID.TID 0000.0001)          User time:  2.3658752441406250E-02
(PID.TID 0000.0001)        System time:  2.4735927581787109E-02
(PID.TID 0000.0001)    Wall clock time:  4.8551917076110840E-02
(PID.TID 0000.0001)         No. starts:           4
(PID.TID 0000.0001)          No. stops:           4
(PID.TID 0000.0001)  Seconds in section "ECCO MAIN LOOP":
(PID.TID 0000.0001)          User time:   3.219594001770020
(PID.TID 0000.0001)        System time:  9.6905946731567383E-02
(PID.TID 0000.0001)    Wall clock time:   3.551953911781311
(PID.TID 0000.0001)         No. starts:           4
(PID.TID 0000.0001)          No. stops:           4
(PID.TID 0000.0001)  Seconds in section "COST_AVERAGESFIELDS   [ECCO MAIN]":
(PID.TID 0000.0001)          User time:  2.5039672851562500E-02
(PID.TID 0000.0001)        System time:  4.9030780792236328E-03
(PID.TID 0000.0001)    Wall clock time:  3.0162811279296875E-02
(PID.TID 0000.0001)         No. starts:          16
(PID.TID 0000.0001)          No. stops:          16
(PID.TID 0000.0001)  Seconds in section "EXF_GETFORCING        [ECCO MAIN]":
(PID.TID 0000.0001)          User time:  8.4217548370361328E-02
(PID.TID 0000.0001)        System time:  4.6261906623840332E-02
(PID.TID 0000.0001)    Wall clock time:  0.1309419870376587
(PID.TID 0000.0001)         No. starts:          16
(PID.TID 0000.0001)          No. stops:          16
(PID.TID 0000.0001)  Seconds in section "THERMODYNAMICS      [THE_MAIN_LOOP]":
(PID.TID 0000.0001)          User time:   1.880589008331299
(PID.TID 0000.0001)        System time:  2.0444393157958984E-03
(PID.TID 0000.0001)    Wall clock time:   1.889064788818359
(PID.TID 0000.0001)         No. starts:          16
(PID.TID 0000.0001)          No. stops:          16
(PID.TID 0000.0001)  Seconds in section "DYNAMICS            [THE_MAIN_LOOP]":
(PID.TID 0000.0001)          User time:  0.8563213348388672
(PID.TID 0000.0001)        System time:  2.4211406707763672E-04
(PID.TID 0000.0001)    Wall clock time:  0.8597509860992432
(PID.TID 0000.0001)         No. starts:          16
(PID.TID 0000.0001)          No. stops:          16
(PID.TID 0000.0001)  Seconds in section "SOLVE_FOR_PRESSURE  [THE_MAIN_LOOP]":
(PID.TID 0000.0001)          User time:  0.1288123130798340
(PID.TID 0000.0001)        System time:  5.0830841064453125E-04
(PID.TID 0000.0001)    Wall clock time:  0.1300078630447388
(PID.TID 0000.0001)         No. starts:          16
(PID.TID 0000.0001)          No. stops:          16
(PID.TID 0000.0001)  Seconds in section "THE_CORRECTION_STEP [THE_MAIN_LOOP]":
(PID.TID 0000.0001)          User time:  7.2696685791015625E-02
(PID.TID 0000.0001)        System time:  2.3806095123291016E-04
(PID.TID 0000.0001)    Wall clock time:  7.3327302932739258E-02
(PID.TID 0000.0001)         No. starts:          16
(PID.TID 0000.0001)          No. stops:          16
(PID.TID 0000.0001)  Seconds in section "BLOCKING_EXCHANGES  [THE_MAIN_LOOP]":
(PID.TID 0000.0001)          User time:  6.2743186950683594E-02
(PID.TID 0000.0001)        System time:  2.5093555450439453E-04
(PID.TID 0000.0001)    Wall clock time:  6.3387632369995117E-02
(PID.TID 0000.0001)         No. starts:          16
(PID.TID 0000.0001)          No. stops:          16
(PID.TID 0000.0001)  Seconds in section "ECCO SPIN-DOWN":
(PID.TID 0000.0001)          User time:  7.9618930816650391E-02
(PID.TID 0000.0001)        System time:  5.2801012992858887E-02
(PID.TID 0000.0001)    Wall clock time:  0.1328608989715576
(PID.TID 0000.0001)         No. starts:           4
(PID.TID 0000.0001)          No. stops:           4
(PID.TID 0000.0001)  Seconds in section "COST_AVERAGESFIELDS [ECCO SPIN-DOWN]":
(PID.TID 0000.0001)          User time:  1.8723487854003906E-02
(PID.TID 0000.0001)        System time:  1.4289975166320801E-02
(PID.TID 0000.0001)    Wall clock time:  3.3189058303833008E-02
(PID.TID 0000.0001)         No. starts:           4
(PID.TID 0000.0001)          No. stops:           4
(PID.TID 0000.0001)  Seconds in section "COST_HYD           [ECCO SPIN-DOWN]":
(PID.TID 0000.0001)          User time:  3.3637046813964844E-02
(PID.TID 0000.0001)        System time:  1.4649033546447754E-02
(PID.TID 0000.0001)    Wall clock time:  4.8435091972351074E-02
(PID.TID 0000.0001)         No. starts:           4
(PID.TID 0000.0001)          No. stops:           4
(PID.TID 0000.0001)  Seconds in section "COST_SSH           [ECCO SPIN-DOWN]":
(PID.TID 0000.0001)          User time:  1.4052867889404297E-02
(PID.TID 0000.0001)        System time:  1.7292141914367676E-02
(PID.TID 0000.0001)    Wall clock time:  3.1467080116271973E-02
(PID.TID 0000.0001)         No. starts:           4
(PID.TID 0000.0001)          No. stops:           4
(PID.TID 0000.0001)  Seconds in section "COST_SST           [ECCO SPIN-DOWN]":
(PID.TID 0000.0001)          User time:  6.4STOP NORMAL END statement executed
034461975097656E-03
(PID.TID 0000.0001)        System time:  3.7651062011718750E-03
(PID.TID 0000.0001)    Wall clock time:  1.0200023651123047E-02
(PID.TID 0000.0001)         No. starts:           4
(PID.TID 0000.0001)          No. stops:           4
(PID.TID 0000.0001)  Seconds in section "COST_FINAL         [ECCO SPIN-DOWN]":
(PID.TID 0000.0001)          User time:  3.8385391235351563E-03
(PID.TID 0000.0001)        System time:  2.5011301040649414E-03
(PID.TID 0000.0001)    Wall clock time:  6.3459873199462891E-03
(PID.TID 0000.0001)         No. starts:           4
(PID.TID 0000.0001)          No. stops:           4
(PID.TID 0000.0001)  Seconds in section "COST_AVERAGESFINAL [ECCO SPIN-DOWN]":
(PID.TID 0000.0001)          User time:  3.6430358886718750E-04
(PID.TID 0000.0001)        System time:  3.3855438232421875E-05
(PID.TID 0000.0001)    Wall clock time:  4.0006637573242188E-04
(PID.TID 0000.0001)         No. starts:           4
(PID.TID 0000.0001)          No. stops:           4
(PID.TID 0000.0001)  Seconds in section "WRITE_CHECKPOINT   [THE_MODEL_MAIN]":
(PID.TID 0000.0001)          User time:  9.6321105957031250E-05
(PID.TID 0000.0001)        System time:  1.0013580322265625E-05
(PID.TID 0000.0001)    Wall clock time:  1.0406970977783203E-04
(PID.TID 0000.0001)         No. starts:           1
(PID.TID 0000.0001)          No. stops:           1
(PID.TID 0000.0001) // ======================================================
(PID.TID 0000.0001) // Tile <-> Tile communication statistics
(PID.TID 0000.0001) // ======================================================
(PID.TID 0000.0001) // o Tile number: 000001
(PID.TID 0000.0001) //         No. X exchanges =              0
(PID.TID 0000.0001) //            Max. X spins =              0
(PID.TID 0000.0001) //            Min. X spins =     1000000000
(PID.TID 0000.0001) //          Total. X spins =              0
(PID.TID 0000.0001) //            Avg. X spins =       0.00E+00
(PID.TID 0000.0001) //         No. Y exchanges =              0
(PID.TID 0000.0001) //            Max. Y spins =              0
(PID.TID 0000.0001) //            Min. Y spins =     1000000000
(PID.TID 0000.0001) //          Total. Y spins =              0
(PID.TID 0000.0001) //            Avg. Y spins =       0.00E+00
(PID.TID 0000.0001) // o Thread number: 000001
(PID.TID 0000.0001) //            No. barriers =          21084
(PID.TID 0000.0001) //      Max. barrier spins =              1
(PID.TID 0000.0001) //      Min. barrier spins =              1
(PID.TID 0000.0001) //     Total barrier spins =          21084
(PID.TID 0000.0001) //      Avg. barrier spins =       1.00E+00
