(PID.TID 0000.0001) 
(PID.TID 0000.0001) // ======================================================
(PID.TID 0000.0001) //                      MITgcm UV
(PID.TID 0000.0001) //                      =========
(PID.TID 0000.0001) // ======================================================
(PID.TID 0000.0001) // execution environment starting up...
(PID.TID 0000.0001) 
(PID.TID 0000.0001) // MITgcmUV version:  checkpoint61d
(PID.TID 0000.0001) // Build user:        jmc
(PID.TID 0000.0001) // Build host:        faulks
(PID.TID 0000.0001) // Build date:        Tue Oct 21 18:16:25 EDT 2008
(PID.TID 0000.0001) 
(PID.TID 0000.0001) // =======================================================
(PID.TID 0000.0001) // Execution Environment parameter file "eedata"
(PID.TID 0000.0001) // =======================================================
(PID.TID 0000.0001) ># Example "eedata" file
(PID.TID 0000.0001) ># Lines beginning "#" are comments
(PID.TID 0000.0001) ># nTx - No. threads per process in X
(PID.TID 0000.0001) ># nTy - No. threads per process in Y
(PID.TID 0000.0001) > &EEPARMS
(PID.TID 0000.0001) > nTx=1,
(PID.TID 0000.0001) > nTy=1,
(PID.TID 0000.0001) > &
(PID.TID 0000.0001) ># Note: Some systems use & as the
(PID.TID 0000.0001) ># namelist terminator. Other systems
(PID.TID 0000.0001) ># use a / character (as shown here).
(PID.TID 0000.0001) 
(PID.TID 0000.0001) // =======================================================
(PID.TID 0000.0001) // Computational Grid Specification ( see files "SIZE.h" )
(PID.TID 0000.0001) //                                  ( and "eedata"       )
(PID.TID 0000.0001) // =======================================================
(PID.TID 0000.0001)      nPx =    1 ; /* No. processes in X */
(PID.TID 0000.0001)      nPy =    1 ; /* No. processes in Y */
(PID.TID 0000.0001)      nSx =    1 ; /* No. tiles in X per process */
(PID.TID 0000.0001)      nSy =    4 ; /* No. tiles in Y per process */
(PID.TID 0000.0001)      sNx =    1 ; /* Tile size in X */
(PID.TID 0000.0001)      sNy =   14 ; /* Tile size in Y */
(PID.TID 0000.0001)      OLx =    3 ; /* Tile overlap distance in X */
(PID.TID 0000.0001)      OLy =    3 ; /* Tile overlap distance in Y */
(PID.TID 0000.0001)      nTx =    1 ; /* No. threads in X per process */
(PID.TID 0000.0001)      nTy =    1 ; /* No. threads in Y per process */
(PID.TID 0000.0001)       Nr =   15 ; /* No. levels in the vertical   */
(PID.TID 0000.0001)       nX =    1 ; /* Total domain size in X ( = nPx*nSx*sNx ) */
(PID.TID 0000.0001)       nY =   56 ; /* Total domain size in Y ( = nPy*nSy*sNy ) */
(PID.TID 0000.0001)   nTiles =    4 ; /* Total no. tiles per process ( = nSx*nSy ) */
(PID.TID 0000.0001)   nProcs =    1 ; /* Total no. processes ( = nPx*nPy ) */
(PID.TID 0000.0001) nThreads =    1 ; /* Total no. threads per process ( = nTx*nTy ) */
(PID.TID 0000.0001) usingMPI =    F ; /* Flag used to control whether MPI is in use */
(PID.TID 0000.0001)                   /*  note: To execute a program with MPI calls */
(PID.TID 0000.0001)                   /*  it must be launched appropriately e.g     */
(PID.TID 0000.0001)                   /*  "mpirun -np 64 ......"                    */
(PID.TID 0000.0001) useCoupler=   F ; /* Flag used to control communications with */
(PID.TID 0000.0001)                   /*  other model components, through a coupler */
(PID.TID 0000.0001) 
(PID.TID 0000.0001) // ======================================================
(PID.TID 0000.0001) // Mapping of tiles to threads
(PID.TID 0000.0001) // ======================================================
(PID.TID 0000.0001) // -o- Thread   1, tiles (   1:   1,   1:   4)
(PID.TID 0000.0001) 
(PID.TID 0000.0001) // ======================================================
(PID.TID 0000.0001) // Tile <-> Tile connectvity table
(PID.TID 0000.0001) // ======================================================
(PID.TID 0000.0001) // Tile number: 000001 (process no. = 000001)
(PID.TID 0000.0001) //        WEST: Tile = 000001, Process = 000001, Comm = put
(PID.TID 0000.0001) //                bi = 000001, bj = 000001
(PID.TID 0000.0001) //        EAST: Tile = 000001, Process = 000001, Comm = put
(PID.TID 0000.0001) //                bi = 000001, bj = 000001
(PID.TID 0000.0001) //       SOUTH: Tile = 000004, Process = 000001, Comm = put
(PID.TID 0000.0001) //                bi = 000001, bj = 000004
(PID.TID 0000.0001) //       NORTH: Tile = 000002, Process = 000001, Comm = put
(PID.TID 0000.0001) //                bi = 000001, bj = 000002
(PID.TID 0000.0001) // Tile number: 000002 (process no. = 000001)
(PID.TID 0000.0001) //        WEST: Tile = 000002, Process = 000001, Comm = put
(PID.TID 0000.0001) //                bi = 000001, bj = 000002
(PID.TID 0000.0001) //        EAST: Tile = 000002, Process = 000001, Comm = put
(PID.TID 0000.0001) //                bi = 000001, bj = 000002
(PID.TID 0000.0001) //       SOUTH: Tile = 000001, Process = 000001, Comm = put
(PID.TID 0000.0001) //                bi = 000001, bj = 000001
(PID.TID 0000.0001) //       NORTH: Tile = 000003, Process = 000001, Comm = put
(PID.TID 0000.0001) //                bi = 000001, bj = 000003
(PID.TID 0000.0001) // Tile number: 000003 (process no. = 000001)
(PID.TID 0000.0001) //        WEST: Tile = 000003, Process = 000001, Comm = put
(PID.TID 0000.0001) //                bi = 000001, bj = 000003
(PID.TID 0000.0001) //        EAST: Tile = 000003, Process = 000001, Comm = put
(PID.TID 0000.0001) //                bi = 000001, bj = 000003
(PID.TID 0000.0001) //       SOUTH: Tile = 000002, Process = 000001, Comm = put
(PID.TID 0000.0001) //                bi = 000001, bj = 000002
(PID.TID 0000.0001) //       NORTH: Tile = 000004, Process = 000001, Comm = put
(PID.TID 0000.0001) //                bi = 000001, bj = 000004
(PID.TID 0000.0001) // Tile number: 000004 (process no. = 000001)
(PID.TID 0000.0001) //        WEST: Tile = 000004, Process = 000001, Comm = put
(PID.TID 0000.0001) //                bi = 000001, bj = 000004
(PID.TID 0000.0001) //        EAST: Tile = 000004, Process = 000001, Comm = put
(PID.TID 0000.0001) //                bi = 000001, bj = 000004
(PID.TID 0000.0001) //       SOUTH: Tile = 000003, Process = 000001, Comm = put
(PID.TID 0000.0001) //                bi = 000001, bj = 000003
(PID.TID 0000.0001) //       NORTH: Tile = 000001, Process = 000001, Comm = put
(PID.TID 0000.0001) //                bi = 000001, bj = 000001
(PID.TID 0000.0001) 
(PID.TID 0000.0001) // =======================================================
(PID.TID 0000.0001) // Model parameter file "data"
(PID.TID 0000.0001) // =======================================================
(PID.TID 0000.0001) ># ====================
(PID.TID 0000.0001) ># | Model parameters |
(PID.TID 0000.0001) ># ====================
(PID.TID 0000.0001) >#
(PID.TID 0000.0001) ># Continuous equation parameters
(PID.TID 0000.0001) > &PARM01
(PID.TID 0000.0001) > tRef= 18.8, 16.3, 13.1, 10.4, 8.1, 6.0, 4.5,
(PID.TID 0000.0001) >      3.4, 2.7, 2.2, 1.8, 1.5, 1.2, 1.0, 0.9,
(PID.TID 0000.0001) > sRef= 15*34.7,
(PID.TID 0000.0001) > cosPower=1.,
(PID.TID 0000.0001) > viscAr=1.E-3,
(PID.TID 0000.0001) > viscAh=12.E5,
(PID.TID 0000.0001) > no_slip_sides=.FALSE.,
(PID.TID 0000.0001) > no_slip_bottom=.TRUE.,
(PID.TID 0000.0001) > bottomDragLinear=1.E-3,
(PID.TID 0000.0001) >#diffK4T=2.E12,
(PID.TID 0000.0001) > diffKhT=0.E3,
(PID.TID 0000.0001) > diffKrNrT=1.E-4, 14*1.E-5,
(PID.TID 0000.0001) > ivdc_kappa=100.,
(PID.TID 0000.0001) > implicitDiffusion=.TRUE.,
(PID.TID 0000.0001) > eosType='LINEAR',
(PID.TID 0000.0001) > tAlpha=2.E-4,
(PID.TID 0000.0001) > sBeta =0.E-4,
(PID.TID 0000.0001) > saltStepping=.FALSE.,
(PID.TID 0000.0001) > rotationPeriod=86400.,
(PID.TID 0000.0001) > gravity=9.81,
(PID.TID 0000.0001) > rhonil=1035.,
(PID.TID 0000.0001) > implicitFreeSurface=.TRUE.,
(PID.TID 0000.0001) > exactConserv=.TRUE.,
(PID.TID 0000.0001) > staggerTimeStep=.TRUE.,
(PID.TID 0000.0001) > useCDscheme=.TRUE.,
(PID.TID 0000.0001) > readBinaryPrec=64,
(PID.TID 0000.0001) > tempAdvScheme=77,
(PID.TID 0000.0001) > usePickupBeforeC54=.TRUE.,
(PID.TID 0000.0001) > &
(PID.TID 0000.0001) >
(PID.TID 0000.0001) ># Elliptic solver parameters
(PID.TID 0000.0001) > &PARM02
(PID.TID 0000.0001) > cg2dMaxIters=1000,
(PID.TID 0000.0001) >#cg2dTargetResidual=1.E-13,
(PID.TID 0000.0001) > cg2dTargetResWunit=1.E-17,
(PID.TID 0000.0001) > &
(PID.TID 0000.0001) >
(PID.TID 0000.0001) ># Time stepping parameters
(PID.TID 0000.0001) > &PARM03
(PID.TID 0000.0001) > niter0=36000,
(PID.TID 0000.0001) > nTimeSteps=20,
(PID.TID 0000.0001) >#endTime=3110400000.,
(PID.TID 0000.0001) > deltaTmom=1200.0,
(PID.TID 0000.0001) > deltaTfreesurf=3600.0,
(PID.TID 0000.0001) > deltaTtracer=86400.0,
(PID.TID 0000.0001) > deltaTClock =86400.0,
(PID.TID 0000.0001) > abEps=0.1,
(PID.TID 0000.0001) > tauCD=321428.,
(PID.TID 0000.0001) > tauThetaClimRelax=2592000.0,
(PID.TID 0000.0001) > pickupStrictlyMatch=.FALSE.,
(PID.TID 0000.0001) > chkptFreq=0.0,
(PID.TID 0000.0001) > pChkptFreq=3110400000.0,
(PID.TID 0000.0001) > taveFreq=1555200000.0,
(PID.TID 0000.0001) > dumpFreq=1555200000.0,
(PID.TID 0000.0001) > diagFreq=1555200000.0,
(PID.TID 0000.0001) >#monitorFreq=31104000.0,
(PID.TID 0000.0001) > monitorFreq=1.0,
(PID.TID 0000.0001) > &
(PID.TID 0000.0001) >
(PID.TID 0000.0001) ># Gridding parameters
(PID.TID 0000.0001) > &PARM04
(PID.TID 0000.0001) > usingCartesianGrid=.FALSE.,
(PID.TID 0000.0001) > usingSphericalPolarGrid=.TRUE.,
(PID.TID 0000.0001) > delRc= 20.,  60.,  85., 120., 165., 215., 265., 315.,
(PID.TID 0000.0001) >       365., 415., 465., 515., 565., 615., 665., 350.,
(PID.TID 0000.0001) > phiMin=-84.,
(PID.TID 0000.0001) > delY=56*3,
(PID.TID 0000.0001) > delX=1*3,
(PID.TID 0000.0001) > &
(PID.TID 0000.0001) >
(PID.TID 0000.0001) ># Input datasets
(PID.TID 0000.0001) > &PARM05
(PID.TID 0000.0001) > bathyFile='topo_sl.bin',
(PID.TID 0000.0001) > zonalWindFile='taux_sl.bin',
(PID.TID 0000.0001) > thetaClimFile='sst_sl.bin',
(PID.TID 0000.0001) > &
(PID.TID 0000.0001) 
(PID.TID 0000.0001) S/R INI_PARMS ; starts to read PARM01
(PID.TID 0000.0001) S/R INI_PARMS ; read PARM01 : OK
(PID.TID 0000.0001) S/R INI_PARMS ; starts to read PARM02
(PID.TID 0000.0001) S/R INI_PARMS ; read PARM02 : OK
(PID.TID 0000.0001) S/R INI_PARMS ; starts to read PARM03
(PID.TID 0000.0001) S/R INI_PARMS ; read PARM03 : OK
(PID.TID 0000.0001) S/R INI_PARMS ; starts to read PARM04
(PID.TID 0000.0001) S/R INI_PARMS ; read PARM04 : OK
(PID.TID 0000.0001) S/R INI_PARMS ; starts to read PARM05
(PID.TID 0000.0001) S/R INI_PARMS ; read PARM05 : OK
(PID.TID 0000.0001)  PACKAGES_BOOT: opening data.pkg
(PID.TID 0000.0001)  OPEN_COPY_DATA_FILE: opening file data.pkg
(PID.TID 0000.0001) // =======================================================
(PID.TID 0000.0001) // Parameter file "data.pkg"
(PID.TID 0000.0001) // =======================================================
(PID.TID 0000.0001) ># Packages
(PID.TID 0000.0001) > &PACKAGES
(PID.TID 0000.0001) > useGMRedi=.TRUE.,
(PID.TID 0000.0001) > useDiagnostics=.TRUE.,
(PID.TID 0000.0001) > useMNC=.TRUE.,
(PID.TID 0000.0001) > &
(PID.TID 0000.0001) >
(PID.TID 0000.0001) 
(PID.TID 0000.0001)  PACKAGES_BOOT: finished reading data.pkg
(PID.TID 0000.0001)  MNC_READPARMS: opening file 'data.mnc'
(PID.TID 0000.0001)  OPEN_COPY_DATA_FILE: opening file data.mnc
(PID.TID 0000.0001) // =======================================================
(PID.TID 0000.0001) // Parameter file "data.mnc"
(PID.TID 0000.0001) // =======================================================
(PID.TID 0000.0001) ># Example "data.mnc" file
(PID.TID 0000.0001) ># Lines beginning "#" are comments
(PID.TID 0000.0001) > &MNC_01
(PID.TID 0000.0001) ># mnc_echo_gvtypes=.FALSE.,
(PID.TID 0000.0001) ># mnc_use_indir=.FALSE.,
(PID.TID 0000.0001) > mnc_use_outdir=.TRUE.,
(PID.TID 0000.0001) > mnc_outdir_str='mnc_test_',
(PID.TID 0000.0001) >#mnc_outdir_date=.TRUE.,
(PID.TID 0000.0001) > monitor_mnc=.FALSE.,
(PID.TID 0000.0001) >#snapshot_mnc=.FALSE.,
(PID.TID 0000.0001) >#timeave_mnc=.FALSE.,
(PID.TID 0000.0001) > pickup_read_mnc=.FALSE.,
(PID.TID 0000.0001) > pickup_write_mnc=.FALSE.,
(PID.TID 0000.0001) > &
(PID.TID 0000.0001) ># Note: Some systems use & as the
(PID.TID 0000.0001) ># namelist terminator. Other systems
(PID.TID 0000.0001) ># use a / character (as shown here).
(PID.TID 0000.0001) 
(PID.TID 0000.0001)  MNC_READPARMS: finished reading data.mnc
(PID.TID 0000.0001)  GM_READPARMS: opening data.gmredi
(PID.TID 0000.0001)  OPEN_COPY_DATA_FILE: opening file data.gmredi
(PID.TID 0000.0001) // =======================================================
(PID.TID 0000.0001) // Parameter file "data.gmredi"
(PID.TID 0000.0001) // =======================================================
(PID.TID 0000.0001) ># from MOM
(PID.TID 0000.0001) ># GM_background_K: 	isopycnal diffusion coefficien
(PID.TID 0000.0001) ># GM_maxSlope:		max slope of isopycnals
(PID.TID 0000.0001) ># GM_Scrit:		transition for scaling diffusion coefficient
(PID.TID 0000.0001) ># GM_Sd:		half width scaling for diffusion coefficient
(PID.TID 0000.0001) ># real background diff:	horizontal diffusion
(PID.TID 0000.0001) >
(PID.TID 0000.0001) > &GM_PARM01
(PID.TID 0000.0001) >  GM_AdvForm=.TRUE.,
(PID.TID 0000.0001) ># GM_AdvSeparate=.TRUE.,
(PID.TID 0000.0001) ># GM_background_K=1000.,
(PID.TID 0000.0001) >  GM_background_K=10.,
(PID.TID 0000.0001) ># GM_isopycK=1000.,
(PID.TID 0000.0001) ># GM_taper_scheme    = 'clipping',
(PID.TID 0000.0001) >  GM_taper_scheme    = 'linear',
(PID.TID 0000.0001) ># GM_taper_scheme    = 'gkw91',
(PID.TID 0000.0001) ># GM_taper_scheme    = 'ldd97',
(PID.TID 0000.0001) >  GM_Small_Number    = 1.e-18,
(PID.TID 0000.0001) >  GM_maxSlope        = 1.e-2,
(PID.TID 0000.0001) >  GM_Scrit           = 4.e-3,
(PID.TID 0000.0001) >  GM_Sd              = 1.e-3,
(PID.TID 0000.0001) >  GM_Visbeck_alpha   = 1.e-2,
(PID.TID 0000.0001) >  GM_Visbeck_length  = 2.e+5,
(PID.TID 0000.0001) >  GM_Visbeck_depth   = 1.e+3,
(PID.TID 0000.0001) >  GM_Visbeck_maxval_K= 2.5e+3,
(PID.TID 0000.0001) > &
(PID.TID 0000.0001) >
(PID.TID 0000.0001) >
(PID.TID 0000.0001) 
(PID.TID 0000.0001)  GM_READPARMS: finished reading data.gmredi
(PID.TID 0000.0001)  DIAGNOSTICS_READPARMS: opening data.diagnostics
(PID.TID 0000.0001)  OPEN_COPY_DATA_FILE: opening file data.diagnostics
(PID.TID 0000.0001) // =======================================================
(PID.TID 0000.0001) // Parameter file "data.diagnostics"
(PID.TID 0000.0001) // =======================================================
(PID.TID 0000.0001) ># Diagnostic Package Choices
(PID.TID 0000.0001) >#-----------------
(PID.TID 0000.0001) ># for each output-stream:
(PID.TID 0000.0001) >#  filename(n) : prefix of the output file name (only 8.c long) for outp.stream n
(PID.TID 0000.0001) >#  frequency(n):< 0 : write snap-shot output every |frequency| seconds
(PID.TID 0000.0001) >#               > 0 : write time-average output every frequency seconds
(PID.TID 0000.0001) >#  timePhase(n)     : write at time = timePhase + multiple of |frequency|
(PID.TID 0000.0001) >#  levels(:,n) : list of levels to write to file (Notes: declared as REAL)
(PID.TID 0000.0001) >#                 when this entry is missing, select all common levels of this list
(PID.TID 0000.0001) >#  fields(:,n) : list of diagnostics fields (8.c) (see "available_diagnostics.log"
(PID.TID 0000.0001) >#                 file for the list of all available diag. in this particular config)
(PID.TID 0000.0001) >#-----------------
(PID.TID 0000.0001) > &diagnostics_list
(PID.TID 0000.0001) ># diag_mnc     = .FALSE.,
(PID.TID 0000.0001) >  frequency(1) = -864000.,
(PID.TID 0000.0001) >   filename(1) = 'surfDiag',
(PID.TID 0000.0001) >   levels(1,1) = 1.,
(PID.TID 0000.0001) >   fields(1,1) = 'ETAN    ','ETANSQ  ','DETADT2 ','PHIBOT  ','PHIBOTSQ',
(PID.TID 0000.0001) >                 'GM_VisbK',
(PID.TID 0000.0001) >   fileflags(1)= 'D       ',
(PID.TID 0000.0001) >  frequency(2) = 1728000.,
(PID.TID 0000.0001) >   filename(2) = 'dynDiag',
(PID.TID 0000.0001) ># do not specify levels => all levels are selected
(PID.TID 0000.0001) >   fields(1,2) = 'UVEL    ','VVEL    ','WVEL    ','PHIHYD  ',
(PID.TID 0000.0001) >                 'VVELMASS',
(PID.TID 0000.0001) >                 'THETA   ','VTHMASS ','WTHMASS ',
(PID.TID 0000.0001) >#                'SALT    ','USLTMASS','VSLTMASS','WSLTMASS',
(PID.TID 0000.0001) >                 'THETASQ ','UVELSQ  ',
(PID.TID 0000.0001) >                 'UV_VEL_Z','WU_VEL  ',
(PID.TID 0000.0001) >  frequency(3) = 864000.,
(PID.TID 0000.0001) >   filename(3) = 'oceDiag',
(PID.TID 0000.0001) >   levels(1,3) = 2., 3., 4., 5., 6., 7., 8., 9., 10., 11., 12., 13.,
(PID.TID 0000.0001) >   fields(1,3) = 'DRHODR  ','RHOAnoma',
(PID.TID 0000.0001) >                 'GM_PsiY ','GM_Kvy  ','GM_Kvz  ','GM_Kwy  ','GM_Kwz  ',
(PID.TID 0000.0001) >  frequency(4) = 1728000.,
(PID.TID 0000.0001) >   filename(4) = 'flxDiag',
(PID.TID 0000.0001) >   fields(1,4) = 'ADVy_TH ','ADVr_TH ',
(PID.TID 0000.0001) >                 'DFyE_TH ','DFrE_TH ',
(PID.TID 0000.0001) >                 'DFrI_TH ',
(PID.TID 0000.0001) >#                'ADVx_SLT',
(PID.TID 0000.0001) > &
(PID.TID 0000.0001) >
(PID.TID 0000.0001) ># Parameter for Diagnostics of per level statistics:
(PID.TID 0000.0001) >#-----------------
(PID.TID 0000.0001) ># for each output-stream:
(PID.TID 0000.0001) >#  stat_fname(n) : prefix of the output file name (only 8.c long) for outp.stream n
(PID.TID 0000.0001) >#  stat_freq(n):< 0 : write snap-shot output every |stat_freq| seconds
(PID.TID 0000.0001) >#               > 0 : write time-average output every stat_freq seconds
(PID.TID 0000.0001) >#  stat_phase(n)    : write at time = stat_phase + multiple of |stat_freq|
(PID.TID 0000.0001) >#  stat_region(:,n) : list of "regions" (default: 1 region only=global)
(PID.TID 0000.0001) >#  stat_fields(:,n) : list of diagnostics fields (8.c) (see "available_diagnostics.log"
(PID.TID 0000.0001) >#                 file for the list of all available diag. in this particular config)
(PID.TID 0000.0001) >#-----------------
(PID.TID 0000.0001) > &DIAG_STATIS_PARMS
(PID.TID 0000.0001) ># an example just to check the agreement with MONITOR output:
(PID.TID 0000.0001) > stat_fields(1,1)= 'ETAN    ','UVEL    ','VVEL    ','WVEL    ', 'THETA   ',
(PID.TID 0000.0001) >    stat_fname(1)= 'dynStDiag',
(PID.TID 0000.0001) >     stat_freq(1)= -864000.,
(PID.TID 0000.0001) >    stat_phase(1)= 0.,
(PID.TID 0000.0001) > &
(PID.TID 0000.0001) >
(PID.TID 0000.0001) 
(PID.TID 0000.0001) S/R DIAGNOSTICS_READPARMS, read namelist "diagnostics_list": start
(PID.TID 0000.0001) S/R DIAGNOSTICS_READPARMS, read namelist "diagnostics_list": OK
(PID.TID 0000.0001) S/R DIAGNOSTICS_READPARMS, read namelist "DIAG_STATIS_PARMS": start
(PID.TID 0000.0001) S/R DIAGNOSTICS_READPARMS, read namelist "DIAG_STATIS_PARMS": OK
(PID.TID 0000.0001) -----------------------------------------------------
(PID.TID 0000.0001)  DIAGNOSTICS_READPARMS: active diagnostics summary:
(PID.TID 0000.0001) -----------------------------------------------------
(PID.TID 0000.0001) Creating Output Stream: surfDiag
(PID.TID 0000.0001) Output Frequency:    -864000.000000 ; Phase:      432000.000000
(PID.TID 0000.0001)  Averaging Freq.:          0.000000 , Phase:           0.000000 , Cycle:   1
(PID.TID 0000.0001)  missing value:  1.234567000000E+05 ; for integers:   123456789
(PID.TID 0000.0001)  Levels:       1.
(PID.TID 0000.0001)  Fields:    ETAN     ETANSQ   DETADT2  PHIBOT   PHIBOTSQ GM_VisbK
(PID.TID 0000.0001) Creating Output Stream: dynDiag
(PID.TID 0000.0001) Output Frequency:    1728000.000000 ; Phase:           0.000000
(PID.TID 0000.0001)  Averaging Freq.:    1728000.000000 , Phase:           0.000000 , Cycle:   1
(PID.TID 0000.0001)  missing value:  1.234567000000E+05 ; for integers:   123456789
(PID.TID 0000.0001)  Levels:    will be set later
(PID.TID 0000.0001)  Fields:    UVEL     VVEL     WVEL     PHIHYD   VVELMASS THETA    VTHMASS  WTHMASS  THETASQ  UVELSQ
(PID.TID 0000.0001)  Fields:    UV_VEL_Z WU_VEL
(PID.TID 0000.0001) Creating Output Stream: oceDiag
(PID.TID 0000.0001) Output Frequency:     864000.000000 ; Phase:           0.000000
(PID.TID 0000.0001)  Averaging Freq.:     864000.000000 , Phase:           0.000000 , Cycle:   1
(PID.TID 0000.0001)  missing value:  1.234567000000E+05 ; for integers:   123456789
(PID.TID 0000.0001)  Levels:       2.   3.   4.   5.   6.   7.   8.   9.  10.  11.  12.  13.
(PID.TID 0000.0001)  Fields:    DRHODR   RHOAnoma GM_PsiY  GM_Kvy   GM_Kvz   GM_Kwy   GM_Kwz
(PID.TID 0000.0001) Creating Output Stream: flxDiag
(PID.TID 0000.0001) Output Frequency:    1728000.000000 ; Phase:           0.000000
(PID.TID 0000.0001)  Averaging Freq.:    1728000.000000 , Phase:           0.000000 , Cycle:   1
(PID.TID 0000.0001)  missing value:  1.234567000000E+05 ; for integers:   123456789
(PID.TID 0000.0001)  Levels:    will be set later
(PID.TID 0000.0001)  Fields:    ADVy_TH  ADVr_TH  DFyE_TH  DFrE_TH  DFrI_TH
(PID.TID 0000.0001) -----------------------------------------------------
(PID.TID 0000.0001)  DIAGNOSTICS_READPARMS: statistics diags. summary:
(PID.TID 0000.0001) Creating Stats. Output Stream: dynStDiag
(PID.TID 0000.0001) Output Frequency:    -864000.000000 ; Phase:           0.000000
(PID.TID 0000.0001)  Regions:   0
(PID.TID 0000.0001)  Fields:    ETAN     UVEL     VVEL     WVEL     THETA
(PID.TID 0000.0001) -----------------------------------------------------
(PID.TID 0000.0001) 
(PID.TID 0000.0001) SET_PARMS: done
(PID.TID 0000.0001) Enter INI_VERTICAL_GRID: setInterFDr=    F ; setCenterDr=    T
(PID.TID 0000.0001) %MON XC_max                       =   1.5000000000000E+00
(PID.TID 0000.0001) %MON XC_min                       =   1.5000000000000E+00
(PID.TID 0000.0001) %MON XC_mean                      =   1.5000000000000E+00
(PID.TID 0000.0001) %MON XC_sd                        =   0.0000000000000E+00
(PID.TID 0000.0001) %MON XG_max                       =   0.0000000000000E+00
(PID.TID 0000.0001) %MON XG_min                       =   0.0000000000000E+00
(PID.TID 0000.0001) %MON XG_mean                      =   0.0000000000000E+00
(PID.TID 0000.0001) %MON XG_sd                        =   0.0000000000000E+00
(PID.TID 0000.0001) %MON DXC_max                      =   3.3341812682592E+05
(PID.TID 0000.0001) %MON DXC_min                      =   4.3534716771864E+04
(PID.TID 0000.0001) %MON DXC_mean                     =   2.2627957857351E+05
(PID.TID 0000.0001) %MON DXC_sd                       =   9.1462046601761E+04
(PID.TID 0000.0001) %MON DXF_max                      =   3.3341812682592E+05
(PID.TID 0000.0001) %MON DXF_min                      =   4.3534716771864E+04
(PID.TID 0000.0001) %MON DXF_mean                     =   2.2627957857351E+05
(PID.TID 0000.0001) %MON DXF_sd                       =   9.1462046601761E+04
(PID.TID 0000.0001) %MON DXG_max                      =   3.3353242005612E+05
(PID.TID 0000.0001) %MON DXG_min                      =   3.4863631318407E+04
(PID.TID 0000.0001) %MON DXG_mean                     =   2.2620203821339E+05
(PID.TID 0000.0001) %MON DXG_sd                       =   9.1624145029333E+04
(PID.TID 0000.0001) %MON DXV_max                      =   3.3353242005612E+05
(PID.TID 0000.0001) %MON DXV_min                      =   3.4863631318407E+04
(PID.TID 0000.0001) %MON DXV_mean                     =   2.2620203821339E+05
(PID.TID 0000.0001) %MON DXV_sd                       =   9.1624145029333E+04
(PID.TID 0000.0001) %MON YC_max                       =   8.2500000000000E+01
(PID.TID 0000.0001) %MON YC_min                       =  -8.2500000000000E+01
(PID.TID 0000.0001) %MON YC_mean                      =   0.0000000000000E+00
(PID.TID 0000.0001) %MON YC_sd                        =   4.8489689625734E+01
(PID.TID 0000.0001) %MON YG_max                       =   8.1000000000000E+01
(PID.TID 0000.0001) %MON YG_min                       =  -8.4000000000000E+01
(PID.TID 0000.0001) %MON YG_mean                      =  -1.5000000000000E+00
(PID.TID 0000.0001) %MON YG_sd                        =   4.8489689625734E+01
(PID.TID 0000.0001) %MON DYC_max                      =   3.3353242005612E+05
(PID.TID 0000.0001) %MON DYC_min                      =   3.3353242005612E+05
(PID.TID 0000.0001) %MON DYC_mean                     =   3.3353242005612E+05
(PID.TID 0000.0001) %MON DYC_sd                       =   0.0000000000000E+00
(PID.TID 0000.0001) %MON DYF_max                      =   3.3353242005612E+05
(PID.TID 0000.0001) %MON DYF_min                      =   3.3353242005612E+05
(PID.TID 0000.0001) %MON DYF_mean                     =   3.3353242005612E+05
(PID.TID 0000.0001) %MON DYF_sd                       =   0.0000000000000E+00
(PID.TID 0000.0001) %MON DYG_max                      =   3.3353242005612E+05
(PID.TID 0000.0001) %MON DYG_min                      =   3.3353242005612E+05
(PID.TID 0000.0001) %MON DYG_mean                     =   3.3353242005612E+05
(PID.TID 0000.0001) %MON DYG_sd                       =   0.0000000000000E+00
(PID.TID 0000.0001) %MON DYU_max                      =   3.3353242005612E+05
(PID.TID 0000.0001) %MON DYU_min                      =   3.3353242005612E+05
(PID.TID 0000.0001) %MON DYU_mean                     =   3.3353242005612E+05
(PID.TID 0000.0001) %MON DYU_sd                       =   0.0000000000000E+00
(PID.TID 0000.0001) %MON RA_max                       =   1.1119305196237E+11
(PID.TID 0000.0001) %MON RA_min                       =   1.4518580829015E+10
(PID.TID 0000.0001) %MON RA_mean                      =   7.5462954512622E+10
(PID.TID 0000.0001) %MON RA_sd                        =   3.0502073169179E+10
(PID.TID 0000.0001) %MON RAW_max                      =   1.1119305196237E+11
(PID.TID 0000.0001) %MON RAW_min                      =   1.4518580829015E+10
(PID.TID 0000.0001) %MON RAW_mean                     =   7.5462954512622E+10
(PID.TID 0000.0001) %MON RAW_sd                       =   3.0502073169179E+10
(PID.TID 0000.0001) %MON RAS_max                      =   1.1123116810562E+11
(PID.TID 0000.0001) %MON RAS_min                      =   1.1626823069547E+10
(PID.TID 0000.0001) %MON RAS_mean                     =   7.5437095242840E+10
(PID.TID 0000.0001) %MON RAS_sd                       =   3.0556132074289E+10
(PID.TID 0000.0001) %MON RAZ_max                      =   1.1123116810562E+11
(PID.TID 0000.0001) %MON RAZ_min                      =   1.1626823069547E+10
(PID.TID 0000.0001) %MON RAZ_mean                     =   7.5437095242840E+10
(PID.TID 0000.0001) %MON RAZ_sd                       =   3.0556132074289E+10
(PID.TID 0000.0001) %MON AngleCS_max                  =   1.0000000000000E+00
(PID.TID 0000.0001) %MON AngleCS_min                  =   1.0000000000000E+00
(PID.TID 0000.0001) %MON AngleCS_mean                 =   1.0000000000000E+00
(PID.TID 0000.0001) %MON AngleCS_sd                   =   0.0000000000000E+00
(PID.TID 0000.0001) %MON AngleSN_max                  =   0.0000000000000E+00
(PID.TID 0000.0001) %MON AngleSN_min                  =   0.0000000000000E+00
(PID.TID 0000.0001) %MON AngleSN_mean                 =   0.0000000000000E+00
(PID.TID 0000.0001) %MON AngleSN_sd                   =   0.0000000000000E+00
(PID.TID 0000.0001)  MDS_READ_FIELD: opening global file: topo_sl.bin
(PID.TID 0000.0001) // =======================================================
(PID.TID 0000.0001) // Field Model R_low (ini_masks_etc) at iteration          1
(PID.TID 0000.0001) // CMIN =         -5.200000000000000E+03
(PID.TID 0000.0001) // CMAX =         -5.200000000000000E+03
(PID.TID 0000.0001) // CINT =          0.000000000000000E+00
(PID.TID 0000.0001) // SYMBOLS (CMIN->CMAX): -abcdefghijklmnopqrstuvwxyz+
(PID.TID 0000.0001) //                  0.0: .
(PID.TID 0000.0001) // RANGE I (Lo:Hi:Step):(  -2:   4:   1)
(PID.TID 0000.0001) // RANGE J (Lo:Hi:Step):(  59:  -2:  -1)
(PID.TID 0000.0001) // RANGE K (Lo:Hi:Step):(   1:   1:   1)
(PID.TID 0000.0001) // =======================================================
(PID.TID 0000.0001) // =======================================================
(PID.TID 0000.0001) // END OF FIELD                                          =
(PID.TID 0000.0001) // =======================================================
(PID.TID 0000.0001) 
(PID.TID 0000.0001) // =======================================================
(PID.TID 0000.0001) // Field Model Ro_surf (ini_masks_etc) at iteration          1
(PID.TID 0000.0001) // CMIN =          1.000000000000000E+32
(PID.TID 0000.0001) // CMAX =         -1.000000000000000E+32
(PID.TID 0000.0001) // CINT =          0.000000000000000E+00
(PID.TID 0000.0001) // SYMBOLS (CMIN->CMAX): -abcdefghijklmnopqrstuvwxyz+
(PID.TID 0000.0001) //                  0.0: .
(PID.TID 0000.0001) // RANGE I (Lo:Hi:Step):(  -2:   4:   1)
(PID.TID 0000.0001) // RANGE J (Lo:Hi:Step):(  59:  -2:  -1)
(PID.TID 0000.0001) // RANGE K (Lo:Hi:Step):(   1:   1:   1)
(PID.TID 0000.0001) // =======================================================
(PID.TID 0000.0001) // =======================================================
(PID.TID 0000.0001) // END OF FIELD                                          =
(PID.TID 0000.0001) // =======================================================
(PID.TID 0000.0001) 
(PID.TID 0000.0001) // =======================================================
(PID.TID 0000.0001) // Field hFacC at iteration          1
(PID.TID 0000.0001) // CMIN =          1.000000000000000E+00
(PID.TID 0000.0001) // CMAX =          1.000000000000000E+00
(PID.TID 0000.0001) // CINT =          0.000000000000000E+00
(PID.TID 0000.0001) // SYMBOLS (CMIN->CMAX): -abcdefghijklmnopqrstuvwxyz+
(PID.TID 0000.0001) //                  0.0: .
(PID.TID 0000.0001) // RANGE I (Lo:Hi:Step):(  -2:   4:   1)
(PID.TID 0000.0001) // RANGE J (Lo:Hi:Step):(  59:  -2:  -1)
(PID.TID 0000.0001) // RANGE K (Lo:Hi:Step):(   1:   1:   1)
(PID.TID 0000.0001) // =======================================================
(PID.TID 0000.0001) // =======================================================
(PID.TID 0000.0001) // END OF FIELD                                          =
(PID.TID 0000.0001) // =======================================================
(PID.TID 0000.0001) 
(PID.TID 0000.0001) // =======================================================
(PID.TID 0000.0001) // Field hFacW at iteration          1
(PID.TID 0000.0001) // CMIN =          1.000000000000000E+00
(PID.TID 0000.0001) // CMAX =          1.000000000000000E+00
(PID.TID 0000.0001) // CINT =          0.000000000000000E+00
(PID.TID 0000.0001) // SYMBOLS (CMIN->CMAX): -abcdefghijklmnopqrstuvwxyz+
(PID.TID 0000.0001) //                  0.0: .
(PID.TID 0000.0001) // RANGE I (Lo:Hi:Step):(  -2:   4:   1)
(PID.TID 0000.0001) // RANGE J (Lo:Hi:Step):(  59:  -2:  -1)
(PID.TID 0000.0001) // RANGE K (Lo:Hi:Step):(   1:   1:   1)
(PID.TID 0000.0001) // =======================================================
(PID.TID 0000.0001) // =======================================================
(PID.TID 0000.0001) // END OF FIELD                                          =
(PID.TID 0000.0001) // =======================================================
(PID.TID 0000.0001) 
(PID.TID 0000.0001) // =======================================================
(PID.TID 0000.0001) // Field hFacS at iteration          1
(PID.TID 0000.0001) // CMIN =          1.000000000000000E+00
(PID.TID 0000.0001) // CMAX =          1.000000000000000E+00
(PID.TID 0000.0001) // CINT =          0.000000000000000E+00
(PID.TID 0000.0001) // SYMBOLS (CMIN->CMAX): -abcdefghijklmnopqrstuvwxyz+
(PID.TID 0000.0001) //                  0.0: .
(PID.TID 0000.0001) // RANGE I (Lo:Hi:Step):(  -2:   4:   1)
(PID.TID 0000.0001) // RANGE J (Lo:Hi:Step):(  59:  -2:  -1)
(PID.TID 0000.0001) // RANGE K (Lo:Hi:Step):(   1:   1:   1)
(PID.TID 0000.0001) // =======================================================
(PID.TID 0000.0001) // =======================================================
(PID.TID 0000.0001) // END OF FIELD                                          =
(PID.TID 0000.0001) // =======================================================
(PID.TID 0000.0001) 
(PID.TID 0000.0001) 
(PID.TID 0000.0001) // ===================================
(PID.TID 0000.0001) // GAD parameters :
(PID.TID 0000.0001) // ===================================
(PID.TID 0000.0001) tempAdvScheme =   /* Temp. Horiz.Advection scheme selector */
(PID.TID 0000.0001)                      77
(PID.TID 0000.0001)     ;
(PID.TID 0000.0001) tempVertAdvScheme =   /* Temp. Vert. Advection scheme selector */
(PID.TID 0000.0001)                      77
(PID.TID 0000.0001)     ;
(PID.TID 0000.0001) tempMultiDimAdvec =   /* use Muti-Dim Advec method for Temp */
(PID.TID 0000.0001)                   T
(PID.TID 0000.0001)     ;
(PID.TID 0000.0001) tempSOM_Advection = /* use 2nd Order Moment Advection for Temp */
(PID.TID 0000.0001)                   F
(PID.TID 0000.0001)     ;
(PID.TID 0000.0001) AdamsBashforthGt = /* apply Adams-Bashforth extrapolation on Gt */
(PID.TID 0000.0001)                   F
(PID.TID 0000.0001)     ;
(PID.TID 0000.0001) AdamsBashforth_T = /* apply Adams-Bashforth extrapolation on Temp */
(PID.TID 0000.0001)                   F
(PID.TID 0000.0001)     ;
(PID.TID 0000.0001) saltAdvScheme =   /* Salt. Horiz.advection scheme selector */
(PID.TID 0000.0001)                       2
(PID.TID 0000.0001)     ;
(PID.TID 0000.0001) saltVertAdvScheme =   /* Salt. Vert. Advection scheme selector */
(PID.TID 0000.0001)                       2
(PID.TID 0000.0001)     ;
(PID.TID 0000.0001) saltMultiDimAdvec =   /* use Muti-Dim Advec method for Salt */
(PID.TID 0000.0001)                   F
(PID.TID 0000.0001)     ;
(PID.TID 0000.0001) saltSOM_Advection = /* use 2nd Order Moment Advection for Salt */
(PID.TID 0000.0001)                   F
(PID.TID 0000.0001)     ;
(PID.TID 0000.0001) AdamsBashforthGs = /* apply Adams-Bashforth extrapolation on Gs */
(PID.TID 0000.0001)                   F
(PID.TID 0000.0001)     ;
(PID.TID 0000.0001) AdamsBashforth_S = /* apply Adams-Bashforth extrapolation on Salt */
(PID.TID 0000.0001)                   F
(PID.TID 0000.0001)     ;
(PID.TID 0000.0001) // ===================================
(PID.TID 0000.0001) ------------------------------------------------------------
(PID.TID 0000.0001) DIAGNOSTICS_SET_LEVELS: done
(PID.TID 0000.0001)  Total Nb of available Diagnostics: ndiagt=   187
(PID.TID 0000.0001)  write list of available Diagnostics to file: available_diagnostics.log
(PID.TID 0000.0001) SETDIAG: Allocate  1 x  1 Levels for Diagnostic #    23 ETAN
(PID.TID 0000.0001) SETDIAG: Allocate  1 x  1 Levels for Diagnostic #    24 ETANSQ
(PID.TID 0000.0001) SETDIAG: Allocate  1 x  1 Levels for Diagnostic #    25 DETADT2
(PID.TID 0000.0001) SETDIAG: Allocate  1 x  1 Levels for Diagnostic #    69 PHIBOT
(PID.TID 0000.0001) SETDIAG: Allocate  1 x  1 Levels for Diagnostic #    70 PHIBOTSQ
(PID.TID 0000.0001) SETDIAG: Allocate  1 x  1 Levels for Diagnostic #   171 GM_VisbK
(PID.TID 0000.0001) SETDIAG: Allocate 15 x  1 Levels for Diagnostic #    30 UVEL
(PID.TID 0000.0001) SETDIAG: Allocate 15 x  1 Levels for Diagnostic #    31 VVEL
(PID.TID 0000.0001) SETDIAG: Allocate 15 x  1 Levels for Diagnostic #    32 WVEL
(PID.TID 0000.0001) SETDIAG: Allocate 15 x  1 Levels for Diagnostic #    67 PHIHYD
(PID.TID 0000.0001) SETDIAG: Allocate 15 x  1 Levels for Diagnostic #    46 VVELMASS
(PID.TID 0000.0001) SETDIAG: Allocate 15 x  1 Levels for Diagnostic #    26 THETA
(PID.TID 0000.0001) SETDIAG: Allocate 15 x  1 Levels for Diagnostic #    49 VTHMASS
(PID.TID 0000.0001) SETDIAG: Allocate 15 x  1 Levels for Diagnostic #    50 WTHMASS
(PID.TID 0000.0001) SETDIAG: Allocate 15 x  1 Levels for Diagnostic #    33 THETASQ
(PID.TID 0000.0001) SETDIAG: Allocate 15 x  1 Levels for Diagnostic #    36 UVELSQ
(PID.TID 0000.0001) SETDIAG: Allocate 15 x  1 Levels for Diagnostic #    42 UV_VEL_Z
(PID.TID 0000.0001) SETDIAG: Allocate 15 x  1 Levels for Diagnostic #    43 WU_VEL
(PID.TID 0000.0001) SETDIAG: Allocate 15 x  1 Levels for Diagnostic #    72 DRHODR
(PID.TID 0000.0001) SETDIAG: Allocate 15 x  1 Levels for Diagnostic #    62 RHOAnoma
(PID.TID 0000.0001) SETDIAG: Allocate 15 x  1 Levels for Diagnostic #   183 GM_PsiY
(PID.TID 0000.0001) SETDIAG: Allocate 15 x  1 Levels for Diagnostic #   176 GM_Kvy
(PID.TID 0000.0001) SETDIAG: Allocate 15 x  1 Levels for Diagnostic #   178 GM_Kvz
(PID.TID 0000.0001) SETDIAG: Allocate 15 x  1 Levels for Diagnostic #   180 GM_Kwy
(PID.TID 0000.0001) SETDIAG: Allocate 15 x  1 Levels for Diagnostic #   181 GM_Kwz
(PID.TID 0000.0001) SETDIAG: Allocate 15 x  1 Levels for Diagnostic #    97 ADVy_TH
(PID.TID 0000.0001) SETDIAG: Allocate 15 x  1 Levels for Diagnostic #    95 ADVr_TH
(PID.TID 0000.0001) SETDIAG: Allocate 15 x  1 Levels for Diagnostic #   100 DFyE_TH
(PID.TID 0000.0001) SETDIAG: Allocate 15 x  1 Levels for Diagnostic #    98 DFrE_TH
(PID.TID 0000.0001) SETDIAG: Allocate 15 x  1 Levels for Diagnostic #   101 DFrI_TH
(PID.TID 0000.0001)   space allocated for all diagnostics:     366 levels
(PID.TID 0000.0001)   set mate pointer for diag #    30  UVEL     , Parms: UU      MR , mate:    31
(PID.TID 0000.0001)   set mate pointer for diag #    31  VVEL     , Parms: VV      MR , mate:    30
(PID.TID 0000.0001)   set mate pointer for diag #    42  UV_VEL_Z , Parms: UZ      MR , mate:    42
(PID.TID 0000.0001) DIAGNOSTICS_SET_POINTERS: Set levels for Outp.Stream: dynDiag
(PID.TID 0000.0001)  Levels:       1.   2.   3.   4.   5.   6.   7.   8.   9.  10.  11.  12.  13.  14.  15.
(PID.TID 0000.0001) DIAGNOSTICS_SET_POINTERS: Set levels for Outp.Stream: flxDiag
(PID.TID 0000.0001)  Levels:       1.   2.   3.   4.   5.   6.   7.   8.   9.  10.  11.  12.  13.  14.  15.
(PID.TID 0000.0001) DIAGNOSTICS_SET_POINTERS: done
(PID.TID 0000.0001) ------------------------------------------------------------
(PID.TID 0000.0001) DIAGSTATS_SET_REGIONS: define no region
(PID.TID 0000.0001) ------------------------------------------------------------
(PID.TID 0000.0001) SETDIAG: Allocate  1 Levels for Stats-Diag #    23 ETAN
(PID.TID 0000.0001) SETDIAG: Allocate 15 Levels for Stats-Diag #    30 UVEL
(PID.TID 0000.0001) SETDIAG: Allocate 15 Levels for Stats-Diag #    31 VVEL
(PID.TID 0000.0001) SETDIAG: Allocate 15 Levels for Stats-Diag #    32 WVEL
(PID.TID 0000.0001) SETDIAG: Allocate 15 Levels for Stats-Diag #    26 THETA
(PID.TID 0000.0001)   space allocated for all stats-diags:      61 levels
(PID.TID 0000.0001) DIAGSTATS_SET_POINTERS: done
(PID.TID 0000.0001) ------------------------------------------------------------
(PID.TID 0000.0001) %MON fCori_max                    =   1.4419980985793E-04
(PID.TID 0000.0001) %MON fCori_min                    =  -1.4419980985793E-04
(PID.TID 0000.0001) %MON fCori_mean                   =   7.7443012320393E-21
(PID.TID 0000.0001) %MON fCori_sd                     =   9.9129524406610E-05
(PID.TID 0000.0001) %MON fCoriG_max                   =   1.4365344605787E-04
(PID.TID 0000.0001) %MON fCoriG_min                   =  -1.4464734631126E-04
(PID.TID 0000.0001) %MON fCoriG_mean                  =  -2.5829883269867E-06
(PID.TID 0000.0001) %MON fCoriG_sd                    =   9.9101054904195E-05
(PID.TID 0000.0001) %MON fCoriCos_max                 =   1.4539426427085E-04
(PID.TID 0000.0001) %MON fCoriCos_min                 =   1.8984265119424E-05
(PID.TID 0000.0001) %MON fCoriCos_mean                =   9.8674157759248E-05
(PID.TID 0000.0001) %MON fCoriCos_sd                  =   3.9884025205722E-05
(PID.TID 0000.0001) INI_CG2D: CG2D normalisation factor =  3.5045293363874508E-05
(PID.TID 0000.0001) INI_CG2D: cg2dTolerance = 1.225676511460127E-12 (Area=4.1968882910E+12)
(PID.TID 0000.0001) 
(PID.TID 0000.0001) // =======================================================
(PID.TID 0000.0001) // Model configuration
(PID.TID 0000.0001) // =======================================================
(PID.TID 0000.0001) //
(PID.TID 0000.0001) // "Physical" paramters ( PARM01 in namelist )
(PID.TID 0000.0001) //
(PID.TID 0000.0001) buoyancyRelation = /* Type of relation to get Buoyancy */
(PID.TID 0000.0001)               'OCEANIC'
(PID.TID 0000.0001)     ;
(PID.TID 0000.0001) fluidIsAir  =  /* fluid major constituent is Air */
(PID.TID 0000.0001)                   F
(PID.TID 0000.0001)     ;
(PID.TID 0000.0001) fluidIsWater=  /* fluid major constituent is Water */
(PID.TID 0000.0001)                   T
(PID.TID 0000.0001)     ;
(PID.TID 0000.0001) usingPCoords =  /* use p (or p*) vertical coordinate */
(PID.TID 0000.0001)                   F
(PID.TID 0000.0001)     ;
(PID.TID 0000.0001) usingZCoords =  /* use z (or z*) vertical coordinate */
(PID.TID 0000.0001)                   T
(PID.TID 0000.0001)     ;
(PID.TID 0000.0001) tRef =   /* Reference temperature profile ( oC or K ) */
(PID.TID 0000.0001)                 1.880000000000000E+01,      /* K =  1 */
(PID.TID 0000.0001)                 1.630000000000000E+01,      /* K =  2 */
(PID.TID 0000.0001)                 1.310000000000000E+01,      /* K =  3 */
(PID.TID 0000.0001)                 1.040000000000000E+01,      /* K =  4 */
(PID.TID 0000.0001)                 8.100000000000000E+00,      /* K =  5 */
(PID.TID 0000.0001)                 6.000000000000000E+00,      /* K =  6 */
(PID.TID 0000.0001)                 4.500000000000000E+00,      /* K =  7 */
(PID.TID 0000.0001)                 3.400000000000000E+00,      /* K =  8 */
(PID.TID 0000.0001)                 2.700000000000000E+00,      /* K =  9 */
(PID.TID 0000.0001)                 2.200000000000000E+00,      /* K = 10 */
(PID.TID 0000.0001)                 1.800000000000000E+00,      /* K = 11 */
(PID.TID 0000.0001)                 1.500000000000000E+00,      /* K = 12 */
(PID.TID 0000.0001)                 1.200000000000000E+00,      /* K = 13 */
(PID.TID 0000.0001)                 1.000000000000000E+00,      /* K = 14 */
(PID.TID 0000.0001)                 9.000000000000000E-01       /* K = 15 */
(PID.TID 0000.0001)     ;
(PID.TID 0000.0001) sRef =   /* Reference salinity profile ( psu ) */
(PID.TID 0000.0001)    15 @  3.470000000000000E+01              /* K =  1: 15 */
(PID.TID 0000.0001)     ;
(PID.TID 0000.0001) viscAh =   /* Lateral eddy viscosity ( m^2/s ) */
(PID.TID 0000.0001)                 1.200000000000000E+06
(PID.TID 0000.0001)     ;
(PID.TID 0000.0001) viscAhMax =   /* Maximum lateral eddy viscosity ( m^2/s ) */
(PID.TID 0000.0001)                 1.000000000000000E+21
(PID.TID 0000.0001)     ;
(PID.TID 0000.0001) viscAhGrid =   /* Grid dependent lateral eddy viscosity ( non-dim. ) */
(PID.TID 0000.0001)                 0.000000000000000E+00
(PID.TID 0000.0001)     ;
(PID.TID 0000.0001) useFullLeith =   /* Use Full Form of Leith Viscosity on/off flag*/
(PID.TID 0000.0001)                   F
(PID.TID 0000.0001)     ;
(PID.TID 0000.0001) useStrainTensionVisc =   /* Use StrainTension Form of Viscous Operator on/off flag*/
(PID.TID 0000.0001)                   F
(PID.TID 0000.0001)     ;
(PID.TID 0000.0001) useAreaViscLength =   /* Use area for visc length instead of geom. mean*/
(PID.TID 0000.0001)                   F
(PID.TID 0000.0001)     ;
(PID.TID 0000.0001) viscC2leith = /* Leith harmonic visc. factor (on grad(vort),non-dim.) */
(PID.TID 0000.0001)                 0.000000000000000E+00
(PID.TID 0000.0001)     ;
(PID.TID 0000.0001) viscC2leithD = /* Leith harmonic viscosity factor (on grad(div),non-dim.) */
(PID.TID 0000.0001)                 0.000000000000000E+00
(PID.TID 0000.0001)     ;
(PID.TID 0000.0001) viscC2smag =   /* Smagorinsky harmonic viscosity factor (non-dim.) */
(PID.TID 0000.0001)                 0.000000000000000E+00
(PID.TID 0000.0001)     ;
(PID.TID 0000.0001) viscA4 =   /* Lateral biharmonic viscosity ( m^4/s ) */
(PID.TID 0000.0001)                 0.000000000000000E+00
(PID.TID 0000.0001)     ;
(PID.TID 0000.0001) viscA4Max =   /* Maximum biharmonic viscosity ( m^2/s ) */
(PID.TID 0000.0001)                 1.000000000000000E+21
(PID.TID 0000.0001)     ;
(PID.TID 0000.0001) viscA4Grid =   /* Grid dependent biharmonic viscosity ( non-dim. ) */
(PID.TID 0000.0001)                 0.000000000000000E+00
(PID.TID 0000.0001)     ;
(PID.TID 0000.0001) viscC4leith = /* Leith biharm viscosity factor (on grad(vort), non-dim.) */
(PID.TID 0000.0001)                 0.000000000000000E+00
(PID.TID 0000.0001)     ;
(PID.TID 0000.0001) viscC4leithD = /* Leith biharm viscosity factor (on grad(div), non-dim.) */
(PID.TID 0000.0001)                 0.000000000000000E+00
(PID.TID 0000.0001)     ;
(PID.TID 0000.0001) viscC4Smag = /* Smagorinsky biharm viscosity factor (non-dim) */
(PID.TID 0000.0001)                 0.000000000000000E+00
(PID.TID 0000.0001)     ;
(PID.TID 0000.0001) no_slip_sides =  /* Viscous BCs: No-slip sides */
(PID.TID 0000.0001)                   F
(PID.TID 0000.0001)     ;
(PID.TID 0000.0001) sideDragFactor = /* side-drag scaling factor (non-dim) */
(PID.TID 0000.0001)                 2.000000000000000E+00
(PID.TID 0000.0001)     ;
(PID.TID 0000.0001) viscAr =   /* Vertical eddy viscosity ( m^2/s ) */
(PID.TID 0000.0001)                 1.000000000000000E-03
(PID.TID 0000.0001)     ;
(PID.TID 0000.0001) no_slip_bottom =  /* Viscous BCs: No-slip bottom */
(PID.TID 0000.0001)                   T
(PID.TID 0000.0001)     ;
(PID.TID 0000.0001) bottomDragLinear = /* linear bottom-drag coefficient ( m/s ) */
(PID.TID 0000.0001)                 1.000000000000000E-03
(PID.TID 0000.0001)     ;
(PID.TID 0000.0001) bottomDragQuadratic = /* quadratic bottom-drag coefficient (-) */
(PID.TID 0000.0001)                 0.000000000000000E+00
(PID.TID 0000.0001)     ;
(PID.TID 0000.0001) diffKhT =   /* Laplacian diffusion of heat laterally ( m^2/s ) */
(PID.TID 0000.0001)                 0.000000000000000E+00
(PID.TID 0000.0001)     ;
(PID.TID 0000.0001) diffK4T =   /* Biharmonic diffusion of heat laterally ( m^4/s ) */
(PID.TID 0000.0001)                 0.000000000000000E+00
(PID.TID 0000.0001)     ;
(PID.TID 0000.0001) diffKhS =   /* Laplacian diffusion of salt laterally ( m^2/s ) */
(PID.TID 0000.0001)                 0.000000000000000E+00
(PID.TID 0000.0001)     ;
(PID.TID 0000.0001) diffK4S =   /* Biharmonic diffusion of salt laterally ( m^4/s ) */
(PID.TID 0000.0001)                 0.000000000000000E+00
(PID.TID 0000.0001)     ;
(PID.TID 0000.0001) diffKrNrT = /* vertical profile of vertical diffusion of Temp ( m^2/s )*/
(PID.TID 0000.0001)                 1.000000000000000E-04,      /* K =  1 */
(PID.TID 0000.0001)    14 @  1.000000000000000E-05              /* K =  2: 15 */
(PID.TID 0000.0001)     ;
(PID.TID 0000.0001) diffKrNrS = /* vertical profile of vertical diffusion of Salt ( m^2/s )*/
(PID.TID 0000.0001)    15 @  0.000000000000000E+00              /* K =  1: 15 */
(PID.TID 0000.0001)     ;
(PID.TID 0000.0001) diffKrBL79surf = /* Surface diffusion for Bryan and Lewis 79 ( m^2/s ) */
(PID.TID 0000.0001)                 0.000000000000000E+00
(PID.TID 0000.0001)     ;
(PID.TID 0000.0001) diffKrBL79deep = /* Deep diffusion for Bryan and Lewis 1979 ( m^2/s ) */
(PID.TID 0000.0001)                 0.000000000000000E+00
(PID.TID 0000.0001)     ;
(PID.TID 0000.0001) diffKrBL79scl = /* Depth scale for Bryan and Lewis 1979 ( m ) */
(PID.TID 0000.0001)                 2.000000000000000E+02
(PID.TID 0000.0001)     ;
(PID.TID 0000.0001) diffKrBL79Ho = /* Turning depth for Bryan and Lewis 1979 ( m ) */
(PID.TID 0000.0001)                -2.000000000000000E+03
(PID.TID 0000.0001)     ;
(PID.TID 0000.0001) ivdc_kappa = /* Implicit Vertical Diffusivity for Convection ( m^2/s ) */
(PID.TID 0000.0001)                 1.000000000000000E+02
(PID.TID 0000.0001)     ;
(PID.TID 0000.0001) hMixCriteria=  /* Criteria for mixed-layer diagnostic */
(PID.TID 0000.0001)                -8.000000000000000E-01
(PID.TID 0000.0001)     ;
(PID.TID 0000.0001) eosType =  /* Type of Equation of State */
(PID.TID 0000.0001)               'LINEAR'
(PID.TID 0000.0001)     ;
(PID.TID 0000.0001) tAlpha =   /* Linear EOS thermal expansion coefficient ( 1/oC ) */
(PID.TID 0000.0001)                 2.000000000000000E-04
(PID.TID 0000.0001)     ;
(PID.TID 0000.0001) sBeta =   /* Linear EOS haline contraction coefficient ( 1/psu ) */
(PID.TID 0000.0001)                 0.000000000000000E+00
(PID.TID 0000.0001)     ;
(PID.TID 0000.0001) rhonil =   /* Reference density ( kg/m^3 ) */
(PID.TID 0000.0001)                 1.035000000000000E+03
(PID.TID 0000.0001)     ;
(PID.TID 0000.0001) rhoConst =   /* Reference density ( kg/m^3 ) */
(PID.TID 0000.0001)                 1.035000000000000E+03
(PID.TID 0000.0001)     ;
(PID.TID 0000.0001) rhoFacC = /* normalized Reference density @ cell-Center (-) */
(PID.TID 0000.0001)    15 @  1.000000000000000E+00              /* K =  1: 15 */
(PID.TID 0000.0001)     ;
(PID.TID 0000.0001) rhoFacF = /* normalized Reference density @ W-Interface (-) */
(PID.TID 0000.0001)    16 @  1.000000000000000E+00              /* K =  1: 16 */
(PID.TID 0000.0001)     ;
(PID.TID 0000.0001) rhoConstFresh =   /* Reference density ( kg/m^3 ) */
(PID.TID 0000.0001)                 1.035000000000000E+03
(PID.TID 0000.0001)     ;
(PID.TID 0000.0001) gravity =   /* Gravitational acceleration ( m/s^2 ) */
(PID.TID 0000.0001)                 9.810000000000000E+00
(PID.TID 0000.0001)     ;
(PID.TID 0000.0001) gBaro =   /* Barotropic gravity ( m/s^2 ) */
(PID.TID 0000.0001)                 9.810000000000000E+00
(PID.TID 0000.0001)     ;
(PID.TID 0000.0001) rotationPeriod =   /* Rotation Period ( s ) */
(PID.TID 0000.0001)                 8.640000000000000E+04
(PID.TID 0000.0001)     ;
(PID.TID 0000.0001) omega =   /* Angular velocity ( rad/s ) */
(PID.TID 0000.0001)                 7.272205216643040E-05
(PID.TID 0000.0001)     ;
(PID.TID 0000.0001) f0 =   /* Reference coriolis parameter ( 1/s ) */
(PID.TID 0000.0001)                 1.000000000000000E-04
(PID.TID 0000.0001)     ;
(PID.TID 0000.0001) beta =   /* Beta ( 1/(m.s) ) */
(PID.TID 0000.0001)                 9.999999999999999E-12
(PID.TID 0000.0001)     ;
(PID.TID 0000.0001) freeSurfFac =   /* Implicit free surface factor */
(PID.TID 0000.0001)                 1.000000000000000E+00
(PID.TID 0000.0001)     ;
(PID.TID 0000.0001) implicitFreeSurface =   /* Implicit free surface on/off flag */
(PID.TID 0000.0001)                   T
(PID.TID 0000.0001)     ;
(PID.TID 0000.0001) rigidLid =   /* Rigid lid on/off flag */
(PID.TID 0000.0001)                   F
(PID.TID 0000.0001)     ;
(PID.TID 0000.0001) implicSurfPress =   /* Surface Pressure implicit factor (0-1)*/
(PID.TID 0000.0001)                 1.000000000000000E+00
(PID.TID 0000.0001)     ;
(PID.TID 0000.0001) implicDiv2Dflow =   /* Barot. Flow Div. implicit factor (0-1)*/
(PID.TID 0000.0001)                 1.000000000000000E+00
(PID.TID 0000.0001)     ;
(PID.TID 0000.0001) exactConserv =   /* Exact Volume Conservation on/off flag*/
(PID.TID 0000.0001)                   T
(PID.TID 0000.0001)     ;
(PID.TID 0000.0001) linFSConserveTr =   /* Tracer correction for Lin Free Surface on/off flag*/
(PID.TID 0000.0001)                   F
(PID.TID 0000.0001)     ;
(PID.TID 0000.0001) uniformLin_PhiSurf =   /* use uniform Bo_surf on/off flag*/
(PID.TID 0000.0001)                   T
(PID.TID 0000.0001)     ;
(PID.TID 0000.0001) nonlinFreeSurf =   /* Non-linear Free Surf. options (-1,0,1,2,3)*/
(PID.TID 0000.0001)                       0
(PID.TID 0000.0001)     ;
(PID.TID 0000.0001)      -1,0= Off ; 1,2,3= On, 2=+rescale gU,gV, 3=+update cg2d solv.
(PID.TID 0000.0001) hFacInf =   /* lower threshold for hFac (nonlinFreeSurf only)*/
(PID.TID 0000.0001)                 2.000000000000000E-01
(PID.TID 0000.0001)     ;
(PID.TID 0000.0001) hFacSup =   /* upper threshold for hFac (nonlinFreeSurf only)*/
(PID.TID 0000.0001)                 2.000000000000000E+00
(PID.TID 0000.0001)     ;
(PID.TID 0000.0001) select_rStar = /* r* Vertical coord. options (=0 r coord.; > 0 uses r*) */
(PID.TID 0000.0001)                       0
(PID.TID 0000.0001)     ;
(PID.TID 0000.0001) selectAddFluid = /* option for mass source/sink of fluid (=0: off) */
(PID.TID 0000.0001)                       0
(PID.TID 0000.0001)     ;
(PID.TID 0000.0001) useRealFreshWaterFlux = /* Real Fresh Water Flux on/off flag*/
(PID.TID 0000.0001)                   F
(PID.TID 0000.0001)     ;
(PID.TID 0000.0001) temp_EvPrRn = /* Temp. of Evap/Prec/R (UNSET=use local T)(oC)*/
(PID.TID 0000.0001)                 1.234567000000000E+05
(PID.TID 0000.0001)     ;
(PID.TID 0000.0001) salt_EvPrRn = /* Salin. of Evap/Prec/R (UNSET=use local S)(ppt)*/
(PID.TID 0000.0001)                 0.000000000000000E+00
(PID.TID 0000.0001)     ;
(PID.TID 0000.0001) convertFW2Salt = /* convert F.W. Flux to Salt Flux (-1=use local S)(ppt)*/
(PID.TID 0000.0001)                 3.500000000000000E+01
(PID.TID 0000.0001)     ;
(PID.TID 0000.0001) use3Dsolver = /* use 3-D pressure solver on/off flag */
(PID.TID 0000.0001)                   F
(PID.TID 0000.0001)     ;
(PID.TID 0000.0001) nonHydrostatic =  /* Non-Hydrostatic on/off flag */
(PID.TID 0000.0001)                   F
(PID.TID 0000.0001)     ;
(PID.TID 0000.0001) nh_Am2 = /* Non-Hydrostatic terms scaling factor */
(PID.TID 0000.0001)                 1.000000000000000E+00
(PID.TID 0000.0001)     ;
(PID.TID 0000.0001) quasiHydrostatic = /* Quasi-Hydrostatic on/off flag */
(PID.TID 0000.0001)                   F
(PID.TID 0000.0001)     ;
(PID.TID 0000.0001) momStepping =  /* Momentum equation on/off flag */
(PID.TID 0000.0001)                   T
(PID.TID 0000.0001)     ;
(PID.TID 0000.0001) vectorInvariantMomentum= /* Vector-Invariant Momentum on/off */
(PID.TID 0000.0001)                   F
(PID.TID 0000.0001)     ;
(PID.TID 0000.0001) momAdvection =  /* Momentum advection on/off flag */
(PID.TID 0000.0001)                   T
(PID.TID 0000.0001)     ;
(PID.TID 0000.0001) momViscosity =  /* Momentum viscosity on/off flag */
(PID.TID 0000.0001)                   T
(PID.TID 0000.0001)     ;
(PID.TID 0000.0001) momImplVertAdv =/* Momentum implicit vert. advection on/off*/
(PID.TID 0000.0001)                   F
(PID.TID 0000.0001)     ;
(PID.TID 0000.0001) implicitViscosity = /* Implicit viscosity on/off flag */
(PID.TID 0000.0001)                   F
(PID.TID 0000.0001)     ;
(PID.TID 0000.0001) metricTerms =  /* metric-Terms on/off flag */
(PID.TID 0000.0001)                   T
(PID.TID 0000.0001)     ;
(PID.TID 0000.0001) useNHMTerms = /* Non-Hydrostatic Metric-Terms on/off */
(PID.TID 0000.0001)                   F
(PID.TID 0000.0001)     ;
(PID.TID 0000.0001) useConstantF =  /* use Constant f0 Coriolis flag */
(PID.TID 0000.0001)                   F
(PID.TID 0000.0001)     ;
(PID.TID 0000.0001) useBetaPlaneF = /* use Beta-Plane Coriolis flag */
(PID.TID 0000.0001)                   F
(PID.TID 0000.0001)     ;
(PID.TID 0000.0001) useSphereF  =   /* use Spherical Coriolis flag */
(PID.TID 0000.0001)                   T
(PID.TID 0000.0001)     ;
(PID.TID 0000.0001) use3dCoriolis = /* 3-D Coriolis on/off flag */
(PID.TID 0000.0001)                   F
(PID.TID 0000.0001)     ;
(PID.TID 0000.0001) useCoriolis =  /* Coriolis on/off flag */
(PID.TID 0000.0001)                   T
(PID.TID 0000.0001)     ;
(PID.TID 0000.0001) useCDscheme =  /* CD scheme on/off flag */
(PID.TID 0000.0001)                   T
(PID.TID 0000.0001)     ;
(PID.TID 0000.0001) useJamartWetPoints= /* Coriolis WetPoints method flag */
(PID.TID 0000.0001)                   F
(PID.TID 0000.0001)     ;
(PID.TID 0000.0001) useJamartMomAdv= /* V.I. Non-linear terms Jamart flag */
(PID.TID 0000.0001)                   F
(PID.TID 0000.0001)     ;
(PID.TID 0000.0001) useAbsVorticity= /* Work with f+zeta in Coriolis */
(PID.TID 0000.0001)                   F
(PID.TID 0000.0001)     ;
(PID.TID 0000.0001) selectVortScheme= /* Scheme selector for Vorticity-Term */
(PID.TID 0000.0001)               123456789
(PID.TID 0000.0001)    = 0 : enstrophy (Shallow-Water Eq.) conserving scheme by Sadourny, JAS 75
(PID.TID 0000.0001)    = 1 : same as 0 with modified hFac
(PID.TID 0000.0001)    = 2 : energy conserving scheme (used by Sadourny in JAS 75 paper)
(PID.TID 0000.0001)    = 3 : energy (general) and enstrophy (2D, nonDiv.) conserving scheme
(PID.TID 0000.0001)          from Sadourny (Burridge & Haseler, ECMWF Rep.4, 1977)
(PID.TID 0000.0001)     ;
(PID.TID 0000.0001) upwindVorticity= /* Upwind bias vorticity flag */
(PID.TID 0000.0001)                   F
(PID.TID 0000.0001)     ;
(PID.TID 0000.0001) highOrderVorticity= /* High order interp. of vort. flag */
(PID.TID 0000.0001)                   F
(PID.TID 0000.0001)     ;
(PID.TID 0000.0001) upwindShear= /* Upwind vertical Shear advection flag */
(PID.TID 0000.0001)                   F
(PID.TID 0000.0001)     ;
(PID.TID 0000.0001) selectKEscheme= /* Kinetic Energy scheme selector */
(PID.TID 0000.0001)                       0
(PID.TID 0000.0001)     ;
(PID.TID 0000.0001) momForcing =  /* Momentum forcing on/off flag */
(PID.TID 0000.0001)                   T
(PID.TID 0000.0001)     ;
(PID.TID 0000.0001) momPressureForcing =  /* Momentum pressure term on/off flag */
(PID.TID 0000.0001)                   T
(PID.TID 0000.0001)     ;
(PID.TID 0000.0001) implicitIntGravWave= /* Implicit Internal Gravity Wave flag */
(PID.TID 0000.0001)                   F
(PID.TID 0000.0001)     ;
(PID.TID 0000.0001) staggerTimeStep =   /* Stagger time stepping on/off flag */
(PID.TID 0000.0001)                   T
(PID.TID 0000.0001)     ;
(PID.TID 0000.0001) multiDimAdvection =   /* enable/disable Multi-Dim Advection */
(PID.TID 0000.0001)                   T
(PID.TID 0000.0001)     ;
(PID.TID 0000.0001) useMultiDimAdvec =   /* Multi-Dim Advection is/is-not used */
(PID.TID 0000.0001)                   T
(PID.TID 0000.0001)     ;
(PID.TID 0000.0001) implicitDiffusion =/* Implicit Diffusion on/off flag */
(PID.TID 0000.0001)                   T
(PID.TID 0000.0001)     ;
(PID.TID 0000.0001) tempStepping =  /* Temperature equation on/off flag */
(PID.TID 0000.0001)                   T
(PID.TID 0000.0001)     ;
(PID.TID 0000.0001) tempAdvection=  /* Temperature advection on/off flag */
(PID.TID 0000.0001)                   T
(PID.TID 0000.0001)     ;
(PID.TID 0000.0001) tempImplVertAdv =/* Temp. implicit vert. advection on/off */
(PID.TID 0000.0001)                   F
(PID.TID 0000.0001)     ;
(PID.TID 0000.0001) tempForcing  =  /* Temperature forcing on/off flag */
(PID.TID 0000.0001)                   T
(PID.TID 0000.0001)     ;
(PID.TID 0000.0001) tempIsActiveTr = /* Temp. is a dynamically Active Tracer */
(PID.TID 0000.0001)                   T
(PID.TID 0000.0001)     ;
(PID.TID 0000.0001) saltStepping =  /* Salinity equation on/off flag */
(PID.TID 0000.0001)                   F
(PID.TID 0000.0001)     ;
(PID.TID 0000.0001) saltAdvection=  /* Salinity advection on/off flag */
(PID.TID 0000.0001)                   F
(PID.TID 0000.0001)     ;
(PID.TID 0000.0001) saltImplVertAdv =/* Sali. implicit vert. advection on/off */
(PID.TID 0000.0001)                   F
(PID.TID 0000.0001)     ;
(PID.TID 0000.0001) saltForcing  =  /* Salinity forcing on/off flag */
(PID.TID 0000.0001)                   F
(PID.TID 0000.0001)     ;
(PID.TID 0000.0001) saltIsActiveTr = /* Salt  is a dynamically Active Tracer */
(PID.TID 0000.0001)                   F
(PID.TID 0000.0001)     ;
(PID.TID 0000.0001)  readBinaryPrec = /* Precision used for reading binary files */
(PID.TID 0000.0001)                      64
(PID.TID 0000.0001)     ;
(PID.TID 0000.0001) writeBinaryPrec = /* Precision used for writing binary files */
(PID.TID 0000.0001)                      32
(PID.TID 0000.0001)     ;
(PID.TID 0000.0001)  globalFiles = /* write "global" (=not per tile) files */
(PID.TID 0000.0001)                   F
(PID.TID 0000.0001)     ;
(PID.TID 0000.0001)  useSingleCpuIO = /* only master MPI process does I/O */
(PID.TID 0000.0001)                   F
(PID.TID 0000.0001)     ;
(PID.TID 0000.0001)  debugMode  =  /* Debug Mode on/off flag */
(PID.TID 0000.0001)                   F
(PID.TID 0000.0001)     ;
(PID.TID 0000.0001)    debLevA  =  /* 1rst level of debugging */
(PID.TID 0000.0001)                       1
(PID.TID 0000.0001)     ;
(PID.TID 0000.0001)    debLevB  =  /* 2nd  level of debugging */
(PID.TID 0000.0001)                       2
(PID.TID 0000.0001)     ;
(PID.TID 0000.0001)  debugLevel =  /* select debugging level */
(PID.TID 0000.0001)                       1
(PID.TID 0000.0001)     ;
(PID.TID 0000.0001) //
(PID.TID 0000.0001) // Elliptic solver(s) paramters ( PARM02 in namelist )
(PID.TID 0000.0001) //
(PID.TID 0000.0001) cg2dMaxIters =   /* Upper limit on 2d con. grad iterations  */
(PID.TID 0000.0001)                    1000
(PID.TID 0000.0001)     ;
(PID.TID 0000.0001) cg2dChkResFreq =   /* 2d con. grad convergence test frequency */
(PID.TID 0000.0001)                       1
(PID.TID 0000.0001)     ;
(PID.TID 0000.0001) cg2dTargetResidual =   /* 2d con. grad target residual  */
(PID.TID 0000.0001)                 1.000000000000000E-07
(PID.TID 0000.0001)     ;
(PID.TID 0000.0001) cg2dTargetResWunit =   /* CG2d target residual [W units] */
(PID.TID 0000.0001)                 1.000000000000000E-17
(PID.TID 0000.0001)     ;
(PID.TID 0000.0001) cg2dPreCondFreq =   /* Freq. for updating cg2d preconditioner */
(PID.TID 0000.0001)                       1
(PID.TID 0000.0001)     ;
(PID.TID 0000.0001) //
(PID.TID 0000.0001) // Time stepping paramters ( PARM03 in namelist )
(PID.TID 0000.0001) //
(PID.TID 0000.0001) deltaTmom =   /* Momentum equation timestep ( s ) */
(PID.TID 0000.0001)                 1.200000000000000E+03
(PID.TID 0000.0001)     ;
(PID.TID 0000.0001) deltaTfreesurf =   /* FreeSurface equation timestep ( s ) */
(PID.TID 0000.0001)                 3.600000000000000E+03
(PID.TID 0000.0001)     ;
(PID.TID 0000.0001) dTtracerLev =   /* Tracer equation timestep ( s ) */
(PID.TID 0000.0001)    15 @  8.640000000000000E+04              /* K =  1: 15 */
(PID.TID 0000.0001)     ;
(PID.TID 0000.0001) deltaTClock  =   /* Model clock timestep ( s ) */
(PID.TID 0000.0001)                 8.640000000000000E+04
(PID.TID 0000.0001)     ;
(PID.TID 0000.0001) cAdjFreq =   /* Convective adjustment interval ( s ) */
(PID.TID 0000.0001)                 0.000000000000000E+00
(PID.TID 0000.0001)     ;
(PID.TID 0000.0001) momForcingOutAB = /* =1: take Momentum Forcing out of Adams-Bash. stepping */
(PID.TID 0000.0001)                       0
(PID.TID 0000.0001)     ;
(PID.TID 0000.0001) tracForcingOutAB = /* =1: take T,S,pTr Forcing out of Adams-Bash. stepping */
(PID.TID 0000.0001)                       0
(PID.TID 0000.0001)     ;
(PID.TID 0000.0001) momDissip_In_AB = /* put Dissipation Tendency in Adams-Bash. stepping */
(PID.TID 0000.0001)                   T
(PID.TID 0000.0001)     ;
(PID.TID 0000.0001) doAB_onGtGs = /* apply AB on Tendencies (rather than on T,S)*/
(PID.TID 0000.0001)                   T
(PID.TID 0000.0001)     ;
(PID.TID 0000.0001) abEps =   /* Adams-Bashforth-2 stabilizing weight */
(PID.TID 0000.0001)                 1.000000000000000E-01
(PID.TID 0000.0001)     ;
(PID.TID 0000.0001) tauCD =   /* CD coupling time-scale ( s ) */
(PID.TID 0000.0001)                 3.214280000000000E+05
(PID.TID 0000.0001)     ;
(PID.TID 0000.0001) rCD =   /* Normalised CD coupling parameter */
(PID.TID 0000.0001)                 9.962666600296178E-01
(PID.TID 0000.0001)     ;
(PID.TID 0000.0001) pickupStrictlyMatch= /* stop if pickup do not strictly match */
(PID.TID 0000.0001)                   F
(PID.TID 0000.0001)     ;
(PID.TID 0000.0001) nIter0 =   /* Run starting timestep number  */
(PID.TID 0000.0001)                   36000
(PID.TID 0000.0001)     ;
(PID.TID 0000.0001) nTimeSteps =   /* Number of timesteps */
(PID.TID 0000.0001)                      20
(PID.TID 0000.0001)     ;
(PID.TID 0000.0001) baseTime =   /* Model base time ( s ). */
(PID.TID 0000.0001)                 0.000000000000000E+00
(PID.TID 0000.0001)     ;
(PID.TID 0000.0001) startTime =   /* Run start time ( s ). */
(PID.TID 0000.0001)                 3.110400000000000E+09
(PID.TID 0000.0001)     ;
(PID.TID 0000.0001) endTime =   /* Integration ending time ( s ). */
(PID.TID 0000.0001)                 3.112128000000000E+09
(PID.TID 0000.0001)     ;
(PID.TID 0000.0001) pChkPtFreq =   /* Permanent restart/checkpoint file interval ( s ). */
(PID.TID 0000.0001)                 3.110400000000000E+09
(PID.TID 0000.0001)     ;
(PID.TID 0000.0001) chkPtFreq =   /* Rolling restart/checkpoint file interval ( s ). */
(PID.TID 0000.0001)                 0.000000000000000E+00
(PID.TID 0000.0001)     ;
(PID.TID 0000.0001) pickup_write_mdsio =   /* Model IO flag. */
(PID.TID 0000.0001)                   T
(PID.TID 0000.0001)     ;
(PID.TID 0000.0001) pickup_read_mdsio =   /* Model IO flag. */
(PID.TID 0000.0001)                   T
(PID.TID 0000.0001)     ;
(PID.TID 0000.0001) pickup_write_mnc =   /* Model IO flag. */
(PID.TID 0000.0001)                   F
(PID.TID 0000.0001)     ;
(PID.TID 0000.0001) pickup_read_mnc =   /* Model IO flag. */
(PID.TID 0000.0001)                   F
(PID.TID 0000.0001)     ;
(PID.TID 0000.0001) pickup_write_immed =   /* Model IO flag. */
(PID.TID 0000.0001)                   F
(PID.TID 0000.0001)     ;
(PID.TID 0000.0001) writePickupAtEnd =   /* Model IO flag. */
(PID.TID 0000.0001)                   T
(PID.TID 0000.0001)     ;
(PID.TID 0000.0001) dumpFreq =   /* Model state write out interval ( s ). */
(PID.TID 0000.0001)                 1.555200000000000E+09
(PID.TID 0000.0001)     ;
(PID.TID 0000.0001) dumpInitAndLast= /* write out Initial & Last iter. model state */
(PID.TID 0000.0001)                   T
(PID.TID 0000.0001)     ;
(PID.TID 0000.0001) snapshot_mdsio =   /* Model IO flag. */
(PID.TID 0000.0001)                   F
(PID.TID 0000.0001)     ;
(PID.TID 0000.0001) snapshot_mnc =   /* Model IO flag. */
(PID.TID 0000.0001)                   T
(PID.TID 0000.0001)     ;
(PID.TID 0000.0001) monitorFreq =   /* Monitor output interval ( s ). */
(PID.TID 0000.0001)                 1.000000000000000E+00
(PID.TID 0000.0001)     ;
(PID.TID 0000.0001) monitorSelect = /* select group of variables to monitor */
(PID.TID 0000.0001)                       3
(PID.TID 0000.0001)     ;
(PID.TID 0000.0001) monitor_stdio =   /* Model IO flag. */
(PID.TID 0000.0001)                   T
(PID.TID 0000.0001)     ;
(PID.TID 0000.0001) monitor_mnc =   /* Model IO flag. */
(PID.TID 0000.0001)                   F
(PID.TID 0000.0001)     ;
(PID.TID 0000.0001) externForcingPeriod =   /* forcing period (s) */
(PID.TID 0000.0001)                 0.000000000000000E+00
(PID.TID 0000.0001)     ;
(PID.TID 0000.0001) externForcingCycle =   /* period of the cyle (s). */
(PID.TID 0000.0001)                 0.000000000000000E+00
(PID.TID 0000.0001)     ;
(PID.TID 0000.0001) tauThetaClimRelax =   /* relaxation time scale (s) */
(PID.TID 0000.0001)                 2.592000000000000E+06
(PID.TID 0000.0001)     ;
(PID.TID 0000.0001) tauSaltClimRelax =   /* relaxation time scale (s) */
(PID.TID 0000.0001)                 0.000000000000000E+00
(PID.TID 0000.0001)     ;
(PID.TID 0000.0001) latBandClimRelax =   /* max. Lat. where relaxation */
(PID.TID 0000.0001)                 1.800000000000000E+02
(PID.TID 0000.0001)     ;
(PID.TID 0000.0001) //
(PID.TID 0000.0001) // Gridding paramters ( PARM04 in namelist )
(PID.TID 0000.0001) //
(PID.TID 0000.0001) usingCartesianGrid = /* Cartesian coordinates flag ( True/False ) */
(PID.TID 0000.0001)                   F
(PID.TID 0000.0001)     ;
(PID.TID 0000.0001) usingCylindricalGrid = /* Cylindrical coordinates flag ( True/False ) */
(PID.TID 0000.0001)                   F
(PID.TID 0000.0001)     ;
(PID.TID 0000.0001) usingSphericalPolarGrid = /* Spherical coordinates flag ( True/False ) */
(PID.TID 0000.0001)                   T
(PID.TID 0000.0001)     ;
(PID.TID 0000.0001) usingCurvilinearGrid = /* Curvilinear coordinates flag ( True/False ) */
(PID.TID 0000.0001)                   F
(PID.TID 0000.0001)     ;
(PID.TID 0000.0001) Ro_SeaLevel = /* r(1) ( units of r ==  m ) */
(PID.TID 0000.0001)                 0.000000000000000E+00
(PID.TID 0000.0001)     ;
(PID.TID 0000.0001) rkSign =   /* index orientation relative to vertical coordinate */
(PID.TID 0000.0001)                -1.000000000000000E+00
(PID.TID 0000.0001)     ;
(PID.TID 0000.0001) gravitySign = /* gravity orientation relative to vertical coordinate */
(PID.TID 0000.0001)                -1.000000000000000E+00
(PID.TID 0000.0001)     ;
(PID.TID 0000.0001) mass2rUnit = /* convert mass per unit area [kg/m2] to r-units [m] */
(PID.TID 0000.0001)                 9.661835748792270E-04
(PID.TID 0000.0001)     ;
(PID.TID 0000.0001) rUnit2mass = /* convert r-units [m] to mass per unit area [kg/m2] */
(PID.TID 0000.0001)                 1.035000000000000E+03
(PID.TID 0000.0001)     ;
(PID.TID 0000.0001) drC =   /* C spacing ( units of r ) */
(PID.TID 0000.0001)                 2.000000000000000E+01,      /* K =  1 */
(PID.TID 0000.0001)                 6.000000000000000E+01,      /* K =  2 */
(PID.TID 0000.0001)                 8.500000000000000E+01,      /* K =  3 */
(PID.TID 0000.0001)                 1.200000000000000E+02,      /* K =  4 */
(PID.TID 0000.0001)                 1.650000000000000E+02,      /* K =  5 */
(PID.TID 0000.0001)                 2.150000000000000E+02,      /* K =  6 */
(PID.TID 0000.0001)                 2.650000000000000E+02,      /* K =  7 */
(PID.TID 0000.0001)                 3.150000000000000E+02,      /* K =  8 */
(PID.TID 0000.0001)                 3.650000000000000E+02,      /* K =  9 */
(PID.TID 0000.0001)                 4.150000000000000E+02,      /* K = 10 */
(PID.TID 0000.0001)                 4.650000000000000E+02,      /* K = 11 */
(PID.TID 0000.0001)                 5.150000000000000E+02,      /* K = 12 */
(PID.TID 0000.0001)                 5.650000000000000E+02,      /* K = 13 */
(PID.TID 0000.0001)                 6.150000000000000E+02,      /* K = 14 */
(PID.TID 0000.0001)                 6.650000000000000E+02       /* K = 15 */
(PID.TID 0000.0001)     ;
(PID.TID 0000.0001) drF =   /* W spacing ( units of r ) */
(PID.TID 0000.0001)                 5.000000000000000E+01,      /* K =  1 */
(PID.TID 0000.0001)                 7.250000000000000E+01,      /* K =  2 */
(PID.TID 0000.0001)                 1.025000000000000E+02,      /* K =  3 */
(PID.TID 0000.0001)                 1.425000000000000E+02,      /* K =  4 */
(PID.TID 0000.0001)                 1.900000000000000E+02,      /* K =  5 */
(PID.TID 0000.0001)                 2.400000000000000E+02,      /* K =  6 */
(PID.TID 0000.0001)                 2.900000000000000E+02,      /* K =  7 */
(PID.TID 0000.0001)                 3.400000000000000E+02,      /* K =  8 */
(PID.TID 0000.0001)                 3.900000000000000E+02,      /* K =  9 */
(PID.TID 0000.0001)                 4.400000000000000E+02,      /* K = 10 */
(PID.TID 0000.0001)                 4.900000000000000E+02,      /* K = 11 */
(PID.TID 0000.0001)                 5.400000000000000E+02,      /* K = 12 */
(PID.TID 0000.0001)                 5.900000000000000E+02,      /* K = 13 */
(PID.TID 0000.0001)                 6.400000000000000E+02,      /* K = 14 */
(PID.TID 0000.0001)                 6.825000000000000E+02       /* K = 15 */
(PID.TID 0000.0001)     ;
(PID.TID 0000.0001) delX =   /* U spacing ( m - cartesian, degrees - spherical ) */
(PID.TID 0000.0001)                 3.000000000000000E+00       /* I =  1 */
(PID.TID 0000.0001)     ;
(PID.TID 0000.0001) delY =   /* V spacing ( m - cartesian, degrees - spherical ) */
(PID.TID 0000.0001)    56 @  3.000000000000000E+00              /* J =  1: 56 */
(PID.TID 0000.0001)     ;
(PID.TID 0000.0001) phiMin =    /* South edge (ignored - cartesian, degrees - spherical ) */
(PID.TID 0000.0001)                -8.400000000000000E+01
(PID.TID 0000.0001)     ;
(PID.TID 0000.0001) thetaMin =    /* West edge ( ignored - cartesian, degrees - spherical ) */
(PID.TID 0000.0001)                 0.000000000000000E+00
(PID.TID 0000.0001)     ;
(PID.TID 0000.0001) rSphere =  /* Radius ( ignored - cartesian, m - spherical ) */
(PID.TID 0000.0001)                 6.370000000000000E+06
(PID.TID 0000.0001)     ;
(PID.TID 0000.0001) deepAtmosphere = /* Deep/Shallow Atmosphere flag (True/False) */
(PID.TID 0000.0001)                   F
(PID.TID 0000.0001)     ;
(PID.TID 0000.0001) xcoord =   /* P-point X coord ( m - cartesian, degrees - spherical ) */
(PID.TID 0000.0001)                 1.500000000000000E+00       /* I =  1 */
(PID.TID 0000.0001)     ;
(PID.TID 0000.0001) ycoord =   /* P-point Y coord ( m - cartesian, degrees - spherical ) */
(PID.TID 0000.0001)                -8.250000000000000E+01,      /* J =  1 */
(PID.TID 0000.0001)                -7.950000000000000E+01,      /* J =  2 */
(PID.TID 0000.0001)                -7.650000000000000E+01,      /* J =  3 */
(PID.TID 0000.0001)                -7.350000000000000E+01,      /* J =  4 */
(PID.TID 0000.0001)                -7.050000000000000E+01,      /* J =  5 */
(PID.TID 0000.0001)                -6.750000000000000E+01,      /* J =  6 */
(PID.TID 0000.0001)                -6.450000000000000E+01,      /* J =  7 */
(PID.TID 0000.0001)                -6.150000000000000E+01,      /* J =  8 */
(PID.TID 0000.0001)                -5.850000000000000E+01,      /* J =  9 */
(PID.TID 0000.0001)                -5.550000000000000E+01,      /* J = 10 */
(PID.TID 0000.0001)                -5.250000000000000E+01,      /* J = 11 */
(PID.TID 0000.0001)                -4.950000000000000E+01,      /* J = 12 */
(PID.TID 0000.0001)                -4.650000000000000E+01,      /* J = 13 */
(PID.TID 0000.0001)                -4.350000000000000E+01,      /* J = 14 */
(PID.TID 0000.0001)                -4.050000000000000E+01,      /* J = 15 */
(PID.TID 0000.0001)                -3.750000000000000E+01,      /* J = 16 */
(PID.TID 0000.0001)                -3.450000000000000E+01,      /* J = 17 */
(PID.TID 0000.0001)                -3.150000000000000E+01,      /* J = 18 */
(PID.TID 0000.0001)                -2.850000000000000E+01,      /* J = 19 */
(PID.TID 0000.0001)                -2.550000000000000E+01,      /* J = 20 */
(PID.TID 0000.0001)                -2.250000000000000E+01,      /* J = 21 */
(PID.TID 0000.0001)                -1.950000000000000E+01,      /* J = 22 */
(PID.TID 0000.0001)                -1.650000000000000E+01,      /* J = 23 */
(PID.TID 0000.0001)                -1.350000000000000E+01,      /* J = 24 */
(PID.TID 0000.0001)                -1.050000000000000E+01,      /* J = 25 */
(PID.TID 0000.0001)                -7.500000000000000E+00,      /* J = 26 */
(PID.TID 0000.0001)                -4.500000000000000E+00,      /* J = 27 */
(PID.TID 0000.0001)                -1.500000000000000E+00,      /* J = 28 */
(PID.TID 0000.0001)                 1.500000000000000E+00,      /* J = 29 */
(PID.TID 0000.0001)                 4.500000000000000E+00,      /* J = 30 */
(PID.TID 0000.0001)                 7.500000000000000E+00,      /* J = 31 */
(PID.TID 0000.0001)                 1.050000000000000E+01,      /* J = 32 */
(PID.TID 0000.0001)                 1.350000000000000E+01,      /* J = 33 */
(PID.TID 0000.0001)                 1.650000000000000E+01,      /* J = 34 */
(PID.TID 0000.0001)                 1.950000000000000E+01,      /* J = 35 */
(PID.TID 0000.0001)                 2.250000000000000E+01,      /* J = 36 */
(PID.TID 0000.0001)                 2.550000000000000E+01,      /* J = 37 */
(PID.TID 0000.0001)                 2.850000000000000E+01,      /* J = 38 */
(PID.TID 0000.0001)                 3.150000000000000E+01,      /* J = 39 */
(PID.TID 0000.0001)                 3.450000000000000E+01,      /* J = 40 */
(PID.TID 0000.0001)                 3.750000000000000E+01,      /* J = 41 */
(PID.TID 0000.0001)                 4.050000000000000E+01,      /* J = 42 */
(PID.TID 0000.0001)                 4.350000000000000E+01,      /* J = 43 */
(PID.TID 0000.0001)                 4.650000000000000E+01,      /* J = 44 */
(PID.TID 0000.0001)                 4.950000000000000E+01,      /* J = 45 */
(PID.TID 0000.0001)                 5.250000000000000E+01,      /* J = 46 */
(PID.TID 0000.0001)                 5.550000000000000E+01,      /* J = 47 */
(PID.TID 0000.0001)                 5.850000000000000E+01,      /* J = 48 */
(PID.TID 0000.0001)                 6.150000000000000E+01,      /* J = 49 */
(PID.TID 0000.0001)                 6.450000000000000E+01,      /* J = 50 */
(PID.TID 0000.0001)                 6.750000000000000E+01,      /* J = 51 */
(PID.TID 0000.0001)                 7.050000000000000E+01,      /* J = 52 */
(PID.TID 0000.0001)                 7.350000000000000E+01,      /* J = 53 */
(PID.TID 0000.0001)                 7.650000000000000E+01,      /* J = 54 */
(PID.TID 0000.0001)                 7.950000000000000E+01,      /* J = 55 */
(PID.TID 0000.0001)                 8.250000000000000E+01       /* J = 56 */
(PID.TID 0000.0001)     ;
(PID.TID 0000.0001) rcoord =   /* P-point R coordinate (  units of r ) */
(PID.TID 0000.0001)                -2.000000000000000E+01,      /* K =  1 */
(PID.TID 0000.0001)                -8.000000000000000E+01,      /* K =  2 */
(PID.TID 0000.0001)                -1.650000000000000E+02,      /* K =  3 */
(PID.TID 0000.0001)                -2.850000000000000E+02,      /* K =  4 */
(PID.TID 0000.0001)                -4.500000000000000E+02,      /* K =  5 */
(PID.TID 0000.0001)                -6.650000000000000E+02,      /* K =  6 */
(PID.TID 0000.0001)                -9.300000000000000E+02,      /* K =  7 */
(PID.TID 0000.0001)                -1.245000000000000E+03,      /* K =  8 */
(PID.TID 0000.0001)                -1.610000000000000E+03,      /* K =  9 */
(PID.TID 0000.0001)                -2.025000000000000E+03,      /* K = 10 */
(PID.TID 0000.0001)                -2.490000000000000E+03,      /* K = 11 */
(PID.TID 0000.0001)                -3.005000000000000E+03,      /* K = 12 */
(PID.TID 0000.0001)                -3.570000000000000E+03,      /* K = 13 */
(PID.TID 0000.0001)                -4.185000000000000E+03,      /* K = 14 */
(PID.TID 0000.0001)                -4.850000000000000E+03       /* K = 15 */
(PID.TID 0000.0001)     ;
(PID.TID 0000.0001) rF =   /* W-Interf. R coordinate (  units of r ) */
(PID.TID 0000.0001)                 0.000000000000000E+00,      /* K =  1 */
(PID.TID 0000.0001)                -5.000000000000000E+01,      /* K =  2 */
(PID.TID 0000.0001)                -1.225000000000000E+02,      /* K =  3 */
(PID.TID 0000.0001)                -2.250000000000000E+02,      /* K =  4 */
(PID.TID 0000.0001)                -3.675000000000000E+02,      /* K =  5 */
(PID.TID 0000.0001)                -5.575000000000000E+02,      /* K =  6 */
(PID.TID 0000.0001)                -7.975000000000000E+02,      /* K =  7 */
(PID.TID 0000.0001)                -1.087500000000000E+03,      /* K =  8 */
(PID.TID 0000.0001)                -1.427500000000000E+03,      /* K =  9 */
(PID.TID 0000.0001)                -1.817500000000000E+03,      /* K = 10 */
(PID.TID 0000.0001)                -2.257500000000000E+03,      /* K = 11 */
(PID.TID 0000.0001)                -2.747500000000000E+03,      /* K = 12 */
(PID.TID 0000.0001)                -3.287500000000000E+03,      /* K = 13 */
(PID.TID 0000.0001)                -3.877500000000000E+03,      /* K = 14 */
(PID.TID 0000.0001)                -4.517500000000000E+03,      /* K = 15 */
(PID.TID 0000.0001)                -5.200000000000000E+03       /* K = 16 */
(PID.TID 0000.0001)     ;
(PID.TID 0000.0001) deepFacC = /* deep-model grid factor @ cell-Center (-) */
(PID.TID 0000.0001)    15 @  1.000000000000000E+00              /* K =  1: 15 */
(PID.TID 0000.0001)     ;
(PID.TID 0000.0001) deepFacF = /* deep-model grid factor @ W-Interface (-) */
(PID.TID 0000.0001)    16 @  1.000000000000000E+00              /* K =  1: 16 */
(PID.TID 0000.0001)     ;
(PID.TID 0000.0001) rVel2wUnit = /* convert units: rVel -> wSpeed (=1 if z-coord)*/
(PID.TID 0000.0001)    16 @  1.000000000000000E+00              /* K =  1: 16 */
(PID.TID 0000.0001)     ;
(PID.TID 0000.0001) wUnit2rVel = /* convert units: wSpeed -> rVel (=1 if z-coord)*/
(PID.TID 0000.0001)    16 @  1.000000000000000E+00              /* K =  1: 16 */
(PID.TID 0000.0001)     ;
(PID.TID 0000.0001) dBdrRef = /* Vertical gradient of reference boyancy [(m/s/r)^2)] */
(PID.TID 0000.0001)                 0.000000000000000E+00,      /* K =  1 */
(PID.TID 0000.0001)                 8.175000000000001E-05,      /* K =  2 */
(PID.TID 0000.0001)                 7.386352941176473E-05,      /* K =  3 */
(PID.TID 0000.0001)                 4.414500000000000E-05,      /* K =  4 */
(PID.TID 0000.0001)                 2.734909090909092E-05,      /* K =  5 */
(PID.TID 0000.0001)                 1.916372093023256E-05,      /* K =  6 */
(PID.TID 0000.0001)                 1.110566037735849E-05,      /* K =  7 */
(PID.TID 0000.0001)                 6.851428571428573E-06,      /* K =  8 */
(PID.TID 0000.0001)                 3.762739726027396E-06,      /* K =  9 */
(PID.TID 0000.0001)                 2.363855421686748E-06,      /* K = 10 */
(PID.TID 0000.0001)                 1.687741935483872E-06,      /* K = 11 */
(PID.TID 0000.0001)                 1.142912621359224E-06,      /* K = 12 */
(PID.TID 0000.0001)                 1.041769911504425E-06,      /* K = 13 */
(PID.TID 0000.0001)                 6.380487804878048E-07,      /* K = 14 */
(PID.TID 0000.0001)                 2.950375939849624E-07       /* K = 15 */
(PID.TID 0000.0001)     ;
(PID.TID 0000.0001) rotateGrid = /* use rotated grid ( True/False ) */
(PID.TID 0000.0001)                   F
(PID.TID 0000.0001)     ;
(PID.TID 0000.0001) phiEuler = /* Euler angle, rotation about original z-coordinate [rad] */
(PID.TID 0000.0001)                 0.000000000000000E+00
(PID.TID 0000.0001)     ;
(PID.TID 0000.0001) thetaEuler = /* Euler angle, rotation about new x-coordinate [rad] */
(PID.TID 0000.0001)                 0.000000000000000E+00
(PID.TID 0000.0001)     ;
(PID.TID 0000.0001) psiEuler = /* Euler angle, rotation about new z-coordinate [rad] */
(PID.TID 0000.0001)                 0.000000000000000E+00
(PID.TID 0000.0001)     ;
(PID.TID 0000.0001) dxF =  /* dxF(:,1,:,1) ( units: m ) */
(PID.TID 0000.0001)                 4.353471677186367E+04       /* I =  1 */
(PID.TID 0000.0001)     ;
(PID.TID 0000.0001) dxF =  /* dxF(1,:,1,:) ( units: m ) */
(PID.TID 0000.0001)                 4.353471677186367E+04,      /* J =  1 */
(PID.TID 0000.0001)                 6.078145583759403E+04,      /* J =  2 */
(PID.TID 0000.0001)                 7.786159715774079E+04,      /* J =  3 */
(PID.TID 0000.0001)                 9.472832525217145E+04,      /* J =  4 */
(PID.TID 0000.0001)                 1.113354095915710E+05,      /* J =  5 */
(PID.TID 0000.0001)                 1.276373313121096E+05,      /* J =  6 */
(PID.TID 0000.0001)                 1.435894079794837E+05,      /* J =  7 */
(PID.TID 0000.0001)                 1.591479160603634E+05,      /* J =  8 */
(PID.TID 0000.0001)                 1.742702107655578E+05,      /* J =  9 */
(PID.TID 0000.0001)                 1.889148429364175E+05,      /* J = 10 */
(PID.TID 0000.0001)                 2.030416726540983E+05,      /* J = 11 */
(PID.TID 0000.0001)                 2.166119792602878E+05,      /* J = 12 */
(PID.TID 0000.0001)                 2.295885674878389E+05,      /* J = 13 */
(PID.TID 0000.0001)                 2.419358694104115E+05,      /* J = 14 */
(PID.TID 0000.0001)                 2.536200419316863E+05,      /* J = 15 */
(PID.TID 0000.0001)                 2.646090595469393E+05,      /* J = 16 */
(PID.TID 0000.0001)                 2.748728021227243E+05,      /* J = 17 */
(PID.TID 0000.0001)                 2.843831374540652E+05,      /* J = 18 */
(PID.TID 0000.0001)                 2.931139983728740E+05,      /* J = 19 */
(PID.TID 0000.0001)                 3.010414541962470E+05,      /* J = 20 */
(PID.TID 0000.0001)                 3.081437763188029E+05,      /* J = 21 */
(PID.TID 0000.0001)                 3.144014977692803E+05,      /* J = 22 */
(PID.TID 0000.0001)                 3.197974665681523E+05,      /* J = 23 */
(PID.TID 0000.0001)                 3.243168927400103E+05,      /* J = 24 */
(PID.TID 0000.0001)                 3.279473888518588E+05,      /* J = 25 */
(PID.TID 0000.0001)                 3.306790039662077E+05,      /* J = 26 */
(PID.TID 0000.0001)                 3.325042509159012E+05,      /* J = 27 */
(PID.TID 0000.0001)     2 @  3.334181268259212E+05,             /* J = 28: 29 */
(PID.TID 0000.0001)                 3.325042509159012E+05,      /* J = 30 */
(PID.TID 0000.0001)                 3.306790039662077E+05,      /* J = 31 */
(PID.TID 0000.0001)                 3.279473888518588E+05,      /* J = 32 */
(PID.TID 0000.0001)                 3.243168927400103E+05,      /* J = 33 */
(PID.TID 0000.0001)                 3.197974665681523E+05,      /* J = 34 */
(PID.TID 0000.0001)                 3.144014977692803E+05,      /* J = 35 */
(PID.TID 0000.0001)                 3.081437763188029E+05,      /* J = 36 */
(PID.TID 0000.0001)                 3.010414541962470E+05,      /* J = 37 */
(PID.TID 0000.0001)                 2.931139983728740E+05,      /* J = 38 */
(PID.TID 0000.0001)                 2.843831374540652E+05,      /* J = 39 */
(PID.TID 0000.0001)                 2.748728021227243E+05,      /* J = 40 */
(PID.TID 0000.0001)                 2.646090595469393E+05,      /* J = 41 */
(PID.TID 0000.0001)                 2.536200419316863E+05,      /* J = 42 */
(PID.TID 0000.0001)                 2.419358694104115E+05,      /* J = 43 */
(PID.TID 0000.0001)                 2.295885674878389E+05,      /* J = 44 */
(PID.TID 0000.0001)                 2.166119792602878E+05,      /* J = 45 */
(PID.TID 0000.0001)                 2.030416726540983E+05,      /* J = 46 */
(PID.TID 0000.0001)                 1.889148429364175E+05,      /* J = 47 */
(PID.TID 0000.0001)                 1.742702107655578E+05,      /* J = 48 */
(PID.TID 0000.0001)                 1.591479160603634E+05,      /* J = 49 */
(PID.TID 0000.0001)                 1.435894079794837E+05,      /* J = 50 */
(PID.TID 0000.0001)                 1.276373313121096E+05,      /* J = 51 */
(PID.TID 0000.0001)                 1.113354095915710E+05,      /* J = 52 */
(PID.TID 0000.0001)                 9.472832525217145E+04,      /* J = 53 */
(PID.TID 0000.0001)                 7.786159715774079E+04,      /* J = 54 */
(PID.TID 0000.0001)                 6.078145583759403E+04,      /* J = 55 */
(PID.TID 0000.0001)                 4.353471677186367E+04       /* J = 56 */
(PID.TID 0000.0001)     ;
(PID.TID 0000.0001) dyF =  /* dyF(:,1,:,1) ( units: m ) */
(PID.TID 0000.0001)                 3.335324200561164E+05       /* I =  1 */
(PID.TID 0000.0001)     ;
(PID.TID 0000.0001) dyF =  /* dyF(1,:,1,:) ( units: m ) */
(PID.TID 0000.0001)    56 @  3.335324200561164E+05              /* J =  1: 56 */
(PID.TID 0000.0001)     ;
(PID.TID 0000.0001) dxG =  /* dxG(:,1,:,1) ( units: m ) */
(PID.TID 0000.0001)                 3.486363131840732E+04       /* I =  1 */
(PID.TID 0000.0001)     ;
(PID.TID 0000.0001) dxG =  /* dxG(1,:,1,:) ( units: m ) */
(PID.TID 0000.0001)                 3.486363131840732E+04,      /* J =  1 */
(PID.TID 0000.0001)                 5.217596570505216E+04,      /* J =  2 */
(PID.TID 0000.0001)                 6.934528939640634E+04,      /* J =  3 */
(PID.TID 0000.0001)                 8.632454246965688E+04,      /* J =  4 */
(PID.TID 0000.0001)                 1.030671859723435E+05,      /* J =  5 */
(PID.TID 0000.0001)                 1.195273294823923E+05,      /* J =  6 */
(PID.TID 0000.0001)                 1.356598568905725E+05,      /* J =  7 */
(PID.TID 0000.0001)                 1.514205500606167E+05,      /* J =  8 */
(PID.TID 0000.0001)                 1.667662100280583E+05,      /* J =  9 */
(PID.TID 0000.0001)                 1.816547754055899E+05,      /* J = 10 */
(PID.TID 0000.0001)                 1.960454376704035E+05,      /* J = 11 */
(PID.TID 0000.0001)                 2.098987530175138E+05,      /* J = 12 */
(PID.TID 0000.0001)                 2.231767504724866E+05,      /* J = 13 */
(PID.TID 0000.0001)                 2.358430359672399E+05,      /* J = 14 */
(PID.TID 0000.0001)                 2.478628920936556E+05,      /* J = 15 */
(PID.TID 0000.0001)                 2.592033732615808E+05,      /* J = 16 */
(PID.TID 0000.0001)                 2.698333960004017E+05,      /* J = 17 */
(PID.TID 0000.0001)                 2.797238241566748E+05,      /* J = 18 */
(PID.TID 0000.0001)                 2.888475487542992E+05,      /* J = 19 */
(PID.TID 0000.0001)                 2.971795622983349E+05,      /* J = 20 */
(PID.TID 0000.0001)                 3.046970273188090E+05,      /* J = 21 */
(PID.TID 0000.0001)                 3.113793389666330E+05,      /* J = 22 */
(PID.TID 0000.0001)                 3.172081814900618E+05,      /* J = 23 */
(PID.TID 0000.0001)                 3.221675784368968E+05,      /* J = 24 */
(PID.TID 0000.0001)                 3.262439364448300E+05,      /* J = 25 */
(PID.TID 0000.0001)                 3.294260824999061E+05,      /* J = 26 */
(PID.TID 0000.0001)                 3.317052945609759E+05,      /* J = 27 */
(PID.TID 0000.0001)                 3.330753254662066E+05,      /* J = 28 */
(PID.TID 0000.0001)                 3.335324200561164E+05,      /* J = 29 */
(PID.TID 0000.0001)                 3.330753254662066E+05,      /* J = 30 */
(PID.TID 0000.0001)                 3.317052945609759E+05,      /* J = 31 */
(PID.TID 0000.0001)                 3.294260824999061E+05,      /* J = 32 */
(PID.TID 0000.0001)                 3.262439364448300E+05,      /* J = 33 */
(PID.TID 0000.0001)                 3.221675784368968E+05,      /* J = 34 */
(PID.TID 0000.0001)                 3.172081814900618E+05,      /* J = 35 */
(PID.TID 0000.0001)                 3.113793389666330E+05,      /* J = 36 */
(PID.TID 0000.0001)                 3.046970273188090E+05,      /* J = 37 */
(PID.TID 0000.0001)                 2.971795622983349E+05,      /* J = 38 */
(PID.TID 0000.0001)                 2.888475487542992E+05,      /* J = 39 */
(PID.TID 0000.0001)                 2.797238241566748E+05,      /* J = 40 */
(PID.TID 0000.0001)                 2.698333960004017E+05,      /* J = 41 */
(PID.TID 0000.0001)                 2.592033732615808E+05,      /* J = 42 */
(PID.TID 0000.0001)                 2.478628920936556E+05,      /* J = 43 */
(PID.TID 0000.0001)                 2.358430359672399E+05,      /* J = 44 */
(PID.TID 0000.0001)                 2.231767504724866E+05,      /* J = 45 */
(PID.TID 0000.0001)                 2.098987530175138E+05,      /* J = 46 */
(PID.TID 0000.0001)                 1.960454376704035E+05,      /* J = 47 */
(PID.TID 0000.0001)                 1.816547754055899E+05,      /* J = 48 */
(PID.TID 0000.0001)                 1.667662100280583E+05,      /* J = 49 */
(PID.TID 0000.0001)                 1.514205500606167E+05,      /* J = 50 */
(PID.TID 0000.0001)                 1.356598568905725E+05,      /* J = 51 */
(PID.TID 0000.0001)                 1.195273294823923E+05,      /* J = 52 */
(PID.TID 0000.0001)                 1.030671859723435E+05,      /* J = 53 */
(PID.TID 0000.0001)                 8.632454246965688E+04,      /* J = 54 */
(PID.TID 0000.0001)                 6.934528939640634E+04,      /* J = 55 */
(PID.TID 0000.0001)                 5.217596570505216E+04       /* J = 56 */
(PID.TID 0000.0001)     ;
(PID.TID 0000.0001) dyG =  /* dyG(:,1,:,1) ( units: m ) */
(PID.TID 0000.0001)                 3.335324200561164E+05       /* I =  1 */
(PID.TID 0000.0001)     ;
(PID.TID 0000.0001) dyG =  /* dyG(1,:,1,:) ( units: m ) */
(PID.TID 0000.0001)    56 @  3.335324200561164E+05              /* J =  1: 56 */
(PID.TID 0000.0001)     ;
(PID.TID 0000.0001) dxC =  /* dxC(:,1,:,1) ( units: m ) */
(PID.TID 0000.0001)                 4.353471677186367E+04       /* I =  1 */
(PID.TID 0000.0001)     ;
(PID.TID 0000.0001) dxC =  /* dxC(1,:,1,:) ( units: m ) */
(PID.TID 0000.0001)                 4.353471677186367E+04,      /* J =  1 */
(PID.TID 0000.0001)                 6.078145583759403E+04,      /* J =  2 */
(PID.TID 0000.0001)                 7.786159715774079E+04,      /* J =  3 */
(PID.TID 0000.0001)                 9.472832525217145E+04,      /* J =  4 */
(PID.TID 0000.0001)                 1.113354095915710E+05,      /* J =  5 */
(PID.TID 0000.0001)                 1.276373313121096E+05,      /* J =  6 */
(PID.TID 0000.0001)                 1.435894079794837E+05,      /* J =  7 */
(PID.TID 0000.0001)                 1.591479160603634E+05,      /* J =  8 */
(PID.TID 0000.0001)                 1.742702107655578E+05,      /* J =  9 */
(PID.TID 0000.0001)                 1.889148429364175E+05,      /* J = 10 */
(PID.TID 0000.0001)                 2.030416726540983E+05,      /* J = 11 */
(PID.TID 0000.0001)                 2.166119792602878E+05,      /* J = 12 */
(PID.TID 0000.0001)                 2.295885674878389E+05,      /* J = 13 */
(PID.TID 0000.0001)                 2.419358694104115E+05,      /* J = 14 */
(PID.TID 0000.0001)                 2.536200419316863E+05,      /* J = 15 */
(PID.TID 0000.0001)                 2.646090595469393E+05,      /* J = 16 */
(PID.TID 0000.0001)                 2.748728021227243E+05,      /* J = 17 */
(PID.TID 0000.0001)                 2.843831374540652E+05,      /* J = 18 */
(PID.TID 0000.0001)                 2.931139983728740E+05,      /* J = 19 */
(PID.TID 0000.0001)                 3.010414541962470E+05,      /* J = 20 */
(PID.TID 0000.0001)                 3.081437763188029E+05,      /* J = 21 */
(PID.TID 0000.0001)                 3.144014977692803E+05,      /* J = 22 */
(PID.TID 0000.0001)                 3.197974665681523E+05,      /* J = 23 */
(PID.TID 0000.0001)                 3.243168927400103E+05,      /* J = 24 */
(PID.TID 0000.0001)                 3.279473888518588E+05,      /* J = 25 */
(PID.TID 0000.0001)                 3.306790039662077E+05,      /* J = 26 */
(PID.TID 0000.0001)                 3.325042509159012E+05,      /* J = 27 */
(PID.TID 0000.0001)     2 @  3.334181268259212E+05,             /* J = 28: 29 */
(PID.TID 0000.0001)                 3.325042509159012E+05,      /* J = 30 */
(PID.TID 0000.0001)                 3.306790039662077E+05,      /* J = 31 */
(PID.TID 0000.0001)                 3.279473888518588E+05,      /* J = 32 */
(PID.TID 0000.0001)                 3.243168927400103E+05,      /* J = 33 */
(PID.TID 0000.0001)                 3.197974665681523E+05,      /* J = 34 */
(PID.TID 0000.0001)                 3.144014977692803E+05,      /* J = 35 */
(PID.TID 0000.0001)                 3.081437763188029E+05,      /* J = 36 */
(PID.TID 0000.0001)                 3.010414541962470E+05,      /* J = 37 */
(PID.TID 0000.0001)                 2.931139983728740E+05,      /* J = 38 */
(PID.TID 0000.0001)                 2.843831374540652E+05,      /* J = 39 */
(PID.TID 0000.0001)                 2.748728021227243E+05,      /* J = 40 */
(PID.TID 0000.0001)                 2.646090595469393E+05,      /* J = 41 */
(PID.TID 0000.0001)                 2.536200419316863E+05,      /* J = 42 */
(PID.TID 0000.0001)                 2.419358694104115E+05,      /* J = 43 */
(PID.TID 0000.0001)                 2.295885674878389E+05,      /* J = 44 */
(PID.TID 0000.0001)                 2.166119792602878E+05,      /* J = 45 */
(PID.TID 0000.0001)                 2.030416726540983E+05,      /* J = 46 */
(PID.TID 0000.0001)                 1.889148429364175E+05,      /* J = 47 */
(PID.TID 0000.0001)                 1.742702107655578E+05,      /* J = 48 */
(PID.TID 0000.0001)                 1.591479160603634E+05,      /* J = 49 */
(PID.TID 0000.0001)                 1.435894079794837E+05,      /* J = 50 */
(PID.TID 0000.0001)                 1.276373313121096E+05,      /* J = 51 */
(PID.TID 0000.0001)                 1.113354095915710E+05,      /* J = 52 */
(PID.TID 0000.0001)                 9.472832525217145E+04,      /* J = 53 */
(PID.TID 0000.0001)                 7.786159715774079E+04,      /* J = 54 */
(PID.TID 0000.0001)                 6.078145583759403E+04,      /* J = 55 */
(PID.TID 0000.0001)                 4.353471677186367E+04       /* J = 56 */
(PID.TID 0000.0001)     ;
(PID.TID 0000.0001) dyC =  /* dyC(:,1,:,1) ( units: m ) */
(PID.TID 0000.0001)                 3.335324200561164E+05       /* I =  1 */
(PID.TID 0000.0001)     ;
(PID.TID 0000.0001) dyC =  /* dyC(1,:,1,:) ( units: m ) */
(PID.TID 0000.0001)    56 @  3.335324200561164E+05              /* J =  1: 56 */
(PID.TID 0000.0001)     ;
(PID.TID 0000.0001) dxV =  /* dxV(:,1,:,1) ( units: m ) */
(PID.TID 0000.0001)                 3.486363131840732E+04       /* I =  1 */
(PID.TID 0000.0001)     ;
(PID.TID 0000.0001) dxV =  /* dxV(1,:,1,:) ( units: m ) */
(PID.TID 0000.0001)                 3.486363131840732E+04,      /* J =  1 */
(PID.TID 0000.0001)                 5.217596570505216E+04,      /* J =  2 */
(PID.TID 0000.0001)                 6.934528939640634E+04,      /* J =  3 */
(PID.TID 0000.0001)                 8.632454246965688E+04,      /* J =  4 */
(PID.TID 0000.0001)                 1.030671859723435E+05,      /* J =  5 */
(PID.TID 0000.0001)                 1.195273294823923E+05,      /* J =  6 */
(PID.TID 0000.0001)                 1.356598568905725E+05,      /* J =  7 */
(PID.TID 0000.0001)                 1.514205500606167E+05,      /* J =  8 */
(PID.TID 0000.0001)                 1.667662100280583E+05,      /* J =  9 */
(PID.TID 0000.0001)                 1.816547754055899E+05,      /* J = 10 */
(PID.TID 0000.0001)                 1.960454376704035E+05,      /* J = 11 */
(PID.TID 0000.0001)                 2.098987530175138E+05,      /* J = 12 */
(PID.TID 0000.0001)                 2.231767504724866E+05,      /* J = 13 */
(PID.TID 0000.0001)                 2.358430359672399E+05,      /* J = 14 */
(PID.TID 0000.0001)                 2.478628920936556E+05,      /* J = 15 */
(PID.TID 0000.0001)                 2.592033732615808E+05,      /* J = 16 */
(PID.TID 0000.0001)                 2.698333960004017E+05,      /* J = 17 */
(PID.TID 0000.0001)                 2.797238241566748E+05,      /* J = 18 */
(PID.TID 0000.0001)                 2.888475487542992E+05,      /* J = 19 */
(PID.TID 0000.0001)                 2.971795622983349E+05,      /* J = 20 */
(PID.TID 0000.0001)                 3.046970273188090E+05,      /* J = 21 */
(PID.TID 0000.0001)                 3.113793389666330E+05,      /* J = 22 */
(PID.TID 0000.0001)                 3.172081814900618E+05,      /* J = 23 */
(PID.TID 0000.0001)                 3.221675784368968E+05,      /* J = 24 */
(PID.TID 0000.0001)                 3.262439364448300E+05,      /* J = 25 */
(PID.TID 0000.0001)                 3.294260824999061E+05,      /* J = 26 */
(PID.TID 0000.0001)                 3.317052945609759E+05,      /* J = 27 */
(PID.TID 0000.0001)                 3.330753254662066E+05,      /* J = 28 */
(PID.TID 0000.0001)                 3.335324200561164E+05,      /* J = 29 */
(PID.TID 0000.0001)                 3.330753254662066E+05,      /* J = 30 */
(PID.TID 0000.0001)                 3.317052945609759E+05,      /* J = 31 */
(PID.TID 0000.0001)                 3.294260824999061E+05,      /* J = 32 */
(PID.TID 0000.0001)                 3.262439364448300E+05,      /* J = 33 */
(PID.TID 0000.0001)                 3.221675784368968E+05,      /* J = 34 */
(PID.TID 0000.0001)                 3.172081814900618E+05,      /* J = 35 */
(PID.TID 0000.0001)                 3.113793389666330E+05,      /* J = 36 */
(PID.TID 0000.0001)                 3.046970273188090E+05,      /* J = 37 */
(PID.TID 0000.0001)                 2.971795622983349E+05,      /* J = 38 */
(PID.TID 0000.0001)                 2.888475487542992E+05,      /* J = 39 */
(PID.TID 0000.0001)                 2.797238241566748E+05,      /* J = 40 */
(PID.TID 0000.0001)                 2.698333960004017E+05,      /* J = 41 */
(PID.TID 0000.0001)                 2.592033732615808E+05,      /* J = 42 */
(PID.TID 0000.0001)                 2.478628920936556E+05,      /* J = 43 */
(PID.TID 0000.0001)                 2.358430359672399E+05,      /* J = 44 */
(PID.TID 0000.0001)                 2.231767504724866E+05,      /* J = 45 */
(PID.TID 0000.0001)                 2.098987530175138E+05,      /* J = 46 */
(PID.TID 0000.0001)                 1.960454376704035E+05,      /* J = 47 */
(PID.TID 0000.0001)                 1.816547754055899E+05,      /* J = 48 */
(PID.TID 0000.0001)                 1.667662100280583E+05,      /* J = 49 */
(PID.TID 0000.0001)                 1.514205500606167E+05,      /* J = 50 */
(PID.TID 0000.0001)                 1.356598568905725E+05,      /* J = 51 */
(PID.TID 0000.0001)                 1.195273294823923E+05,      /* J = 52 */
(PID.TID 0000.0001)                 1.030671859723435E+05,      /* J = 53 */
(PID.TID 0000.0001)                 8.632454246965688E+04,      /* J = 54 */
(PID.TID 0000.0001)                 6.934528939640634E+04,      /* J = 55 */
(PID.TID 0000.0001)                 5.217596570505216E+04       /* J = 56 */
(PID.TID 0000.0001)     ;
(PID.TID 0000.0001) dyU =  /* dyU(:,1,:,1) ( units: m ) */
(PID.TID 0000.0001)                 3.335324200561164E+05       /* I =  1 */
(PID.TID 0000.0001)     ;
(PID.TID 0000.0001) dyU =  /* dyU(1,:,1,:) ( units: m ) */
(PID.TID 0000.0001)    56 @  3.335324200561164E+05              /* J =  1: 56 */
(PID.TID 0000.0001)     ;
(PID.TID 0000.0001) rA  =  /* rA (:,1,:,1) ( units: m^2 ) */
(PID.TID 0000.0001)                 1.451858082901536E+10       /* I =  1 */
(PID.TID 0000.0001)     ;
(PID.TID 0000.0001) rA  =  /* rA (1,:,1,:) ( units: m^2 ) */
(PID.TID 0000.0001)                 1.451858082901536E+10,      /* J =  1 */
(PID.TID 0000.0001)                 2.027027037083401E+10,      /* J =  2 */
(PID.TID 0000.0001)                 2.596640051053460E+10,      /* J =  3 */
(PID.TID 0000.0001)                 3.159135855133891E+10,      /* J =  4 */
(PID.TID 0000.0001)                 3.712972687424187E+10,      /* J =  5 */
(PID.TID 0000.0001)                 4.256632519663855E+10,      /* J =  6 */
(PID.TID 0000.0001)                 4.788625218042016E+10,      /* J =  7 */
(PID.TID 0000.0001)                 5.307492627550761E+10,      /* J =  8 */
(PID.TID 0000.0001)                 5.811812568686684E+10,      /* J =  9 */
(PID.TID 0000.0001)                 6.300202735545998E+10,      /* J = 10 */
(PID.TID 0000.0001)                 6.771324484628893E+10,      /* J = 11 */
(PID.TID 0000.0001)                 7.223886503968413E+10,      /* J = 12 */
(PID.TID 0000.0001)                 7.656648352526761E+10,      /* J = 13 */
(PID.TID 0000.0001)                 8.068423860157887E+10,      /* J = 14 */
(PID.TID 0000.0001)                 8.458084378817659E+10,      /* J = 15 */
(PID.TID 0000.0001)                 8.824561876109258E+10,      /* J = 16 */
(PID.TID 0000.0001)                 9.166851862686266E+10,      /* J = 17 */
(PID.TID 0000.0001)                 9.484016145487706E+10,      /* J = 18 */
(PID.TID 0000.0001)                 9.775185399260217E+10,      /* J = 19 */
(PID.TID 0000.0001)                 1.003956154931817E+11,      /* J = 20 */
(PID.TID 0000.0001)                 1.027641995901083E+11,      /* J = 21 */
(PID.TID 0000.0001)                 1.048511141590102E+11,      /* J = 22 */
(PID.TID 0000.0001)                 1.066506391121138E+11,      /* J = 23 */
(PID.TID 0000.0001)                 1.081578420766062E+11,      /* J = 24 */
(PID.TID 0000.0001)                 1.093685919139261E+11,      /* J = 25 */
(PID.TID 0000.0001)                 1.102795700429274E+11,      /* J = 26 */
(PID.TID 0000.0001)                 1.108882795358801E+11,      /* J = 27 */
(PID.TID 0000.0001)     2 @  1.111930519623746E+11,             /* J = 28: 29 */
(PID.TID 0000.0001)                 1.108882795358801E+11,      /* J = 30 */
(PID.TID 0000.0001)                 1.102795700429274E+11,      /* J = 31 */
(PID.TID 0000.0001)                 1.093685919139261E+11,      /* J = 32 */
(PID.TID 0000.0001)                 1.081578420766062E+11,      /* J = 33 */
(PID.TID 0000.0001)                 1.066506391121138E+11,      /* J = 34 */
(PID.TID 0000.0001)                 1.048511141590102E+11,      /* J = 35 */
(PID.TID 0000.0001)                 1.027641995901083E+11,      /* J = 36 */
(PID.TID 0000.0001)                 1.003956154931817E+11,      /* J = 37 */
(PID.TID 0000.0001)                 9.775185399260217E+10,      /* J = 38 */
(PID.TID 0000.0001)                 9.484016145487706E+10,      /* J = 39 */
(PID.TID 0000.0001)                 9.166851862686266E+10,      /* J = 40 */
(PID.TID 0000.0001)                 8.824561876109258E+10,      /* J = 41 */
(PID.TID 0000.0001)                 8.458084378817659E+10,      /* J = 42 */
(PID.TID 0000.0001)                 8.068423860157887E+10,      /* J = 43 */
(PID.TID 0000.0001)                 7.656648352526761E+10,      /* J = 44 */
(PID.TID 0000.0001)                 7.223886503968413E+10,      /* J = 45 */
(PID.TID 0000.0001)                 6.771324484628893E+10,      /* J = 46 */
(PID.TID 0000.0001)                 6.300202735545998E+10,      /* J = 47 */
(PID.TID 0000.0001)                 5.811812568686684E+10,      /* J = 48 */
(PID.TID 0000.0001)                 5.307492627550761E+10,      /* J = 49 */
(PID.TID 0000.0001)                 4.788625218042016E+10,      /* J = 50 */
(PID.TID 0000.0001)                 4.256632519663855E+10,      /* J = 51 */
(PID.TID 0000.0001)                 3.712972687424187E+10,      /* J = 52 */
(PID.TID 0000.0001)                 3.159135855133891E+10,      /* J = 53 */
(PID.TID 0000.0001)                 2.596640051053460E+10,      /* J = 54 */
(PID.TID 0000.0001)                 2.027027037083401E+10,      /* J = 55 */
(PID.TID 0000.0001)                 1.451858082901536E+10       /* J = 56 */
(PID.TID 0000.0001)     ;
(PID.TID 0000.0001) rAw =  /* rAw(:,1,:,1) ( units: m^2 ) */
(PID.TID 0000.0001)                 1.451858082901536E+10       /* I =  1 */
(PID.TID 0000.0001)     ;
(PID.TID 0000.0001) rAw =  /* rAw(1,:,1,:) ( units: m^2 ) */
(PID.TID 0000.0001)                 1.451858082901536E+10,      /* J =  1 */
(PID.TID 0000.0001)                 2.027027037083401E+10,      /* J =  2 */
(PID.TID 0000.0001)                 2.596640051053460E+10,      /* J =  3 */
(PID.TID 0000.0001)                 3.159135855133891E+10,      /* J =  4 */
(PID.TID 0000.0001)                 3.712972687424187E+10,      /* J =  5 */
(PID.TID 0000.0001)                 4.256632519663855E+10,      /* J =  6 */
(PID.TID 0000.0001)                 4.788625218042016E+10,      /* J =  7 */
(PID.TID 0000.0001)                 5.307492627550761E+10,      /* J =  8 */
(PID.TID 0000.0001)                 5.811812568686684E+10,      /* J =  9 */
(PID.TID 0000.0001)                 6.300202735545998E+10,      /* J = 10 */
(PID.TID 0000.0001)                 6.771324484628893E+10,      /* J = 11 */
(PID.TID 0000.0001)                 7.223886503968413E+10,      /* J = 12 */
(PID.TID 0000.0001)                 7.656648352526761E+10,      /* J = 13 */
(PID.TID 0000.0001)                 8.068423860157887E+10,      /* J = 14 */
(PID.TID 0000.0001)                 8.458084378817659E+10,      /* J = 15 */
(PID.TID 0000.0001)                 8.824561876109258E+10,      /* J = 16 */
(PID.TID 0000.0001)                 9.166851862686266E+10,      /* J = 17 */
(PID.TID 0000.0001)                 9.484016145487706E+10,      /* J = 18 */
(PID.TID 0000.0001)                 9.775185399260217E+10,      /* J = 19 */
(PID.TID 0000.0001)                 1.003956154931817E+11,      /* J = 20 */
(PID.TID 0000.0001)                 1.027641995901083E+11,      /* J = 21 */
(PID.TID 0000.0001)                 1.048511141590102E+11,      /* J = 22 */
(PID.TID 0000.0001)                 1.066506391121138E+11,      /* J = 23 */
(PID.TID 0000.0001)                 1.081578420766062E+11,      /* J = 24 */
(PID.TID 0000.0001)                 1.093685919139261E+11,      /* J = 25 */
(PID.TID 0000.0001)                 1.102795700429274E+11,      /* J = 26 */
(PID.TID 0000.0001)                 1.108882795358801E+11,      /* J = 27 */
(PID.TID 0000.0001)     2 @  1.111930519623746E+11,             /* J = 28: 29 */
(PID.TID 0000.0001)                 1.108882795358801E+11,      /* J = 30 */
(PID.TID 0000.0001)                 1.102795700429274E+11,      /* J = 31 */
(PID.TID 0000.0001)                 1.093685919139261E+11,      /* J = 32 */
(PID.TID 0000.0001)                 1.081578420766062E+11,      /* J = 33 */
(PID.TID 0000.0001)                 1.066506391121138E+11,      /* J = 34 */
(PID.TID 0000.0001)                 1.048511141590102E+11,      /* J = 35 */
(PID.TID 0000.0001)                 1.027641995901083E+11,      /* J = 36 */
(PID.TID 0000.0001)                 1.003956154931817E+11,      /* J = 37 */
(PID.TID 0000.0001)                 9.775185399260217E+10,      /* J = 38 */
(PID.TID 0000.0001)                 9.484016145487706E+10,      /* J = 39 */
(PID.TID 0000.0001)                 9.166851862686266E+10,      /* J = 40 */
(PID.TID 0000.0001)                 8.824561876109258E+10,      /* J = 41 */
(PID.TID 0000.0001)                 8.458084378817659E+10,      /* J = 42 */
(PID.TID 0000.0001)                 8.068423860157887E+10,      /* J = 43 */
(PID.TID 0000.0001)                 7.656648352526761E+10,      /* J = 44 */
(PID.TID 0000.0001)                 7.223886503968413E+10,      /* J = 45 */
(PID.TID 0000.0001)                 6.771324484628893E+10,      /* J = 46 */
(PID.TID 0000.0001)                 6.300202735545998E+10,      /* J = 47 */
(PID.TID 0000.0001)                 5.811812568686684E+10,      /* J = 48 */
(PID.TID 0000.0001)                 5.307492627550761E+10,      /* J = 49 */
(PID.TID 0000.0001)                 4.788625218042016E+10,      /* J = 50 */
(PID.TID 0000.0001)                 4.256632519663855E+10,      /* J = 51 */
(PID.TID 0000.0001)                 3.712972687424187E+10,      /* J = 52 */
(PID.TID 0000.0001)                 3.159135855133891E+10,      /* J = 53 */
(PID.TID 0000.0001)                 2.596640051053460E+10,      /* J = 54 */
(PID.TID 0000.0001)                 2.027027037083401E+10,      /* J = 55 */
(PID.TID 0000.0001)                 1.451858082901536E+10       /* J = 56 */
(PID.TID 0000.0001)     ;
(PID.TID 0000.0001) rAs =  /* rAs(:,1,:,1) ( units: m^2 ) */
(PID.TID 0000.0001)                 1.162682306954695E+10       /* I =  1 */
(PID.TID 0000.0001)     ;
(PID.TID 0000.0001) rAs =  /* rAs(1,:,1,:) ( units: m^2 ) */
(PID.TID 0000.0001)                 1.162682306954695E+10,      /* J =  1 */
(PID.TID 0000.0001)                 1.740038827840316E+10,      /* J =  2 */
(PID.TID 0000.0001)                 2.312626023247488E+10,      /* J =  3 */
(PID.TID 0000.0001)                 2.878874471473547E+10,      /* J =  4 */
(PID.TID 0000.0001)                 3.437232124881438E+10,      /* J =  5 */
(PID.TID 0000.0001)                 3.986168563954120E+10,      /* J =  6 */
(PID.TID 0000.0001)                 4.524179192068169E+10,      /* J =  7 */
(PID.TID 0000.0001)                 5.049789359488558E+10,      /* J =  8 */
(PID.TID 0000.0001)                 5.561558405281213E+10,      /* J =  9 */
(PID.TID 0000.0001)                 6.058083606064116E+10,      /* J = 10 */
(PID.TID 0000.0001)                 6.538004020775079E+10,      /* J = 11 */
(PID.TID 0000.0001)                 7.000004220916154E+10,      /* J = 12 */
(PID.TID 0000.0001)                 7.442817896052029E+10,      /* J = 13 */
(PID.TID 0000.0001)                 7.865231324678772E+10,      /* J = 14 */
(PID.TID 0000.0001)                 8.266086700950050E+10,      /* J = 15 */
(PID.TID 0000.0001)                 8.644285308142711E+10,      /* J = 16 */
(PID.TID 0000.0001)                 8.998790530162651E+10,      /* J = 17 */
(PID.TID 0000.0001)                 9.328630692837677E+10,      /* J = 18 */
(PID.TID 0000.0001)                 9.632901727208771E+10,      /* J = 19 */
(PID.TID 0000.0001)                 9.910769647520410E+10,      /* J = 20 */
(PID.TID 0000.0001)                 1.016147283711733E+11,      /* J = 21 */
(PID.TID 0000.0001)                 1.038432413598305E+11,      /* J = 22 */
(PID.TID 0000.0001)                 1.057871272419753E+11,      /* J = 23 */
(PID.TID 0000.0001)                 1.074410579615233E+11,      /* J = 24 */
(PID.TID 0000.0001)                 1.088005002093347E+11,      /* J = 25 */
(PID.TID 0000.0001)                 1.098617278487027E+11,      /* J = 26 */
(PID.TID 0000.0001)                 1.106218321284322E+11,      /* J = 27 */
(PID.TID 0000.0001)                 1.110787296555271E+11,      /* J = 28 */
(PID.TID 0000.0001)                 1.112311681056240E+11,      /* J = 29 */
(PID.TID 0000.0001)                 1.110787296555271E+11,      /* J = 30 */
(PID.TID 0000.0001)                 1.106218321284322E+11,      /* J = 31 */
(PID.TID 0000.0001)                 1.098617278487027E+11,      /* J = 32 */
(PID.TID 0000.0001)                 1.088005002093347E+11,      /* J = 33 */
(PID.TID 0000.0001)                 1.074410579615233E+11,      /* J = 34 */
(PID.TID 0000.0001)                 1.057871272419753E+11,      /* J = 35 */
(PID.TID 0000.0001)                 1.038432413598305E+11,      /* J = 36 */
(PID.TID 0000.0001)                 1.016147283711733E+11,      /* J = 37 */
(PID.TID 0000.0001)                 9.910769647520410E+10,      /* J = 38 */
(PID.TID 0000.0001)                 9.632901727208771E+10,      /* J = 39 */
(PID.TID 0000.0001)                 9.328630692837677E+10,      /* J = 40 */
(PID.TID 0000.0001)                 8.998790530162651E+10,      /* J = 41 */
(PID.TID 0000.0001)                 8.644285308142711E+10,      /* J = 42 */
(PID.TID 0000.0001)                 8.266086700950050E+10,      /* J = 43 */
(PID.TID 0000.0001)                 7.865231324678772E+10,      /* J = 44 */
(PID.TID 0000.0001)                 7.442817896052029E+10,      /* J = 45 */
(PID.TID 0000.0001)                 7.000004220916154E+10,      /* J = 46 */
(PID.TID 0000.0001)                 6.538004020775079E+10,      /* J = 47 */
(PID.TID 0000.0001)                 6.058083606064116E+10,      /* J = 48 */
(PID.TID 0000.0001)                 5.561558405281213E+10,      /* J = 49 */
(PID.TID 0000.0001)                 5.049789359488558E+10,      /* J = 50 */
(PID.TID 0000.0001)                 4.524179192068169E+10,      /* J = 51 */
(PID.TID 0000.0001)                 3.986168563954120E+10,      /* J = 52 */
(PID.TID 0000.0001)                 3.437232124881438E+10,      /* J = 53 */
(PID.TID 0000.0001)                 2.878874471473547E+10,      /* J = 54 */
(PID.TID 0000.0001)                 2.312626023247488E+10,      /* J = 55 */
(PID.TID 0000.0001)                 1.740038827840316E+10       /* J = 56 */
(PID.TID 0000.0001)     ;
(PID.TID 0000.0001) globalArea = /* Integrated horizontal Area (m^2) */
(PID.TID 0000.0001)                 4.196888291048803E+12
(PID.TID 0000.0001)     ;
(PID.TID 0000.0001) // =======================================================
(PID.TID 0000.0001) // End of Model config. summary
(PID.TID 0000.0001) // =======================================================
(PID.TID 0000.0001) 
(PID.TID 0000.0001) == Packages configuration : Check & print summary ==
(PID.TID 0000.0001) 
(PID.TID 0000.0001) GAD_CHECK: #define ALLOW_GENERIC_ADVDIFF
(PID.TID 0000.0001) GMREDI_CHECK: #define GMREDI
(PID.TID 0000.0001) GM_AdvForm =     /* if FALSE => use SkewFlux Form */
(PID.TID 0000.0001)                   T
(PID.TID 0000.0001)     ;
(PID.TID 0000.0001) GM_InMomAsStress = /* if TRUE => apply as Eddy Stress */
(PID.TID 0000.0001)                   F
(PID.TID 0000.0001)     ;
(PID.TID 0000.0001) GM_AdvSeparate = /* Calc Bolus & Euler Adv. separately */
(PID.TID 0000.0001)                   F
(PID.TID 0000.0001)     ;
(PID.TID 0000.0001) GM_ExtraDiag =   /* Tensor Extra Diag (line 1&2) non 0 */
(PID.TID 0000.0001)                   T
(PID.TID 0000.0001)     ;
(PID.TID 0000.0001) GM_isopycK =    /* Background Isopyc. Diffusivity [m^2/s] */
(PID.TID 0000.0001)                 1.000000000000000E+01
(PID.TID 0000.0001)     ;
(PID.TID 0000.0001) GM_skewflx*K =  /* Background GM_SkewFlx Diffusivity [m^2/s] */
(PID.TID 0000.0001)                 0.000000000000000E+00
(PID.TID 0000.0001)     ;
(PID.TID 0000.0001) GM_advec*K =    /* Backg. GM-Advec(=Bolus) Diffusivity [m^2/s]*/
(PID.TID 0000.0001)                 1.000000000000000E+01
(PID.TID 0000.0001)     ;
(PID.TID 0000.0001) GM_Kmin_horiz = /* Minimum Horizontal Diffusivity [m^2/s] */
(PID.TID 0000.0001)                 1.000000000000000E+01
(PID.TID 0000.0001)     ;
(PID.TID 0000.0001) GM_Visbeck_alpha = /* Visbeck alpha coeff. [-] */
(PID.TID 0000.0001)                 1.000000000000000E-02
(PID.TID 0000.0001)     ;
(PID.TID 0000.0001) GM_Small_Number =  /* epsilon used in slope calc */
(PID.TID 0000.0001)                 1.000000000000000E-18
(PID.TID 0000.0001)     ;
(PID.TID 0000.0001) GM_slopeSqCutoff = /* Slope^2 cut-off value */
(PID.TID 0000.0001)                 1.000000000000000E+48
(PID.TID 0000.0001)     ;
(PID.TID 0000.0001) GM_taper_scheme =  /* Type of Tapering/Clipping scheme */
(PID.TID 0000.0001)               'linear                                  '
(PID.TID 0000.0001)     ;
(PID.TID 0000.0001) GM_maxSlope =  /* Maximum Slope (Tapering/Clipping) */
(PID.TID 0000.0001)                 1.000000000000000E-02
(PID.TID 0000.0001)     ;
(PID.TID 0000.0001) GM_facTrL2dz = /* Minimum Trans.Layer Thick. (factor of dz) */
(PID.TID 0000.0001)                 1.000000000000000E+00
(PID.TID 0000.0001)     ;
(PID.TID 0000.0001) GM_facTrL2ML = /* Max.Trans.Layer Thick. (factor of MxL Depth)*/
(PID.TID 0000.0001)                 5.000000000000000E+00
(PID.TID 0000.0001)     ;
(PID.TID 0000.0001) GM_maxTransLay = /* Maximum Transition Layer Thickness [m] */
(PID.TID 0000.0001)                 5.000000000000000E+02
(PID.TID 0000.0001)     ;
(PID.TID 0000.0001) // =======================================================
(PID.TID 0000.0001) // CONFIG_CHECK : Normal End
(PID.TID 0000.0001) // =======================================================
(PID.TID 0000.0001) 
(PID.TID 0000.0001)  MDS_READ_META: opening file: pickup.0000036000.meta
(PID.TID 0000.0001)  nRecords =   0 ; filePrec =  64 ; fileIter =         0
(PID.TID 0000.0001)     nDims =   0 , dims:
(PID.TID 0000.0001)     nFlds =   0 , nFl3D =   0 , fields:
(PID.TID 0000.0001)   nTimRec =   0 , timeList:
(PID.TID 0000.0001)  MDS_READ_FIELD: opening global file: pickup.0000036000
(PID.TID 0000.0001)  MDS_READ_FIELD: opening global file: pickup.0000036000
(PID.TID 0000.0001)  MDS_READ_FIELD: opening global file: pickup.0000036000
(PID.TID 0000.0001)  MDS_READ_FIELD: opening global file: pickup.0000036000
(PID.TID 0000.0001)  MDS_READ_FIELD: opening global file: pickup.0000036000
(PID.TID 0000.0001)  MDS_READ_FIELD: opening global file: pickup.0000036000
(PID.TID 0000.0001)  MDS_READ_FIELD: opening global file: pickup.0000036000
(PID.TID 0000.0001)  MDS_READ_FIELD: opening global file: pickup.0000036000
(PID.TID 0000.0001)  MDS_READ_FIELD: opening global file: pickup.0000036000
(PID.TID 0000.0001)  MDS_READ_FIELD: opening global file: pickup.0000036000
(PID.TID 0000.0001)  MDS_READ_FIELD: opening global file: pickup.0000036000
(PID.TID 0000.0001)  MDS_READ_FIELD: opening global file: pickup.0000036000
(PID.TID 0000.0001)  MDS_READ_FIELD: opening global file: pickup.0000036000
(PID.TID 0000.0001) READ_MFLDS_CHECK: - normal end ; reset MFLDS file-name: pickup.0000036000
(PID.TID 0000.0001)  MDS_READ_FIELD: opening global file: taux_sl.bin
(PID.TID 0000.0001)  MDS_READ_FIELD: opening global file: sst_sl.bin
(PID.TID 0000.0001)  write diagnostics summary to file ioUnit:      6
Iter.Nb:     36000 ; Time(s):  3.1104000000000E+09
------------------------------------------------------------------------
2D/3D diagnostics: Number of lists:     4
------------------------------------------------------------------------
listId=    1 ; file name: surfDiag
 nFlds, nActive,       freq     &     phase        , nLev               
    6  |    6  |   -864000.000000    432000.000000 |   1
 levels:   1
 diag# | name   |   ipt  |  iMate | kLev|   count |   mate.C|           
    23 |ETAN    |      1 |      0 |   1 |       0 |
    24 |ETANSQ  |      2 |      0 |   1 |       0 |
    25 |DETADT2 |      3 |      0 |   1 |       0 |
    69 |PHIBOT  |      4 |      0 |   1 |       0 |
    70 |PHIBOTSQ|      5 |      0 |   1 |       0 |
   171 |GM_VisbK|      6 |      0 |   1 |       0 |
------------------------------------------------------------------------
listId=    2 ; file name: dynDiag
 nFlds, nActive,       freq     &     phase        , nLev               
   12  |   12  |   1728000.000000         0.000000 |  15
 levels:   1   2   3   4   5   6   7   8   9  10  11  12  13  14  15
 diag# | name   |   ipt  |  iMate | kLev|   count |   mate.C|           
    30 |UVEL    |      7 |     22 |  15 |       0 |       0 |
    31 |VVEL    |     22 |      7 |  15 |       0 |       0 |
    32 |WVEL    |     37 |      0 |  15 |       0 |
    67 |PHIHYD  |     52 |      0 |  15 |       0 |
    46 |VVELMASS|     67 |      0 |  15 |       0 |
    26 |THETA   |     82 |      0 |  15 |       0 |
    49 |VTHMASS |     97 |      0 |  15 |       0 |
    50 |WTHMASS |    112 |      0 |  15 |       0 |
    33 |THETASQ |    127 |      0 |  15 |       0 |
    36 |UVELSQ  |    142 |      0 |  15 |       0 |
    42 |UV_VEL_Z|    157 |    157 |  15 |       0 |       0 |
    43 |WU_VEL  |    172 |      0 |  15 |       0 |
------------------------------------------------------------------------
listId=    3 ; file name: oceDiag
 nFlds, nActive,       freq     &     phase        , nLev               
    7  |    7  |    864000.000000         0.000000 |  12
 levels:   2   3   4   5   6   7   8   9  10  11  12  13
 diag# | name   |   ipt  |  iMate | kLev|   count |   mate.C|           
    72 |DRHODR  |    187 |      0 |  15 |       0 |
    62 |RHOAnoma|    202 |      0 |  15 |       0 |
   183 |GM_PsiY |    217 |      0 |  15 |       0 |
   176 |GM_Kvy  |    232 |      0 |  15 |       0 |
   178 |GM_Kvz  |    247 |      0 |  15 |       0 |
   180 |GM_Kwy  |    262 |      0 |  15 |       0 |
   181 |GM_Kwz  |    277 |      0 |  15 |       0 |
------------------------------------------------------------------------
listId=    4 ; file name: flxDiag
 nFlds, nActive,       freq     &     phase        , nLev               
    5  |    5  |   1728000.000000         0.000000 |  15
 levels:   1   2   3   4   5   6   7   8   9  10  11  12  13  14  15
 diag# | name   |   ipt  |  iMate | kLev|   count |   mate.C|           
    97 |ADVy_TH |    292 |      0 |  15 |       0 |
    95 |ADVr_TH |    307 |      0 |  15 |       0 |
   100 |DFyE_TH |    322 |      0 |  15 |       0 |
    98 |DFrE_TH |    337 |      0 |  15 |       0 |
   101 |DFrI_TH |    352 |      0 |  15 |       0 |
------------------------------------------------------------------------
Global & Regional Statistics diagnostics: Number of lists:     1
------------------------------------------------------------------------
listId=   1 ; file name: dynStDiag
 nFlds, nActive,       freq     &     phase        |                    
    5  |    5  |   -864000.000000         0.000000 |
 Regions:   0
 diag# | name   |   ipt  |  iMate |    Volume   |   mate-Vol. |         
    23 |ETAN    |      1 |      0 | 0.00000E+00 |
    30 |UVEL    |      2 |      0 | 0.00000E+00 |
    31 |VVEL    |     17 |      0 | 0.00000E+00 |
    32 |WVEL    |     32 |      0 | 0.00000E+00 |
    26 |THETA   |     47 |      0 | 0.00000E+00 |
------------------------------------------------------------------------
(PID.TID 0000.0001)  MDS_READ_FIELD: opening global file: pickup_cd.0000036000
(PID.TID 0000.0001)  MDS_READ_FIELD: opening global file: pickup_cd.0000036000
(PID.TID 0000.0001)  MDS_READ_FIELD: opening global file: pickup_cd.0000036000
(PID.TID 0000.0001)  MDS_READ_FIELD: opening global file: pickup_cd.0000036000
(PID.TID 0000.0001)  MDS_READ_FIELD: opening global file: pickup_cd.0000036000
(PID.TID 0000.0001) // =======================================================
(PID.TID 0000.0001) // Model current state
(PID.TID 0000.0001) // =======================================================
(PID.TID 0000.0001) 
(PID.TID 0000.0001) // =======================================================
(PID.TID 0000.0001) // Begin MONITOR dynamic field statistics
(PID.TID 0000.0001) // =======================================================
(PID.TID 0000.0001) %MON time_tsnumber                =                 36000
(PID.TID 0000.0001) %MON time_secondsf                =   3.1104000000000E+09
(PID.TID 0000.0001) %MON dynstat_eta_max              =   1.6201005177854E+00
(PID.TID 0000.0001) %MON dynstat_eta_min              =  -3.9377441396023E+00
(PID.TID 0000.0001) %MON dynstat_eta_mean             =  -2.2337978401749E-16
(PID.TID 0000.0001) %MON dynstat_eta_sd               =   1.6563991723224E+00
(PID.TID 0000.0001) %MON dynstat_eta_del2             =   1.3977066220033E-02
(PID.TID 0000.0001) %MON dynstat_uvel_max             =   1.4272657430544E-01
(PID.TID 0000.0001) %MON dynstat_uvel_min             =  -3.8630916679110E-01
(PID.TID 0000.0001) %MON dynstat_uvel_mean            =   1.2659893360806E-02
(PID.TID 0000.0001) %MON dynstat_uvel_sd              =   3.8710511996223E-02
(PID.TID 0000.0001) %MON dynstat_uvel_del2            =   6.1842820168116E-04
(PID.TID 0000.0001) %MON dynstat_vvel_max             =   2.2999750655636E-02
(PID.TID 0000.0001) %MON dynstat_vvel_min             =  -2.2999750655604E-02
(PID.TID 0000.0001) %MON dynstat_vvel_mean            =   1.0386723279140E-15
(PID.TID 0000.0001) %MON dynstat_vvel_sd              =   1.5486266626369E-03
(PID.TID 0000.0001) %MON dynstat_vvel_del2            =   7.2795151559418E-05
(PID.TID 0000.0001) %MON dynstat_wvel_max             =   1.3691712526229E-06
(PID.TID 0000.0001) %MON dynstat_wvel_min             =  -8.1261601801594E-07
(PID.TID 0000.0001) %MON dynstat_wvel_mean            =   1.3909277297647E-23
(PID.TID 0000.0001) %MON dynstat_wvel_sd              =   2.5358259198888E-07
(PID.TID 0000.0001) %MON dynstat_wvel_del2            =   3.6741344623394E-08
(PID.TID 0000.0001) %MON dynstat_theta_max            =   2.6657021468384E+01
(PID.TID 0000.0001) %MON dynstat_theta_min            =  -9.3075890930299E-01
(PID.TID 0000.0001) %MON dynstat_theta_mean           =   2.2239378147708E+00
(PID.TID 0000.0001) %MON dynstat_theta_sd             =   3.9264791989428E+00
(PID.TID 0000.0001) %MON dynstat_theta_del2           =   4.1714222085658E-02
(PID.TID 0000.0001) %MON dynstat_salt_max             =   3.4700000000000E+01
(PID.TID 0000.0001) %MON dynstat_salt_min             =   3.4700000000000E+01
(PID.TID 0000.0001) %MON dynstat_salt_mean            =   3.4700000000000E+01
(PID.TID 0000.0001) %MON dynstat_salt_sd              =   7.1054273576010E-15
(PID.TID 0000.0001) %MON dynstat_salt_del2            =   0.0000000000000E+00
(PID.TID 0000.0001) %MON extforcing_qnet_max          =   0.0000000000000E+00
(PID.TID 0000.0001) %MON extforcing_qnet_min          =   0.0000000000000E+00
(PID.TID 0000.0001) %MON extforcing_qnet_mean         =   0.0000000000000E+00
(PID.TID 0000.0001) %MON extforcing_qnet_sd           =   0.0000000000000E+00
(PID.TID 0000.0001) %MON extforcing_qnet_del2         =   0.0000000000000E+00
(PID.TID 0000.0001) %MON extforcing_qsw_max           =   0.0000000000000E+00
(PID.TID 0000.0001) %MON extforcing_qsw_min           =   0.0000000000000E+00
(PID.TID 0000.0001) %MON extforcing_qsw_mean          =   0.0000000000000E+00
(PID.TID 0000.0001) %MON extforcing_qsw_sd            =   0.0000000000000E+00
(PID.TID 0000.0001) %MON extforcing_qsw_del2          =   0.0000000000000E+00
(PID.TID 0000.0001) %MON extforcing_empmr_max         =   0.0000000000000E+00
(PID.TID 0000.0001) %MON extforcing_empmr_min         =   0.0000000000000E+00
(PID.TID 0000.0001) %MON extforcing_empmr_mean        =   0.0000000000000E+00
(PID.TID 0000.0001) %MON extforcing_empmr_sd          =   0.0000000000000E+00
(PID.TID 0000.0001) %MON extforcing_empmr_del2        =   0.0000000000000E+00
(PID.TID 0000.0001) %MON advcfl_uvel_max              =   1.0010587105295E-01
(PID.TID 0000.0001) %MON advcfl_vvel_max              =   5.9579769076500E-03
(PID.TID 0000.0001) %MON advcfl_wvel_max              =   1.9716066037770E-03
(PID.TID 0000.0001) %MON advcfl_W_hf_max              =   2.3659279245324E-03
(PID.TID 0000.0001) %MON pe_b_mean                    =   2.5880083768528E-03
(PID.TID 0000.0001) %MON ke_max                       =   7.4646746291426E-02
(PID.TID 0000.0001) %MON ke_mean                      =   8.3067694548141E-04
(PID.TID 0000.0001) %MON ke_vol                       =   2.1823819113454E+16
(PID.TID 0000.0001) %MON vort_r_min                   =  -1.7696079550502E-07
(PID.TID 0000.0001) %MON vort_r_max                   =   1.7696079550484E-07
(PID.TID 0000.0001) %MON vort_a_mean                  =   2.7861254556126E-21
(PID.TID 0000.0001) %MON vort_a_sd                    =   8.3264729252745E-05
(PID.TID 0000.0001) %MON vort_p_mean                  =   2.8034944168185E-21
(PID.TID 0000.0001) %MON vort_p_sd                    =   8.6550954127805E-05
(PID.TID 0000.0001) %MON surfExpan_theta_mean         =   8.7743901385969E-09
(PID.TID 0000.0001) %MON surfExpan_salt_mean          =  -6.3105052789025E-22
(PID.TID 0000.0001) // =======================================================
(PID.TID 0000.0001) // End MONITOR dynamic field statistics
(PID.TID 0000.0001) // =======================================================
 cg2d: Sum(rhs),rhsMax =   1.77635683940025E-14  1.48268842264243E+00
(PID.TID 0000.0001)                    cg2d_init_res =    2.44540880751422E-03
(PID.TID 0000.0001)                       cg2d_iters =    27
(PID.TID 0000.0001)                         cg2d_res =    4.64761571140316E-18
(PID.TID 0000.0001) // =======================================================
(PID.TID 0000.0001) // Begin MONITOR dynamic field statistics
(PID.TID 0000.0001) // =======================================================
(PID.TID 0000.0001) %MON time_tsnumber                =                 36001
(PID.TID 0000.0001) %MON time_secondsf                =   3.1104864000000E+09
(PID.TID 0000.0001) %MON dynstat_eta_max              =   1.6196962635487E+00
(PID.TID 0000.0001) %MON dynstat_eta_min              =  -3.9375476269002E+00
(PID.TID 0000.0001) %MON dynstat_eta_mean             =  -3.7229964002914E-16
(PID.TID 0000.0001) %MON dynstat_eta_sd               =   1.6560833372467E+00
(PID.TID 0000.0001) %MON dynstat_eta_del2             =   1.3973330763589E-02
(PID.TID 0000.0001) %MON dynstat_uvel_max             =   1.4273584335081E-01
(PID.TID 0000.0001) %MON dynstat_uvel_min             =  -3.8630889365595E-01
(PID.TID 0000.0001) %MON dynstat_uvel_mean            =   1.2664017650877E-02
(PID.TID 0000.0001) %MON dynstat_uvel_sd              =   3.8711845401339E-02
(PID.TID 0000.0001) %MON dynstat_uvel_del2            =   6.1844490565322E-04
(PID.TID 0000.0001) %MON dynstat_vvel_max             =   2.3013469555000E-02
(PID.TID 0000.0001) %MON dynstat_vvel_min             =  -2.3013469554968E-02
(PID.TID 0000.0001) %MON dynstat_vvel_mean            =   8.6938720936294E-16
(PID.TID 0000.0001) %MON dynstat_vvel_sd              =   1.5493091647320E-03
(PID.TID 0000.0001) %MON dynstat_vvel_del2            =   7.2807455714831E-05
(PID.TID 0000.0001) %MON dynstat_wvel_max             =   1.4062161908956E-06
(PID.TID 0000.0001) %MON dynstat_wvel_min             =  -8.9651107050616E-07
(PID.TID 0000.0001) %MON dynstat_wvel_mean            =  -1.4641344523839E-23
(PID.TID 0000.0001) %MON dynstat_wvel_sd              =   2.6253856714937E-07
(PID.TID 0000.0001) %MON dynstat_wvel_del2            =   3.6990681138874E-08
(PID.TID 0000.0001) %MON dynstat_theta_max            =   2.6657620335368E+01
(PID.TID 0000.0001) %MON dynstat_theta_min            =  -9.3087673832756E-01
(PID.TID 0000.0001) %MON dynstat_theta_mean           =   2.2239455622678E+00
(PID.TID 0000.0001) %MON dynstat_theta_sd             =   3.9265306399903E+00
(PID.TID 0000.0001) %MON dynstat_theta_del2           =   4.1716820089184E-02
(PID.TID 0000.0001) %MON dynstat_salt_max             =   3.4700000000000E+01
(PID.TID 0000.0001) %MON dynstat_salt_min             =   3.4700000000000E+01
(PID.TID 0000.0001) %MON dynstat_salt_mean            =   3.4700000000000E+01
(PID.TID 0000.0001) %MON dynstat_salt_sd              =   7.1054273576010E-15
(PID.TID 0000.0001) %MON dynstat_salt_del2            =   0.0000000000000E+00
(PID.TID 0000.0001) %MON extforcing_qnet_max          =   0.0000000000000E+00
(PID.TID 0000.0001) %MON extforcing_qnet_min          =   0.0000000000000E+00
(PID.TID 0000.0001) %MON extforcing_qnet_mean         =   0.0000000000000E+00
(PID.TID 0000.0001) %MON extforcing_qnet_sd           =   0.0000000000000E+00
(PID.TID 0000.0001) %MON extforcing_qnet_del2         =   0.0000000000000E+00
(PID.TID 0000.0001) %MON extforcing_qsw_max           =   0.0000000000000E+00
(PID.TID 0000.0001) %MON extforcing_qsw_min           =   0.0000000000000E+00
(PID.TID 0000.0001) %MON extforcing_qsw_mean          =   0.0000000000000E+00
(PID.TID 0000.0001) %MON extforcing_qsw_sd            =   0.0000000000000E+00
(PID.TID 0000.0001) %MON extforcing_qsw_del2          =   0.0000000000000E+00
(PID.TID 0000.0001) %MON extforcing_empmr_max         =   0.0000000000000E+00
(PID.TID 0000.0001) %MON extforcing_empmr_min         =   0.0000000000000E+00
(PID.TID 0000.0001) %MON extforcing_empmr_mean        =   0.0000000000000E+00
(PID.TID 0000.0001) %MON extforcing_empmr_sd          =   0.0000000000000E+00
(PID.TID 0000.0001) %MON extforcing_empmr_del2        =   0.0000000000000E+00
(PID.TID 0000.0001) %MON advcfl_uvel_max              =   1.0010580027432E-01
(PID.TID 0000.0001) %MON advcfl_vvel_max              =   5.9615307238123E-03
(PID.TID 0000.0001) %MON advcfl_wvel_max              =   2.0249513148897E-03
(PID.TID 0000.0001) %MON advcfl_W_hf_max              =   2.4299415778677E-03
(PID.TID 0000.0001) %MON pe_b_mean                    =   2.5870215303153E-03
(PID.TID 0000.0001) %MON ke_max                       =   7.4646629771495E-02
(PID.TID 0000.0001) %MON ke_mean                      =   8.3078184915390E-04
(PID.TID 0000.0001) %MON ke_vol                       =   2.1823819113454E+16
(PID.TID 0000.0001) %MON vort_r_min                   =  -1.7696269008163E-07
(PID.TID 0000.0001) %MON vort_r_max                   =   1.7696269008145E-07
(PID.TID 0000.0001) %MON vort_a_mean                  =  -5.5722509112253E-21
(PID.TID 0000.0001) %MON vort_a_sd                    =   8.3264730102242E-05
(PID.TID 0000.0001) %MON vort_p_mean                  =  -5.6069888336370E-21
(PID.TID 0000.0001) %MON vort_p_sd                    =   8.6550954984575E-05
(PID.TID 0000.0001) %MON surfExpan_theta_mean         =  -9.8487216854221E-07
(PID.TID 0000.0001) %MON surfExpan_salt_mean          =   3.3286181690914E-22
(PID.TID 0000.0001) // =======================================================
(PID.TID 0000.0001) // End MONITOR dynamic field statistics
(PID.TID 0000.0001) // =======================================================
 Compute Stats, Diag. #     23  ETAN      vol(   0 ): 4.197E+12  Parms: SM      M1      
 Compute Stats, Diag. #     30  UVEL      vol(   0 ): 2.182E+16  Parms: UU      MR      
 Compute Stats, Diag. #     31  VVEL      vol(   0 ): 2.173E+16  Parms: VV      MR      
 Compute Stats, Diag. #     32  WVEL      vol(   0 ): 2.035E+16  Parms: WM      LR      
 Compute Stats, Diag. #     26  THETA     vol(   0 ): 2.182E+16  Parms: SM      MR      
 cg2d: Sum(rhs),rhsMax =   8.88178419700125E-15  1.48203283224402E+00
(PID.TID 0000.0001)                    cg2d_init_res =    3.92163411817330E-03
(PID.TID 0000.0001)                       cg2d_iters =    27
(PID.TID 0000.0001)                         cg2d_res =    2.25434100370575E-17
(PID.TID 0000.0001) // =======================================================
(PID.TID 0000.0001) // Begin MONITOR dynamic field statistics
(PID.TID 0000.0001) // =======================================================
(PID.TID 0000.0001) %MON time_tsnumber                =                 36002
(PID.TID 0000.0001) %MON time_secondsf                =   3.1105728000000E+09
(PID.TID 0000.0001) %MON dynstat_eta_max              =   1.6190037624462E+00
(PID.TID 0000.0001) %MON dynstat_eta_min              =  -3.9370840394493E+00
(PID.TID 0000.0001) %MON dynstat_eta_mean             =  -4.4675956803497E-16
(PID.TID 0000.0001) %MON dynstat_eta_sd               =   1.6554915642785E+00
(PID.TID 0000.0001) %MON dynstat_eta_del2             =   1.3966927148434E-02
(PID.TID 0000.0001) %MON dynstat_uvel_max             =   1.4275313739726E-01
(PID.TID 0000.0001) %MON dynstat_uvel_min             =  -3.8630854419258E-01
(PID.TID 0000.0001) %MON dynstat_uvel_mean            =   1.2671834358463E-02
(PID.TID 0000.0001) %MON dynstat_uvel_sd              =   3.8714487808004E-02
(PID.TID 0000.0001) %MON dynstat_uvel_del2            =   6.1847935597045E-04
(PID.TID 0000.0001) %MON dynstat_vvel_max             =   2.3031051863919E-02
(PID.TID 0000.0001) %MON dynstat_vvel_min             =  -2.3031051863886E-02
(PID.TID 0000.0001) %MON dynstat_vvel_mean            =   8.8643985639404E-16
(PID.TID 0000.0001) %MON dynstat_vvel_sd              =   1.5511120308571E-03
(PID.TID 0000.0001) %MON dynstat_vvel_del2            =   7.2828123786792E-05
(PID.TID 0000.0001) %MON dynstat_wvel_max             =   1.3293122207667E-06
(PID.TID 0000.0001) %MON dynstat_wvel_min             =  -9.6078034047936E-07
(PID.TID 0000.0001) %MON dynstat_wvel_mean            =  -5.8565378095355E-24
(PID.TID 0000.0001) %MON dynstat_wvel_sd              =   2.8144902297533E-07
(PID.TID 0000.0001) %MON dynstat_wvel_del2            =   3.7025541865307E-08
(PID.TID 0000.0001) %MON dynstat_theta_max            =   2.6658561910845E+01
(PID.TID 0000.0001) %MON dynstat_theta_min            =  -9.3076643303087E-01
(PID.TID 0000.0001) %MON dynstat_theta_mean           =   2.2239680489066E+00
(PID.TID 0000.0001) %MON dynstat_theta_sd             =   3.9266284098523E+00
(PID.TID 0000.0001) %MON dynstat_theta_del2           =   4.1718323899712E-02
(PID.TID 0000.0001) %MON dynstat_salt_max             =   3.4700000000000E+01
(PID.TID 0000.0001) %MON dynstat_salt_min             =   3.4700000000000E+01
(PID.TID 0000.0001) %MON dynstat_salt_mean            =   3.4700000000000E+01
(PID.TID 0000.0001) %MON dynstat_salt_sd              =   7.1054273576010E-15
(PID.TID 0000.0001) %MON dynstat_salt_del2            =   0.0000000000000E+00
(PID.TID 0000.0001) %MON extforcing_qnet_max          =   0.0000000000000E+00
(PID.TID 0000.0001) %MON extforcing_qnet_min          =   0.0000000000000E+00
(PID.TID 0000.0001) %MON extforcing_qnet_mean         =   0.0000000000000E+00
(PID.TID 0000.0001) %MON extforcing_qnet_sd           =   0.0000000000000E+00
(PID.TID 0000.0001) %MON extforcing_qnet_del2         =   0.0000000000000E+00
(PID.TID 0000.0001) %MON extforcing_qsw_max           =   0.0000000000000E+00
(PID.TID 0000.0001) %MON extforcing_qsw_min           =   0.0000000000000E+00
(PID.TID 0000.0001) %MON extforcing_qsw_mean          =   0.0000000000000E+00
(PID.TID 0000.0001) %MON extforcing_qsw_sd            =   0.0000000000000E+00
(PID.TID 0000.0001) %MON extforcing_qsw_del2          =   0.0000000000000E+00
(PID.TID 0000.0001) %MON extforcing_empmr_max         =   0.0000000000000E+00
(PID.TID 0000.0001) %MON extforcing_empmr_min         =   0.0000000000000E+00
(PID.TID 0000.0001) %MON extforcing_empmr_mean        =   0.0000000000000E+00
(PID.TID 0000.0001) %MON extforcing_empmr_sd          =   0.0000000000000E+00
(PID.TID 0000.0001) %MON extforcing_empmr_del2        =   0.0000000000000E+00
(PID.TID 0000.0001) %MON advcfl_uvel_max              =   1.0010570971645E-01
(PID.TID 0000.0001) %MON advcfl_vvel_max              =   5.9660853379943E-03
(PID.TID 0000.0001) %MON advcfl_wvel_max              =   1.9142095979040E-03
(PID.TID 0000.0001) %MON advcfl_W_hf_max              =   2.2970515174848E-03
(PID.TID 0000.0001) %MON pe_b_mean                    =   2.5851730051237E-03
(PID.TID 0000.0001) %MON ke_max                       =   7.4646513750365E-02
(PID.TID 0000.0001) %MON ke_mean                      =   8.3098597215020E-04
(PID.TID 0000.0001) %MON ke_vol                       =   2.1823819113454E+16
(PID.TID 0000.0001) %MON vort_r_min                   =  -1.7696634079619E-07
(PID.TID 0000.0001) %MON vort_r_max                   =   1.7696634079602E-07
(PID.TID 0000.0001) %MON vort_a_mean                  =   5.5722509112253E-21
(PID.TID 0000.0001) %MON vort_a_sd                    =   8.3264731694876E-05
(PID.TID 0000.0001) %MON vort_p_mean                  =   5.6069888336370E-21
(PID.TID 0000.0001) %MON vort_p_sd                    =   8.6550956600485E-05
(PID.TID 0000.0001) %MON surfExpan_theta_mean         =  -1.8695961055015E-06
(PID.TID 0000.0001) %MON surfExpan_salt_mean          =   8.8763151175772E-22
(PID.TID 0000.0001) // =======================================================
(PID.TID 0000.0001) // End MONITOR dynamic field statistics
(PID.TID 0000.0001) // =======================================================
 cg2d: Sum(rhs),rhsMax =   7.10542735760100E-15  1.48124171592920E+00
(PID.TID 0000.0001)                    cg2d_init_res =    4.98777083422604E-03
(PID.TID 0000.0001)                       cg2d_iters =    27
(PID.TID 0000.0001)                         cg2d_res =    8.51594771938417E-18
(PID.TID 0000.0001) // =======================================================
(PID.TID 0000.0001) // Begin MONITOR dynamic field statistics
(PID.TID 0000.0001) // =======================================================
(PID.TID 0000.0001) %MON time_tsnumber                =                 36003
(PID.TID 0000.0001) %MON time_secondsf                =   3.1106592000000E+09
(PID.TID 0000.0001) %MON dynstat_eta_max              =   1.6181609370977E+00
(PID.TID 0000.0001) %MON dynstat_eta_min              =  -3.9362573269857E+00
(PID.TID 0000.0001) %MON dynstat_eta_mean             =  -3.7229964002914E-16
(PID.TID 0000.0001) %MON dynstat_eta_sd               =   1.6546780371395E+00
(PID.TID 0000.0001) %MON dynstat_eta_del2             =   1.3959371117556E-02
(PID.TID 0000.0001) %MON dynstat_uvel_max             =   1.4277701374083E-01
(PID.TID 0000.0001) %MON dynstat_uvel_min             =  -3.8630835367935E-01
(PID.TID 0000.0001) %MON dynstat_uvel_mean            =   1.2682981720342E-02
(PID.TID 0000.0001) %MON dynstat_uvel_sd              =   3.8718279690889E-02
(PID.TID 0000.0001) %MON dynstat_uvel_del2            =   6.1853089650740E-04
(PID.TID 0000.0001) %MON dynstat_vvel_max             =   2.3052703362987E-02
(PID.TID 0000.0001) %MON dynstat_vvel_min             =  -2.3052703362954E-02
(PID.TID 0000.0001) %MON dynstat_vvel_mean            =   9.5238893202091E-16
(PID.TID 0000.0001) %MON dynstat_vvel_sd              =   1.5535444196492E-03
(PID.TID 0000.0001) %MON dynstat_vvel_del2            =   7.2841626879245E-05
(PID.TID 0000.0001) %MON dynstat_wvel_max             =   1.2067333611414E-06
(PID.TID 0000.0001) %MON dynstat_wvel_min             =  -1.0021546584804E-06
(PID.TID 0000.0001) %MON dynstat_wvel_mean            =  -5.8565378095355E-24
(PID.TID 0000.0001) %MON dynstat_wvel_sd              =   3.0187326937843E-07
(PID.TID 0000.0001) %MON dynstat_wvel_del2            =   3.7001750344630E-08
(PID.TID 0000.0001) %MON dynstat_theta_max            =   2.6659881055733E+01
(PID.TID 0000.0001) %MON dynstat_theta_min            =  -9.3076731879882E-01
(PID.TID 0000.0001) %MON dynstat_theta_mean           =   2.2240028194371E+00
(PID.TID 0000.0001) %MON dynstat_theta_sd             =   3.9267653069957E+00
(PID.TID 0000.0001) %MON dynstat_theta_del2           =   4.1717311524914E-02
(PID.TID 0000.0001) %MON dynstat_salt_max             =   3.4700000000000E+01
(PID.TID 0000.0001) %MON dynstat_salt_min             =   3.4700000000000E+01
(PID.TID 0000.0001) %MON dynstat_salt_mean            =   3.4700000000000E+01
(PID.TID 0000.0001) %MON dynstat_salt_sd              =   7.1054273576010E-15
(PID.TID 0000.0001) %MON dynstat_salt_del2            =   0.0000000000000E+00
(PID.TID 0000.0001) %MON extforcing_qnet_max          =   0.0000000000000E+00
(PID.TID 0000.0001) %MON extforcing_qnet_min          =   0.0000000000000E+00
(PID.TID 0000.0001) %MON extforcing_qnet_mean         =   0.0000000000000E+00
(PID.TID 0000.0001) %MON extforcing_qnet_sd           =   0.0000000000000E+00
(PID.TID 0000.0001) %MON extforcing_qnet_del2         =   0.0000000000000E+00
(PID.TID 0000.0001) %MON extforcing_qsw_max           =   0.0000000000000E+00
(PID.TID 0000.0001) %MON extforcing_qsw_min           =   0.0000000000000E+00
(PID.TID 0000.0001) %MON extforcing_qsw_mean          =   0.0000000000000E+00
(PID.TID 0000.0001) %MON extforcing_qsw_sd            =   0.0000000000000E+00
(PID.TID 0000.0001) %MON extforcing_qsw_del2          =   0.0000000000000E+00
(PID.TID 0000.0001) %MON extforcing_empmr_max         =   0.0000000000000E+00
(PID.TID 0000.0001) %MON extforcing_empmr_min         =   0.0000000000000E+00
(PID.TID 0000.0001) %MON extforcing_empmr_mean        =   0.0000000000000E+00
(PID.TID 0000.0001) %MON extforcing_empmr_sd          =   0.0000000000000E+00
(PID.TID 0000.0001) %MON extforcing_empmr_del2        =   0.0000000000000E+00
(PID.TID 0000.0001) %MON advcfl_uvel_max              =   1.0010566034798E-01
(PID.TID 0000.0001) %MON advcfl_vvel_max              =   5.9716940566887E-03
(PID.TID 0000.0001) %MON advcfl_wvel_max              =   1.8711684000288E-03
(PID.TID 0000.0001) %MON advcfl_W_hf_max              =   2.0852352480523E-03
(PID.TID 0000.0001) %MON pe_b_mean                    =   2.5826328633333E-03
(PID.TID 0000.0001) %MON ke_max                       =   7.4646469984239E-02
(PID.TID 0000.0001) %MON ke_mean                      =   8.3127789206062E-04
(PID.TID 0000.0001) %MON ke_vol                       =   2.1823819113454E+16
(PID.TID 0000.0001) %MON vort_r_min                   =  -1.7697140096645E-07
(PID.TID 0000.0001) %MON vort_r_max                   =   1.7697140096628E-07
(PID.TID 0000.0001) %MON vort_a_mean                  =  -8.3583763668379E-21
(PID.TID 0000.0001) %MON vort_a_sd                    =   8.3264733946823E-05
(PID.TID 0000.0001) %MON vort_p_mean                  =  -8.4104832504555E-21
(PID.TID 0000.0001) %MON vort_p_sd                    =   8.6550958916116E-05
(PID.TID 0000.0001) %MON surfExpan_theta_mean         =  -2.6094495760518E-06
(PID.TID 0000.0001) %MON surfExpan_salt_mean          =   0.0000000000000E+00
(PID.TID 0000.0001) // =======================================================
(PID.TID 0000.0001) // End MONITOR dynamic field statistics
(PID.TID 0000.0001) // =======================================================
 cg2d: Sum(rhs),rhsMax =   1.24344978758018E-14  1.48044274129937E+00
(PID.TID 0000.0001)                    cg2d_init_res =    5.73365022634392E-03
(PID.TID 0000.0001)                       cg2d_iters =    27
(PID.TID 0000.0001)                         cg2d_res =    1.41230497426333E-17
(PID.TID 0000.0001) // =======================================================
(PID.TID 0000.0001) // Begin MONITOR dynamic field statistics
(PID.TID 0000.0001) // =======================================================
(PID.TID 0000.0001) %MON time_tsnumber                =                 36004
(PID.TID 0000.0001) %MON time_secondsf                =   3.1107456000000E+09
(PID.TID 0000.0001) %MON dynstat_eta_max              =   1.6173025152874E+00
(PID.TID 0000.0001) %MON dynstat_eta_min              =  -3.9349866565072E+00
(PID.TID 0000.0001) %MON dynstat_eta_mean             =  -5.2121949604080E-16
(PID.TID 0000.0001) %MON dynstat_eta_sd               =   1.6537019780356E+00
(PID.TID 0000.0001) %MON dynstat_eta_del2             =   1.3952636987468E-02
(PID.TID 0000.0001) %MON dynstat_uvel_max             =   1.4280579762360E-01
(PID.TID 0000.0001) %MON dynstat_uvel_min             =  -3.8630832269881E-01
(PID.TID 0000.0001) %MON dynstat_uvel_mean            =   1.2696952112819E-02
(PID.TID 0000.0001) %MON dynstat_uvel_sd              =   3.8723011048111E-02
(PID.TID 0000.0001) %MON dynstat_uvel_del2            =   6.1859754272162E-04
(PID.TID 0000.0001) %MON dynstat_vvel_max             =   2.3076103856575E-02
(PID.TID 0000.0001) %MON dynstat_vvel_min             =  -2.3076103856541E-02
(PID.TID 0000.0001) %MON dynstat_vvel_mean            =   1.0273559643150E-15
(PID.TID 0000.0001) %MON dynstat_vvel_sd              =   1.5560926282813E-03
(PID.TID 0000.0001) %MON dynstat_vvel_del2            =   7.2851588526780E-05
(PID.TID 0000.0001) %MON dynstat_wvel_max             =   1.2503380190743E-06
(PID.TID 0000.0001) %MON dynstat_wvel_min             =  -1.0064740798087E-06
(PID.TID 0000.0001) %MON dynstat_wvel_mean            =   4.6852302476284E-23
(PID.TID 0000.0001) %MON dynstat_wvel_sd              =   3.1983965989766E-07
(PID.TID 0000.0001) %MON dynstat_wvel_del2            =   3.6909528515037E-08
(PID.TID 0000.0001) %MON dynstat_theta_max            =   2.6661661220897E+01
(PID.TID 0000.0001) %MON dynstat_theta_min            =  -9.3076914681054E-01
(PID.TID 0000.0001) %MON dynstat_theta_mean           =   2.2240470258303E+00
(PID.TID 0000.0001) %MON dynstat_theta_sd             =   3.9269324769902E+00
(PID.TID 0000.0001) %MON dynstat_theta_del2           =   4.1713671695917E-02
(PID.TID 0000.0001) %MON dynstat_salt_max             =   3.4700000000000E+01
(PID.TID 0000.0001) %MON dynstat_salt_min             =   3.4700000000000E+01
(PID.TID 0000.0001) %MON dynstat_salt_mean            =   3.4700000000000E+01
(PID.TID 0000.0001) %MON dynstat_salt_sd              =   7.1054273576010E-15
(PID.TID 0000.0001) %MON dynstat_salt_del2            =   0.0000000000000E+00
(PID.TID 0000.0001) %MON extforcing_qnet_max          =   0.0000000000000E+00
(PID.TID 0000.0001) %MON extforcing_qnet_min          =   0.0000000000000E+00
(PID.TID 0000.0001) %MON extforcing_qnet_mean         =   0.0000000000000E+00
(PID.TID 0000.0001) %MON extforcing_qnet_sd           =   0.0000000000000E+00
(PID.TID 0000.0001) %MON extforcing_qnet_del2         =   0.0000000000000E+00
(PID.TID 0000.0001) %MON extforcing_qsw_max           =   0.0000000000000E+00
(PID.TID 0000.0001) %MON extforcing_qsw_min           =   0.0000000000000E+00
(PID.TID 0000.0001) %MON extforcing_qsw_mean          =   0.0000000000000E+00
(PID.TID 0000.0001) %MON extforcing_qsw_sd            =   0.0000000000000E+00
(PID.TID 0000.0001) %MON extforcing_qsw_del2          =   0.0000000000000E+00
(PID.TID 0000.0001) %MON extforcing_empmr_max         =   0.0000000000000E+00
(PID.TID 0000.0001) %MON extforcing_empmr_min         =   0.0000000000000E+00
(PID.TID 0000.0001) %MON extforcing_empmr_mean        =   0.0000000000000E+00
(PID.TID 0000.0001) %MON extforcing_empmr_sd          =   0.0000000000000E+00
(PID.TID 0000.0001) %MON extforcing_empmr_del2        =   0.0000000000000E+00
(PID.TID 0000.0001) %MON advcfl_uvel_max              =   1.0010565231987E-01
(PID.TID 0000.0001) %MON advcfl_vvel_max              =   5.9777558441625E-03
(PID.TID 0000.0001) %MON advcfl_wvel_max              =   2.1691748442487E-03
(PID.TID 0000.0001) %MON advcfl_W_hf_max              =   2.1605840969604E-03
(PID.TID 0000.0001) %MON pe_b_mean                    =   2.5795868824497E-03
(PID.TID 0000.0001) %MON ke_max                       =   7.4646487324848E-02
(PID.TID 0000.0001) %MON ke_mean                      =   8.3164236293444E-04
(PID.TID 0000.0001) %MON ke_vol                       =   2.1823819113454E+16
(PID.TID 0000.0001) %MON vort_r_min                   =  -1.7697756753476E-07
(PID.TID 0000.0001) %MON vort_r_max                   =   1.7697756753458E-07
(PID.TID 0000.0001) %MON vort_a_mean                  =  -8.3583763668379E-21
(PID.TID 0000.0001) %MON vort_a_sd                    =   8.3264736745869E-05
(PID.TID 0000.0001) %MON vort_p_mean                  =  -8.4104832504555E-21
(PID.TID 0000.0001) %MON vort_p_sd                    =   8.6550961845169E-05
(PID.TID 0000.0001) %MON surfExpan_theta_mean         =  -3.1819091727454E-06
(PID.TID 0000.0001) %MON surfExpan_salt_mean          =  -4.4381575587886E-22
(PID.TID 0000.0001) // =======================================================
(PID.TID 0000.0001) // End MONITOR dynamic field statistics
(PID.TID 0000.0001) // =======================================================
 cg2d: Sum(rhs),rhsMax =   5.32907051820075E-15  1.47974135342997E+00
(PID.TID 0000.0001)                    cg2d_init_res =    6.24546464364206E-03
(PID.TID 0000.0001)                       cg2d_iters =    27
(PID.TID 0000.0001)                         cg2d_res =    6.80813247820393E-18
(PID.TID 0000.0001) // =======================================================
(PID.TID 0000.0001) // Begin MONITOR dynamic field statistics
(PID.TID 0000.0001) // =======================================================
(PID.TID 0000.0001) %MON time_tsnumber                =                 36005
(PID.TID 0000.0001) %MON time_secondsf                =   3.1108320000000E+09
(PID.TID 0000.0001) %MON dynstat_eta_max              =   1.6165338154893E+00
(PID.TID 0000.0001) %MON dynstat_eta_min              =  -3.9332369523964E+00
(PID.TID 0000.0001) %MON dynstat_eta_mean             =  -3.7229964002914E-16
(PID.TID 0000.0001) %MON dynstat_eta_sd               =   1.6526222723174E+00
(PID.TID 0000.0001) %MON dynstat_eta_del2             =   1.3948003310594E-02
(PID.TID 0000.0001) %MON dynstat_uvel_max             =   1.4283775519354E-01
(PID.TID 0000.0001) %MON dynstat_uvel_min             =  -3.8630842576842E-01
(PID.TID 0000.0001) %MON dynstat_uvel_mean            =   1.2713108189571E-02
(PID.TID 0000.0001) %MON dynstat_uvel_sd              =   3.8728434092669E-02
(PID.TID 0000.0001) %MON dynstat_uvel_del2            =   6.1867649979676E-04
(PID.TID 0000.0001) %MON dynstat_vvel_max             =   2.3097690677267E-02
(PID.TID 0000.0001) %MON dynstat_vvel_min             =  -2.3097690677232E-02
(PID.TID 0000.0001) %MON dynstat_vvel_mean            =   1.1216540121314E-15
(PID.TID 0000.0001) %MON dynstat_vvel_sd              =   1.5582926571576E-03
(PID.TID 0000.0001) %MON dynstat_vvel_del2            =   7.2869472119759E-05
(PID.TID 0000.0001) %MON dynstat_wvel_max             =   1.2904872890556E-06
(PID.TID 0000.0001) %MON dynstat_wvel_min             =  -1.0379195379190E-06
(PID.TID 0000.0001) %MON dynstat_wvel_mean            =  -5.8565378095355E-24
(PID.TID 0000.0001) %MON dynstat_wvel_sd              =   3.3379805390779E-07
(PID.TID 0000.0001) %MON dynstat_wvel_del2            =   3.6786579808758E-08
(PID.TID 0000.0001) %MON dynstat_theta_max            =   2.6663887063879E+01
(PID.TID 0000.0001) %MON dynstat_theta_min            =  -9.3077107650406E-01
(PID.TID 0000.0001) %MON dynstat_theta_mean           =   2.2240976308022E+00
(PID.TID 0000.0001) %MON dynstat_theta_sd             =   3.9271202819576E+00
(PID.TID 0000.0001) %MON dynstat_theta_del2           =   4.1707862090336E-02
(PID.TID 0000.0001) %MON dynstat_salt_max             =   3.4700000000000E+01
(PID.TID 0000.0001) %MON dynstat_salt_min             =   3.4700000000000E+01
(PID.TID 0000.0001) %MON dynstat_salt_mean            =   3.4700000000000E+01
(PID.TID 0000.0001) %MON dynstat_salt_sd              =   7.1054273576010E-15
(PID.TID 0000.0001) %MON dynstat_salt_del2            =   0.0000000000000E+00
(PID.TID 0000.0001) %MON extforcing_qnet_max          =   0.0000000000000E+00
(PID.TID 0000.0001) %MON extforcing_qnet_min          =   0.0000000000000E+00
(PID.TID 0000.0001) %MON extforcing_qnet_mean         =   0.0000000000000E+00
(PID.TID 0000.0001) %MON extforcing_qnet_sd           =   0.0000000000000E+00
(PID.TID 0000.0001) %MON extforcing_qnet_del2         =   0.0000000000000E+00
(PID.TID 0000.0001) %MON extforcing_qsw_max           =   0.0000000000000E+00
(PID.TID 0000.0001) %MON extforcing_qsw_min           =   0.0000000000000E+00
(PID.TID 0000.0001) %MON extforcing_qsw_mean          =   0.0000000000000E+00
(PID.TID 0000.0001) %MON extforcing_qsw_sd            =   0.0000000000000E+00
(PID.TID 0000.0001) %MON extforcing_qsw_del2          =   0.0000000000000E+00
(PID.TID 0000.0001) %MON extforcing_empmr_max         =   0.0000000000000E+00
(PID.TID 0000.0001) %MON extforcing_empmr_min         =   0.0000000000000E+00
(PID.TID 0000.0001) %MON extforcing_empmr_mean        =   0.0000000000000E+00
(PID.TID 0000.0001) %MON extforcing_empmr_sd          =   0.0000000000000E+00
(PID.TID 0000.0001) %MON extforcing_empmr_del2        =   0.0000000000000E+00
(PID.TID 0000.0001) %MON advcfl_uvel_max              =   1.0010567902872E-01
(PID.TID 0000.0001) %MON advcfl_vvel_max              =   5.9833478082283E-03
(PID.TID 0000.0001) %MON advcfl_wvel_max              =   2.3914441175595E-03
(PID.TID 0000.0001) %MON advcfl_W_hf_max              =   2.2299620354881E-03
(PID.TID 0000.0001) %MON pe_b_mean                    =   2.5762195459953E-03
(PID.TID 0000.0001) %MON ke_max                       =   7.4646550066040E-02
(PID.TID 0000.0001) %MON ke_mean                      =   8.3206109601774E-04
(PID.TID 0000.0001) %MON ke_vol                       =   2.1823819113454E+16
(PID.TID 0000.0001) %MON vort_r_min                   =  -1.7698463960310E-07
(PID.TID 0000.0001) %MON vort_r_max                   =   1.7698463960292E-07
(PID.TID 0000.0001) %MON vort_a_mean                  =   0.0000000000000E+00
(PID.TID 0000.0001) %MON vort_a_sd                    =   8.3264739957303E-05
(PID.TID 0000.0001) %MON vort_p_mean                  =   0.0000000000000E+00
(PID.TID 0000.0001) %MON vort_p_sd                    =   8.6550965273152E-05
(PID.TID 0000.0001) %MON surfExpan_theta_mean         =  -3.5757615512420E-06
(PID.TID 0000.0001) %MON surfExpan_salt_mean          =   0.0000000000000E+00
(PID.TID 0000.0001) // =======================================================
(PID.TID 0000.0001) // End MONITOR dynamic field statistics
(PID.TID 0000.0001) // =======================================================
 cg2d: Sum(rhs),rhsMax =   7.10542735760100E-15  1.47919743776922E+00
(PID.TID 0000.0001)                    cg2d_init_res =    6.56445499867384E-03
(PID.TID 0000.0001)                       cg2d_iters =    27
(PID.TID 0000.0001)                         cg2d_res =    2.46419104618161E-17
(PID.TID 0000.0001) // =======================================================
(PID.TID 0000.0001) // Begin MONITOR dynamic field statistics
(PID.TID 0000.0001) // =======================================================
(PID.TID 0000.0001) %MON time_tsnumber                =                 36006
(PID.TID 0000.0001) %MON time_secondsf                =   3.1109184000000E+09
(PID.TID 0000.0001) %MON dynstat_eta_max              =   1.6159105467548E+00
(PID.TID 0000.0001) %MON dynstat_eta_min              =  -3.9310421076302E+00
(PID.TID 0000.0001) %MON dynstat_eta_mean             =  -4.4675956803497E-16
(PID.TID 0000.0001) %MON dynstat_eta_sd               =   1.6514942057498E+00
(PID.TID 0000.0001) %MON dynstat_eta_del2             =   1.3945770552830E-02
(PID.TID 0000.0001) %MON dynstat_uvel_max             =   1.4287121721128E-01
(PID.TID 0000.0001) %MON dynstat_uvel_min             =  -3.8630862962965E-01
(PID.TID 0000.0001) %MON dynstat_uvel_mean            =   1.2730707172264E-02
(PID.TID 0000.0001) %MON dynstat_uvel_sd              =   3.8734278302727E-02
(PID.TID 0000.0001) %MON dynstat_uvel_del2            =   6.1876436452022E-04
(PID.TID 0000.0001) %MON dynstat_vvel_max             =   2.3114265072945E-02
(PID.TID 0000.0001) %MON dynstat_vvel_min             =  -2.3114265072910E-02
(PID.TID 0000.0001) %MON dynstat_vvel_mean            =   1.1939156574254E-15
(PID.TID 0000.0001) %MON dynstat_vvel_sd              =   1.5597768331318E-03
(PID.TID 0000.0001) %MON dynstat_vvel_del2            =   7.2898663330702E-05
(PID.TID 0000.0001) %MON dynstat_wvel_max             =   1.2970572079140E-06
(PID.TID 0000.0001) %MON dynstat_wvel_min             =  -1.0764012762085E-06
(PID.TID 0000.0001) %MON dynstat_wvel_mean            =   4.6852302476284E-23
(PID.TID 0000.0001) %MON dynstat_wvel_sd              =   3.4271286997410E-07
(PID.TID 0000.0001) %MON dynstat_wvel_del2            =   3.6668593514550E-08
(PID.TID 0000.0001) %MON dynstat_theta_max            =   2.6666431617864E+01
(PID.TID 0000.0001) %MON dynstat_theta_min            =  -9.3077302596193E-01
(PID.TID 0000.0001) %MON dynstat_theta_mean           =   2.2241515688043E+00
(PID.TID 0000.0001) %MON dynstat_theta_sd             =   3.9273188848622E+00
(PID.TID 0000.0001) %MON dynstat_theta_del2           =   4.1700523408766E-02
(PID.TID 0000.0001) %MON dynstat_salt_max             =   3.4700000000000E+01
(PID.TID 0000.0001) %MON dynstat_salt_min             =   3.4700000000000E+01
(PID.TID 0000.0001) %MON dynstat_salt_mean            =   3.4700000000000E+01
(PID.TID 0000.0001) %MON dynstat_salt_sd              =   7.1054273576010E-15
(PID.TID 0000.0001) %MON dynstat_salt_del2            =   0.0000000000000E+00
(PID.TID 0000.0001) %MON extforcing_qnet_max          =   0.0000000000000E+00
(PID.TID 0000.0001) %MON extforcing_qnet_min          =   0.0000000000000E+00
(PID.TID 0000.0001) %MON extforcing_qnet_mean         =   0.0000000000000E+00
(PID.TID 0000.0001) %MON extforcing_qnet_sd           =   0.0000000000000E+00
(PID.TID 0000.0001) %MON extforcing_qnet_del2         =   0.0000000000000E+00
(PID.TID 0000.0001) %MON extforcing_qsw_max           =   0.0000000000000E+00
(PID.TID 0000.0001) %MON extforcing_qsw_min           =   0.0000000000000E+00
(PID.TID 0000.0001) %MON extforcing_qsw_mean          =   0.0000000000000E+00
(PID.TID 0000.0001) %MON extforcing_qsw_sd            =   0.0000000000000E+00
(PID.TID 0000.0001) %MON extforcing_qsw_del2          =   0.0000000000000E+00
(PID.TID 0000.0001) %MON extforcing_empmr_max         =   0.0000000000000E+00
(PID.TID 0000.0001) %MON extforcing_empmr_min         =   0.0000000000000E+00
(PID.TID 0000.0001) %MON extforcing_empmr_mean        =   0.0000000000000E+00
(PID.TID 0000.0001) %MON extforcing_empmr_sd          =   0.0000000000000E+00
(PID.TID 0000.0001) %MON extforcing_empmr_del2        =   0.0000000000000E+00
(PID.TID 0000.0001) %MON advcfl_uvel_max              =   1.0010573185611E-01
(PID.TID 0000.0001) %MON advcfl_vvel_max              =   5.9876413272402E-03
(PID.TID 0000.0001) %MON advcfl_wvel_max              =   2.6564229621892E-03
(PID.TID 0000.0001) %MON advcfl_W_hf_max              =   2.2413148552754E-03
(PID.TID 0000.0001) %MON pe_b_mean                    =   2.5727037331772E-03
(PID.TID 0000.0001) %MON ke_max                       =   7.4646641888031E-02
(PID.TID 0000.0001) %MON ke_mean                      =   8.3251369802752E-04
(PID.TID 0000.0001) %MON ke_vol                       =   2.1823819113454E+16
(PID.TID 0000.0001) %MON vort_r_min                   =  -1.7699244571978E-07
(PID.TID 0000.0001) %MON vort_r_max                   =   1.7699244571960E-07
(PID.TID 0000.0001) %MON vort_a_mean                  =   2.7861254556126E-21
(PID.TID 0000.0001) %MON vort_a_sd                    =   8.3264743430472E-05
(PID.TID 0000.0001) %MON vort_p_mean                  =   2.8034944168185E-21
(PID.TID 0000.0001) %MON vort_p_sd                    =   8.6550969057671E-05
(PID.TID 0000.0001) %MON surfExpan_theta_mean         =  -3.7886641322618E-06
(PID.TID 0000.0001) %MON surfExpan_salt_mean          =  -4.4381575587886E-22
(PID.TID 0000.0001) // =======================================================
(PID.TID 0000.0001) // End MONITOR dynamic field statistics
(PID.TID 0000.0001) // =======================================================
 Computing Diagnostic #     23  ETAN         Counter:       1   Parms: SM      M1      
 Computing Diagnostic #     24  ETANSQ       Counter:       1   Parms: SM P    M1      
 Computing Diagnostic #     25  DETADT2      Counter:       1   Parms: SM      M1      
 Computing Diagnostic #     69  PHIBOT       Counter:       1   Parms: SM      M1      
 Computing Diagnostic #     70  PHIBOTSQ     Counter:       1   Parms: SM P    M1      
 Computing Diagnostic #    171  GM_VisbK     Counter:       1   Parms: SM P    M1      
 cg2d: Sum(rhs),rhsMax =   8.88178419700125E-15  1.47881445599991E+00
(PID.TID 0000.0001)                    cg2d_init_res =    6.66242061618569E-03
(PID.TID 0000.0001)                       cg2d_iters =    27
(PID.TID 0000.0001)                         cg2d_res =    4.10401725053720E-17
(PID.TID 0000.0001) // =======================================================
(PID.TID 0000.0001) // Begin MONITOR dynamic field statistics
(PID.TID 0000.0001) // =======================================================
(PID.TID 0000.0001) %MON time_tsnumber                =                 36007
(PID.TID 0000.0001) %MON time_secondsf                =   3.1110048000000E+09
(PID.TID 0000.0001) %MON dynstat_eta_max              =   1.6154359047475E+00
(PID.TID 0000.0001) %MON dynstat_eta_min              =  -3.9285127112441E+00
(PID.TID 0000.0001) %MON dynstat_eta_mean             =  -2.9783971202332E-16
(PID.TID 0000.0001) %MON dynstat_eta_sd               =   1.6503680519889E+00
(PID.TID 0000.0001) %MON dynstat_eta_del2             =   1.3945576827791E-02
(PID.TID 0000.0001) %MON dynstat_uvel_max             =   1.4290466258714E-01
(PID.TID 0000.0001) %MON dynstat_uvel_min             =  -3.8630889599492E-01
(PID.TID 0000.0001) %MON dynstat_uvel_mean            =   1.2748935025985E-02
(PID.TID 0000.0001) %MON dynstat_uvel_sd              =   3.8740264988119E-02
(PID.TID 0000.0001) %MON dynstat_uvel_del2            =   6.1885749330178E-04
(PID.TID 0000.0001) %MON dynstat_vvel_max             =   2.3123828888890E-02
(PID.TID 0000.0001) %MON dynstat_vvel_min             =  -2.3123828888854E-02
(PID.TID 0000.0001) %MON dynstat_vvel_mean            =   1.2497483274577E-15
(PID.TID 0000.0001) %MON dynstat_vvel_sd              =   1.5603154395512E-03
(PID.TID 0000.0001) %MON dynstat_vvel_del2            =   7.2923438312011E-05
(PID.TID 0000.0001) %MON dynstat_wvel_max             =   1.2765031024762E-06
(PID.TID 0000.0001) %MON dynstat_wvel_min             =  -1.0962261722382E-06
(PID.TID 0000.0001) %MON dynstat_wvel_mean            =   1.7569613428606E-23
(PID.TID 0000.0001) %MON dynstat_wvel_sd              =   3.4542992156831E-07
(PID.TID 0000.0001) %MON dynstat_wvel_del2            =   3.6568202362928E-08
(PID.TID 0000.0001) %MON dynstat_theta_max            =   2.6669102762493E+01
(PID.TID 0000.0001) %MON dynstat_theta_min            =  -9.3077498173582E-01
(PID.TID 0000.0001) %MON dynstat_theta_mean           =   2.2242058647446E+00
(PID.TID 0000.0001) %MON dynstat_theta_sd             =   3.9275186060065E+00
(PID.TID 0000.0001) %MON dynstat_theta_del2           =   4.1692399506236E-02
(PID.TID 0000.0001) %MON dynstat_salt_max             =   3.4700000000000E+01
(PID.TID 0000.0001) %MON dynstat_salt_min             =   3.4700000000000E+01
(PID.TID 0000.0001) %MON dynstat_salt_mean            =   3.4700000000000E+01
(PID.TID 0000.0001) %MON dynstat_salt_sd              =   7.1054273576010E-15
(PID.TID 0000.0001) %MON dynstat_salt_del2            =   0.0000000000000E+00
(PID.TID 0000.0001) %MON extforcing_qnet_max          =   0.0000000000000E+00
(PID.TID 0000.0001) %MON extforcing_qnet_min          =   0.0000000000000E+00
(PID.TID 0000.0001) %MON extforcing_qnet_mean         =   0.0000000000000E+00
(PID.TID 0000.0001) %MON extforcing_qnet_sd           =   0.0000000000000E+00
(PID.TID 0000.0001) %MON extforcing_qnet_del2         =   0.0000000000000E+00
(PID.TID 0000.0001) %MON extforcing_qsw_max           =   0.0000000000000E+00
(PID.TID 0000.0001) %MON extforcing_qsw_min           =   0.0000000000000E+00
(PID.TID 0000.0001) %MON extforcing_qsw_mean          =   0.0000000000000E+00
(PID.TID 0000.0001) %MON extforcing_qsw_sd            =   0.0000000000000E+00
(PID.TID 0000.0001) %MON extforcing_qsw_del2          =   0.0000000000000E+00
(PID.TID 0000.0001) %MON extforcing_empmr_max         =   0.0000000000000E+00
(PID.TID 0000.0001) %MON extforcing_empmr_min         =   0.0000000000000E+00
(PID.TID 0000.0001) %MON extforcing_empmr_mean        =   0.0000000000000E+00
(PID.TID 0000.0001) %MON extforcing_empmr_sd          =   0.0000000000000E+00
(PID.TID 0000.0001) %MON extforcing_empmr_del2        =   0.0000000000000E+00
(PID.TID 0000.0001) %MON advcfl_uvel_max              =   1.0010580088043E-01
(PID.TID 0000.0001) %MON advcfl_vvel_max              =   5.9901187886440E-03
(PID.TID 0000.0001) %MON advcfl_wvel_max              =   3.0352756635625E-03
(PID.TID 0000.0001) %MON advcfl_W_hf_max              =   2.2057973610789E-03
(PID.TID 0000.0001) %MON pe_b_mean                    =   2.5691962765311E-03
(PID.TID 0000.0001) %MON ke_max                       =   7.4646745804931E-02
(PID.TID 0000.0001) %MON ke_mean                      =   8.3297871507826E-04
(PID.TID 0000.0001) %MON ke_vol                       =   2.1823819113454E+16
(PID.TID 0000.0001) %MON vort_r_min                   =  -1.7700075698251E-07
(PID.TID 0000.0001) %MON vort_r_max                   =   1.7700075698233E-07
(PID.TID 0000.0001) %MON vort_a_mean                  =   0.0000000000000E+00
(PID.TID 0000.0001) %MON vort_a_sd                    =   8.3264747006056E-05
(PID.TID 0000.0001) %MON vort_p_mean                  =   0.0000000000000E+00
(PID.TID 0000.0001) %MON vort_p_sd                    =   8.6550973031507E-05
(PID.TID 0000.0001) %MON surfExpan_theta_mean         =  -3.8249210203232E-06
(PID.TID 0000.0001) %MON surfExpan_salt_mean          =   8.8763151175772E-22
(PID.TID 0000.0001) // =======================================================
(PID.TID 0000.0001) // End MONITOR dynamic field statistics
(PID.TID 0000.0001) // =======================================================
 cg2d: Sum(rhs),rhsMax =   1.06581410364015E-14  1.47855189914828E+00
(PID.TID 0000.0001)                    cg2d_init_res =    6.48872129942098E-03
(PID.TID 0000.0001)                       cg2d_iters =    27
(PID.TID 0000.0001)                         cg2d_res =    3.70807455044758E-17
(PID.TID 0000.0001) // =======================================================
(PID.TID 0000.0001) // Begin MONITOR dynamic field statistics
(PID.TID 0000.0001) // =======================================================
(PID.TID 0000.0001) %MON time_tsnumber                =                 36008
(PID.TID 0000.0001) %MON time_secondsf                =   3.1110912000000E+09
(PID.TID 0000.0001) %MON dynstat_eta_max              =   1.6150761091864E+00
(PID.TID 0000.0001) %MON dynstat_eta_min              =  -3.9258244198488E+00
(PID.TID 0000.0001) %MON dynstat_eta_mean             =  -3.7229964002914E-16
(PID.TID 0000.0001) %MON dynstat_eta_sd               =   1.6492889296922E+00
(PID.TID 0000.0001) %MON dynstat_eta_del2             =   1.3946758745976E-02
(PID.TID 0000.0001) %MON dynstat_uvel_max             =   1.4293676315305E-01
(PID.TID 0000.0001) %MON dynstat_uvel_min             =  -3.8630918316326E-01
(PID.TID 0000.0001) %MON dynstat_uvel_mean            =   1.2766948814027E-02
(PID.TID 0000.0001) %MON dynstat_uvel_sd              =   3.8746120216272E-02
(PID.TID 0000.0001) %MON dynstat_uvel_del2            =   6.1895038859434E-04
(PID.TID 0000.0001) %MON dynstat_vvel_max             =   2.3125702632032E-02
(PID.TID 0000.0001) %MON dynstat_vvel_min             =  -2.3125702631997E-02
(PID.TID 0000.0001) %MON dynstat_vvel_mean            =   1.2692900429022E-15
(PID.TID 0000.0001) %MON dynstat_vvel_sd              =   1.5598525237796E-03
(PID.TID 0000.0001) %MON dynstat_vvel_del2            =   7.2933924844528E-05
(PID.TID 0000.0001) %MON dynstat_wvel_max             =   1.2362500890530E-06
(PID.TID 0000.0001) %MON dynstat_wvel_min             =  -1.0992576221491E-06
(PID.TID 0000.0001) %MON dynstat_wvel_mean            =  -1.7569613428606E-23
(PID.TID 0000.0001) %MON dynstat_wvel_sd              =   3.4112257723324E-07
(PID.TID 0000.0001) %MON dynstat_wvel_del2            =   3.6506101063076E-08
(PID.TID 0000.0001) %MON dynstat_theta_max            =   2.6671691973883E+01
(PID.TID 0000.0001) %MON dynstat_theta_min            =  -9.3077694233683E-01
(PID.TID 0000.0001) %MON dynstat_theta_mean           =   2.2242577203994E+00
(PID.TID 0000.0001) %MON dynstat_theta_sd             =   3.9277103280723E+00
(PID.TID 0000.0001) %MON dynstat_theta_del2           =   4.1684247277810E-02
(PID.TID 0000.0001) %MON dynstat_salt_max             =   3.4700000000000E+01
(PID.TID 0000.0001) %MON dynstat_salt_min             =   3.4700000000000E+01
(PID.TID 0000.0001) %MON dynstat_salt_mean            =   3.4700000000000E+01
(PID.TID 0000.0001) %MON dynstat_salt_sd              =   7.1054273576010E-15
(PID.TID 0000.0001) %MON dynstat_salt_del2            =   0.0000000000000E+00
(PID.TID 0000.0001) %MON extforcing_qnet_max          =   0.0000000000000E+00
(PID.TID 0000.0001) %MON extforcing_qnet_min          =   0.0000000000000E+00
(PID.TID 0000.0001) %MON extforcing_qnet_mean         =   0.0000000000000E+00
(PID.TID 0000.0001) %MON extforcing_qnet_sd           =   0.0000000000000E+00
(PID.TID 0000.0001) %MON extforcing_qnet_del2         =   0.0000000000000E+00
(PID.TID 0000.0001) %MON extforcing_qsw_max           =   0.0000000000000E+00
(PID.TID 0000.0001) %MON extforcing_qsw_min           =   0.0000000000000E+00
(PID.TID 0000.0001) %MON extforcing_qsw_mean          =   0.0000000000000E+00
(PID.TID 0000.0001) %MON extforcing_qsw_sd            =   0.0000000000000E+00
(PID.TID 0000.0001) %MON extforcing_qsw_del2          =   0.0000000000000E+00
(PID.TID 0000.0001) %MON extforcing_empmr_max         =   0.0000000000000E+00
(PID.TID 0000.0001) %MON extforcing_empmr_min         =   0.0000000000000E+00
(PID.TID 0000.0001) %MON extforcing_empmr_mean        =   0.0000000000000E+00
(PID.TID 0000.0001) %MON extforcing_empmr_sd          =   0.0000000000000E+00
(PID.TID 0000.0001) %MON extforcing_empmr_del2        =   0.0000000000000E+00
(PID.TID 0000.0001) %MON advcfl_uvel_max              =   1.0010587529553E-01
(PID.TID 0000.0001) %MON advcfl_vvel_max              =   5.9906041729659E-03
(PID.TID 0000.0001) %MON advcfl_wvel_max              =   3.2259496745354E-03
(PID.TID 0000.0001) %MON advcfl_W_hf_max              =   2.1362401538835E-03
(PID.TID 0000.0001) %MON pe_b_mean                    =   2.5658375462563E-03
(PID.TID 0000.0001) %MON ke_max                       =   7.4646844819154E-02
(PID.TID 0000.0001) %MON ke_mean                      =   8.3343471731418E-04
(PID.TID 0000.0001) %MON ke_vol                       =   2.1823819113454E+16
(PID.TID 0000.0001) %MON vort_r_min                   =  -1.7700926874176E-07
(PID.TID 0000.0001) %MON vort_r_max                   =   1.7700926874158E-07
(PID.TID 0000.0001) %MON vort_a_mean                  =  -5.5722509112253E-21
(PID.TID 0000.0001) %MON vort_a_sd                    =   8.3264750523719E-05
(PID.TID 0000.0001) %MON vort_p_mean                  =  -5.6069888336370E-21
(PID.TID 0000.0001) %MON vort_p_sd                    =   8.6550977009850E-05
(PID.TID 0000.0001) %MON surfExpan_theta_mean         =  -3.6937909022914E-06
(PID.TID 0000.0001) %MON surfExpan_salt_mean          =  -4.4381575587886E-22
(PID.TID 0000.0001) // =======================================================
(PID.TID 0000.0001) // End MONITOR dynamic field statistics
(PID.TID 0000.0001) // =======================================================
 cg2d: Sum(rhs),rhsMax =   1.24344978758018E-14  1.47835308554195E+00
(PID.TID 0000.0001)                    cg2d_init_res =    6.01820247348875E-03
(PID.TID 0000.0001)                       cg2d_iters =    27
(PID.TID 0000.0001)                         cg2d_res =    1.93935005346357E-17
(PID.TID 0000.0001) // =======================================================
(PID.TID 0000.0001) // Begin MONITOR dynamic field statistics
(PID.TID 0000.0001) // =======================================================
(PID.TID 0000.0001) %MON time_tsnumber                =                 36009
(PID.TID 0000.0001) %MON time_secondsf                =   3.1111776000000E+09
(PID.TID 0000.0001) %MON dynstat_eta_max              =   1.6147847552530E+00
(PID.TID 0000.0001) %MON dynstat_eta_min              =  -3.9231901139408E+00
(PID.TID 0000.0001) %MON dynstat_eta_mean             =  -4.4675956803497E-16
(PID.TID 0000.0001) %MON dynstat_eta_sd               =   1.6482972359332E+00
(PID.TID 0000.0001) %MON dynstat_eta_del2             =   1.3948572407985E-02
(PID.TID 0000.0001) %MON dynstat_uvel_max             =   1.4296639141676E-01
(PID.TID 0000.0001) %MON dynstat_uvel_min             =  -3.8630945008339E-01
(PID.TID 0000.0001) %MON dynstat_uvel_mean            =   1.2783923677798E-02
(PID.TID 0000.0001) %MON dynstat_uvel_sd              =   3.8751585690918E-02
(PID.TID 0000.0001) %MON dynstat_uvel_del2            =   6.1903788567051E-04
(PID.TID 0000.0001) %MON dynstat_vvel_max             =   2.3120299224225E-02
(PID.TID 0000.0001) %MON dynstat_vvel_min             =  -2.3120299224191E-02
(PID.TID 0000.0001) %MON dynstat_vvel_mean            =   1.2568615568288E-15
(PID.TID 0000.0001) %MON dynstat_vvel_sd              =   1.5585183799620E-03
(PID.TID 0000.0001) %MON dynstat_vvel_del2            =   7.2925284903021E-05
(PID.TID 0000.0001) %MON dynstat_wvel_max             =   1.1829782853604E-06
(PID.TID 0000.0001) %MON dynstat_wvel_min             =  -1.0694857292791E-06
(PID.TID 0000.0001) %MON dynstat_wvel_mean            =  -5.2708840285819E-23
(PID.TID 0000.0001) %MON dynstat_wvel_sd              =   3.2997519290144E-07
(PID.TID 0000.0001) %MON dynstat_wvel_del2            =   3.6429935681278E-08
(PID.TID 0000.0001) %MON dynstat_theta_max            =   2.6674007875829E+01
(PID.TID 0000.0001) %MON dynstat_theta_min            =  -9.3077890830661E-01
(PID.TID 0000.0001) %MON dynstat_theta_mean           =   2.2243045812648E+00
(PID.TID 0000.0001) %MON dynstat_theta_sd             =   3.9278856870545E+00
(PID.TID 0000.0001) %MON dynstat_theta_del2           =   4.1676769034885E-02
(PID.TID 0000.0001) %MON dynstat_salt_max             =   3.4700000000000E+01
(PID.TID 0000.0001) %MON dynstat_salt_min             =   3.4700000000000E+01
(PID.TID 0000.0001) %MON dynstat_salt_mean            =   3.4700000000000E+01
(PID.TID 0000.0001) %MON dynstat_salt_sd              =   7.1054273576010E-15
(PID.TID 0000.0001) %MON dynstat_salt_del2            =   0.0000000000000E+00
(PID.TID 0000.0001) %MON extforcing_qnet_max          =   0.0000000000000E+00
(PID.TID 0000.0001) %MON extforcing_qnet_min          =   0.0000000000000E+00
(PID.TID 0000.0001) %MON extforcing_qnet_mean         =   0.0000000000000E+00
(PID.TID 0000.0001) %MON extforcing_qnet_sd           =   0.0000000000000E+00
(PID.TID 0000.0001) %MON extforcing_qnet_del2         =   0.0000000000000E+00
(PID.TID 0000.0001) %MON extforcing_qsw_max           =   0.0000000000000E+00
(PID.TID 0000.0001) %MON extforcing_qsw_min           =   0.0000000000000E+00
(PID.TID 0000.0001) %MON extforcing_qsw_mean          =   0.0000000000000E+00
(PID.TID 0000.0001) %MON extforcing_qsw_sd            =   0.0000000000000E+00
(PID.TID 0000.0001) %MON extforcing_qsw_del2          =   0.0000000000000E+00
(PID.TID 0000.0001) %MON extforcing_empmr_max         =   0.0000000000000E+00
(PID.TID 0000.0001) %MON extforcing_empmr_min         =   0.0000000000000E+00
(PID.TID 0000.0001) %MON extforcing_empmr_mean        =   0.0000000000000E+00
(PID.TID 0000.0001) %MON extforcing_empmr_sd          =   0.0000000000000E+00
(PID.TID 0000.0001) %MON extforcing_empmr_del2        =   0.0000000000000E+00
(PID.TID 0000.0001) %MON advcfl_uvel_max              =   1.0010594446363E-01
(PID.TID 0000.0001) %MON advcfl_vvel_max              =   5.9892044456636E-03
(PID.TID 0000.0001) %MON advcfl_wvel_max              =   3.1611670897401E-03
(PID.TID 0000.0001) %MON advcfl_W_hf_max              =   2.0441864771027E-03
(PID.TID 0000.0001) %MON pe_b_mean                    =   2.5627528713494E-03
(PID.TID 0000.0001) %MON ke_max                       =   7.4646923607237E-02
(PID.TID 0000.0001) %MON ke_mean                      =   8.3386133736889E-04
(PID.TID 0000.0001) %MON ke_vol                       =   2.1823819113454E+16
(PID.TID 0000.0001) %MON vort_r_min                   =  -1.7701763822630E-07
(PID.TID 0000.0001) %MON vort_r_max                   =   1.7701763822612E-07
(PID.TID 0000.0001) %MON vort_a_mean                  =  -1.1144501822451E-20
(PID.TID 0000.0001) %MON vort_a_sd                    =   8.3264753829740E-05
(PID.TID 0000.0001) %MON vort_p_mean                  =  -1.1213977667274E-20
(PID.TID 0000.0001) %MON vort_p_sd                    =   8.6550980801828E-05
(PID.TID 0000.0001) %MON surfExpan_theta_mean         =  -3.4085196333859E-06
(PID.TID 0000.0001) %MON surfExpan_salt_mean          =   4.4381575587886E-22
(PID.TID 0000.0001) // =======================================================
(PID.TID 0000.0001) // End MONITOR dynamic field statistics
(PID.TID 0000.0001) // =======================================================
 cg2d: Sum(rhs),rhsMax =   8.88178419700125E-15  1.47817146078973E+00
(PID.TID 0000.0001)                    cg2d_init_res =    5.26849026984399E-03
(PID.TID 0000.0001)                       cg2d_iters =    27
(PID.TID 0000.0001)                         cg2d_res =    9.57020299899899E-18
(PID.TID 0000.0001) // =======================================================
(PID.TID 0000.0001) // Begin MONITOR dynamic field statistics
(PID.TID 0000.0001) // =======================================================
(PID.TID 0000.0001) %MON time_tsnumber                =                 36010
(PID.TID 0000.0001) %MON time_secondsf                =   3.1112640000000E+09
(PID.TID 0000.0001) %MON dynstat_eta_max              =   1.6145241172668E+00
(PID.TID 0000.0001) %MON dynstat_eta_min              =  -3.9208242878007E+00
(PID.TID 0000.0001) %MON dynstat_eta_mean             =  -2.9783971202332E-16
(PID.TID 0000.0001) %MON dynstat_eta_sd               =   1.6474290283502E+00
(PID.TID 0000.0001) %MON dynstat_eta_del2             =   1.3950329689900E-02
(PID.TID 0000.0001) %MON dynstat_uvel_max             =   1.4299259967530E-01
(PID.TID 0000.0001) %MON dynstat_uvel_min             =  -3.8630966115980E-01
(PID.TID 0000.0001) %MON dynstat_uvel_mean            =   1.2799099785971E-02
(PID.TID 0000.0001) %MON dynstat_uvel_sd              =   3.8756427789301E-02
(PID.TID 0000.0001) %MON dynstat_uvel_del2            =   6.1911514538410E-04
(PID.TID 0000.0001) %MON dynstat_vvel_max             =   2.3108799623557E-02
(PID.TID 0000.0001) %MON dynstat_vvel_min             =  -2.3108799623524E-02
(PID.TID 0000.0001) %MON dynstat_vvel_mean            =   1.2123504959456E-15
(PID.TID 0000.0001) %MON dynstat_vvel_sd              =   1.5566039373479E-03
(PID.TID 0000.0001) %MON dynstat_vvel_del2            =   7.2895823042551E-05
(PID.TID 0000.0001) %MON dynstat_wvel_max             =   1.1214559569693E-06
(PID.TID 0000.0001) %MON dynstat_wvel_min             =  -1.0196601099815E-06
(PID.TID 0000.0001) %MON dynstat_wvel_mean            =  -2.9282689047677E-23
(PID.TID 0000.0001) %MON dynstat_wvel_sd              =   3.1351993473099E-07
(PID.TID 0000.0001) %MON dynstat_wvel_del2            =   3.6341236904583E-08
(PID.TID 0000.0001) %MON dynstat_theta_max            =   2.6675895817640E+01
(PID.TID 0000.0001) %MON dynstat_theta_min            =  -9.3078088021897E-01
(PID.TID 0000.0001) %MON dynstat_theta_mean           =   2.2243441954932E+00
(PID.TID 0000.0001) %MON dynstat_theta_sd             =   3.9280372798483E+00
(PID.TID 0000.0001) %MON dynstat_theta_del2           =   4.1670584503323E-02
(PID.TID 0000.0001) %MON dynstat_salt_max             =   3.4700000000000E+01
(PID.TID 0000.0001) %MON dynstat_salt_min             =   3.4700000000000E+01
(PID.TID 0000.0001) %MON dynstat_salt_mean            =   3.4700000000000E+01
(PID.TID 0000.0001) %MON dynstat_salt_sd              =   7.1054273576010E-15
(PID.TID 0000.0001) %MON dynstat_salt_del2            =   0.0000000000000E+00
(PID.TID 0000.0001) %MON extforcing_qnet_max          =   0.0000000000000E+00
(PID.TID 0000.0001) %MON extforcing_qnet_min          =   0.0000000000000E+00
(PID.TID 0000.0001) %MON extforcing_qnet_mean         =   0.0000000000000E+00
(PID.TID 0000.0001) %MON extforcing_qnet_sd           =   0.0000000000000E+00
(PID.TID 0000.0001) %MON extforcing_qnet_del2         =   0.0000000000000E+00
(PID.TID 0000.0001) %MON extforcing_qsw_max           =   0.0000000000000E+00
(PID.TID 0000.0001) %MON extforcing_qsw_min           =   0.0000000000000E+00
(PID.TID 0000.0001) %MON extforcing_qsw_mean          =   0.0000000000000E+00
(PID.TID 0000.0001) %MON extforcing_qsw_sd            =   0.0000000000000E+00
(PID.TID 0000.0001) %MON extforcing_qsw_del2          =   0.0000000000000E+00
(PID.TID 0000.0001) %MON extforcing_empmr_max         =   0.0000000000000E+00
(PID.TID 0000.0001) %MON extforcing_empmr_min         =   0.0000000000000E+00
(PID.TID 0000.0001) %MON extforcing_empmr_mean        =   0.0000000000000E+00
(PID.TID 0000.0001) %MON extforcing_empmr_sd          =   0.0000000000000E+00
(PID.TID 0000.0001) %MON extforcing_empmr_del2        =   0.0000000000000E+00
(PID.TID 0000.0001) %MON advcfl_uvel_max              =   1.0010599916073E-01
(PID.TID 0000.0001) %MON advcfl_vvel_max              =   5.9862255283591E-03
(PID.TID 0000.0001) %MON advcfl_wvel_max              =   2.8389913682141E-03
(PID.TID 0000.0001) %MON advcfl_W_hf_max              =   1.9378758936429E-03
(PID.TID 0000.0001) %MON pe_b_mean                    =   2.5600538247937E-03
(PID.TID 0000.0001) %MON ke_max                       =   7.4646970205975E-02
(PID.TID 0000.0001) %MON ke_mean                      =   8.3424018824647E-04
(PID.TID 0000.0001) %MON ke_vol                       =   2.1823819113454E+16
(PID.TID 0000.0001) %MON vort_r_min                   =  -1.7702553499507E-07
(PID.TID 0000.0001) %MON vort_r_max                   =   1.7702553499489E-07
(PID.TID 0000.0001) %MON vort_a_mean                  =   3.0647380011739E-20
(PID.TID 0000.0001) %MON vort_a_sd                    =   8.3264756784179E-05
(PID.TID 0000.0001) %MON vort_p_mean                  =   3.0838438585004E-20
(PID.TID 0000.0001) %MON vort_p_sd                    =   8.6550984224573E-05
(PID.TID 0000.0001) %MON surfExpan_theta_mean         =  -2.9860328966069E-06
(PID.TID 0000.0001) %MON surfExpan_salt_mean          =   0.0000000000000E+00
(PID.TID 0000.0001) // =======================================================
(PID.TID 0000.0001) // End MONITOR dynamic field statistics
(PID.TID 0000.0001) // =======================================================
 Computing Diagnostic #     72  DRHODR       Counter:      10   Parms: SM      LR      
 Computing Diagnostic #     62  RHOAnoma     Counter:      10   Parms: SM      MR      
 Computing Diagnostic #    183  GM_PsiY      Counter:      10   Parms: VV   182LR      
           Vector  Mate for  GM_PsiY      Diagnostic #    182  GM_PsiX  not enabled
 Computing Diagnostic #    176  GM_Kvy       Counter:      10   Parms: VV P 175MR      
           Vector  Mate for  GM_Kvy       Diagnostic #    175  GM_Kux   not enabled
 Computing Diagnostic #    178  GM_Kvz       Counter:      10   Parms: VV   177MR      
           Vector  Mate for  GM_Kvz       Diagnostic #    177  GM_Kuz   not enabled
 Computing Diagnostic #    180  GM_Kwy       Counter:      10   Parms: VM   179LR      
           Vector  Mate for  GM_Kwy       Diagnostic #    179  GM_Kwx   not enabled
 Computing Diagnostic #    181  GM_Kwz       Counter:      10   Parms: WM P    LR      
 cg2d: Sum(rhs),rhsMax =   7.10542735760100E-15  1.47798468966272E+00
(PID.TID 0000.0001)                    cg2d_init_res =    4.29241872821971E-03
(PID.TID 0000.0001)                       cg2d_iters =    27
(PID.TID 0000.0001)                         cg2d_res =    1.96460326130835E-17
(PID.TID 0000.0001) // =======================================================
(PID.TID 0000.0001) // Begin MONITOR dynamic field statistics
(PID.TID 0000.0001) // =======================================================
(PID.TID 0000.0001) %MON time_tsnumber                =                 36011
(PID.TID 0000.0001) %MON time_secondsf                =   3.1113504000000E+09
(PID.TID 0000.0001) %MON dynstat_eta_max              =   1.6142767153123E+00
(PID.TID 0000.0001) %MON dynstat_eta_min              =  -3.9189093475940E+00
(PID.TID 0000.0001) %MON dynstat_eta_mean             =  -4.4675956803497E-16
(PID.TID 0000.0001) %MON dynstat_eta_sd               =   1.6467159253740E+00
(PID.TID 0000.0001) %MON dynstat_eta_del2             =   1.3951510197713E-02
(PID.TID 0000.0001) %MON dynstat_uvel_max             =   1.4301458760923E-01
(PID.TID 0000.0001) %MON dynstat_uvel_min             =  -3.8630978988415E-01
(PID.TID 0000.0001) %MON dynstat_uvel_mean            =   1.2811824526147E-02
(PID.TID 0000.0001) %MON dynstat_uvel_sd              =   3.8760445255560E-02
(PID.TID 0000.0001) %MON dynstat_uvel_del2            =   6.1917817237054E-04
(PID.TID 0000.0001) %MON dynstat_vvel_max             =   2.3092823848435E-02
(PID.TID 0000.0001) %MON dynstat_vvel_min             =  -2.3092823848403E-02
(PID.TID 0000.0001) %MON dynstat_vvel_mean            =   1.1233087088532E-15
(PID.TID 0000.0001) %MON dynstat_vvel_sd              =   1.5544983934489E-03
(PID.TID 0000.0001) %MON dynstat_vvel_del2            =   7.2851367713237E-05
(PID.TID 0000.0001) %MON dynstat_wvel_max             =   1.0541205749003E-06
(PID.TID 0000.0001) %MON dynstat_wvel_min             =  -9.5703509882964E-07
(PID.TID 0000.0001) %MON dynstat_wvel_mean            =  -1.7569613428606E-23
(PID.TID 0000.0001) %MON dynstat_wvel_sd              =   2.9449784638552E-07
(PID.TID 0000.0001) %MON dynstat_wvel_del2            =   3.6256954219186E-08
(PID.TID 0000.0001) %MON dynstat_theta_max            =   2.6677247517605E+01
(PID.TID 0000.0001) %MON dynstat_theta_min            =  -9.3078285836006E-01
(PID.TID 0000.0001) %MON dynstat_theta_mean           =   2.2243746721233E+00
(PID.TID 0000.0001) %MON dynstat_theta_sd             =   3.9281590086498E+00
(PID.TID 0000.0001) %MON dynstat_theta_del2           =   4.1666107969302E-02
(PID.TID 0000.0001) %MON dynstat_salt_max             =   3.4700000000000E+01
(PID.TID 0000.0001) %MON dynstat_salt_min             =   3.4700000000000E+01
(PID.TID 0000.0001) %MON dynstat_salt_mean            =   3.4700000000000E+01
(PID.TID 0000.0001) %MON dynstat_salt_sd              =   7.1054273576010E-15
(PID.TID 0000.0001) %MON dynstat_salt_del2            =   0.0000000000000E+00
(PID.TID 0000.0001) %MON extforcing_qnet_max          =   0.0000000000000E+00
(PID.TID 0000.0001) %MON extforcing_qnet_min          =   0.0000000000000E+00
(PID.TID 0000.0001) %MON extforcing_qnet_mean         =   0.0000000000000E+00
(PID.TID 0000.0001) %MON extforcing_qnet_sd           =   0.0000000000000E+00
(PID.TID 0000.0001) %MON extforcing_qnet_del2         =   0.0000000000000E+00
(PID.TID 0000.0001) %MON extforcing_qsw_max           =   0.0000000000000E+00
(PID.TID 0000.0001) %MON extforcing_qsw_min           =   0.0000000000000E+00
(PID.TID 0000.0001) %MON extforcing_qsw_mean          =   0.0000000000000E+00
(PID.TID 0000.0001) %MON extforcing_qsw_sd            =   0.0000000000000E+00
(PID.TID 0000.0001) %MON extforcing_qsw_del2          =   0.0000000000000E+00
(PID.TID 0000.0001) %MON extforcing_empmr_max         =   0.0000000000000E+00
(PID.TID 0000.0001) %MON extforcing_empmr_min         =   0.0000000000000E+00
(PID.TID 0000.0001) %MON extforcing_empmr_mean        =   0.0000000000000E+00
(PID.TID 0000.0001) %MON extforcing_empmr_sd          =   0.0000000000000E+00
(PID.TID 0000.0001) %MON extforcing_empmr_del2        =   0.0000000000000E+00
(PID.TID 0000.0001) %MON advcfl_uvel_max              =   1.0010603251759E-01
(PID.TID 0000.0001) %MON advcfl_vvel_max              =   5.9820870791783E-03
(PID.TID 0000.0001) %MON advcfl_wvel_max              =   2.2979282481705E-03
(PID.TID 0000.0001) %MON advcfl_W_hf_max              =   1.8215203534277E-03
(PID.TID 0000.0001) %MON pe_b_mean                    =   2.5578380244632E-03
(PID.TID 0000.0001) %MON ke_max                       =   7.4646977000600E-02
(PID.TID 0000.0001) %MON ke_mean                      =   8.3455562058775E-04
(PID.TID 0000.0001) %MON ke_vol                       =   2.1823819113454E+16
(PID.TID 0000.0001) %MON vort_r_min                   =  -1.7703267813585E-07
(PID.TID 0000.0001) %MON vort_r_max                   =   1.7703267813567E-07
(PID.TID 0000.0001) %MON vort_a_mean                  =   1.1144501822451E-20
(PID.TID 0000.0001) %MON vort_a_sd                    =   8.3264759267187E-05
(PID.TID 0000.0001) %MON vort_p_mean                  =   1.1213977667274E-20
(PID.TID 0000.0001) %MON vort_p_sd                    =   8.6550987117244E-05
(PID.TID 0000.0001) %MON surfExpan_theta_mean         =  -2.4470163242496E-06
(PID.TID 0000.0001) %MON surfExpan_salt_mean          =   0.0000000000000E+00
(PID.TID 0000.0001) // =======================================================
(PID.TID 0000.0001) // End MONITOR dynamic field statistics
(PID.TID 0000.0001) // =======================================================
 Compute Stats, Diag. #     23  ETAN      vol(   0 ): 4.197E+12  Parms: SM      M1      
 Compute Stats, Diag. #     30  UVEL      vol(   0 ): 2.182E+16  Parms: UU      MR      
 Compute Stats, Diag. #     31  VVEL      vol(   0 ): 2.173E+16  Parms: VV      MR      
 Compute Stats, Diag. #     32  WVEL      vol(   0 ): 2.035E+16  Parms: WM      LR      
 Compute Stats, Diag. #     26  THETA     vol(   0 ): 2.182E+16  Parms: SM      MR      
 cg2d: Sum(rhs),rhsMax =   1.06581410364015E-14  1.47779569867963E+00
(PID.TID 0000.0001)                    cg2d_init_res =    3.16101309573816E-03
(PID.TID 0000.0001)                       cg2d_iters =    27
(PID.TID 0000.0001)                         cg2d_res =    1.43682613628766E-17
(PID.TID 0000.0001) // =======================================================
(PID.TID 0000.0001) // Begin MONITOR dynamic field statistics
(PID.TID 0000.0001) // =======================================================
(PID.TID 0000.0001) %MON time_tsnumber                =                 36012
(PID.TID 0000.0001) %MON time_secondsf                =   3.1114368000000E+09
(PID.TID 0000.0001) %MON dynstat_eta_max              =   1.6140467719039E+00
(PID.TID 0000.0001) %MON dynstat_eta_min              =  -3.9175713398062E+00
(PID.TID 0000.0001) %MON dynstat_eta_mean             =  -2.9783971202332E-16
(PID.TID 0000.0001) %MON dynstat_eta_sd               =   1.6461843587818E+00
(PID.TID 0000.0001) %MON dynstat_eta_del2             =   1.3951846169352E-02
(PID.TID 0000.0001) %MON dynstat_uvel_max             =   1.4303167891826E-01
(PID.TID 0000.0001) %MON dynstat_uvel_min             =  -3.8630982046409E-01
(PID.TID 0000.0001) %MON dynstat_uvel_mean            =   1.2821586062344E-02
(PID.TID 0000.0001) %MON dynstat_uvel_sd              =   3.8763475987933E-02
(PID.TID 0000.0001) %MON dynstat_uvel_del2            =   6.1922415634196E-04
(PID.TID 0000.0001) %MON dynstat_vvel_max             =   2.3074132377605E-02
(PID.TID 0000.0001) %MON dynstat_vvel_min             =  -2.3074132377575E-02
(PID.TID 0000.0001) %MON dynstat_vvel_mean            =   9.9423393655605E-16
(PID.TID 0000.0001) %MON dynstat_vvel_sd              =   1.5526067433562E-03
(PID.TID 0000.0001) %MON dynstat_vvel_del2            =   7.2820928415435E-05
(PID.TID 0000.0001) %MON dynstat_wvel_max             =   1.1257386284857E-06
(PID.TID 0000.0001) %MON dynstat_wvel_min             =  -8.8354717641053E-07
(PID.TID 0000.0001) %MON dynstat_wvel_mean            =   1.4641344523839E-23
(PID.TID 0000.0001) %MON dynstat_wvel_sd              =   2.7634572540362E-07
(PID.TID 0000.0001) %MON dynstat_wvel_del2            =   3.6194527831308E-08
(PID.TID 0000.0001) %MON dynstat_theta_max            =   2.6678003308119E+01
(PID.TID 0000.0001) %MON dynstat_theta_min            =  -9.3078484276935E-01
(PID.TID 0000.0001) %MON dynstat_theta_mean           =   2.2243945400870E+00
(PID.TID 0000.0001) %MON dynstat_theta_sd             =   3.9282462758976E+00
(PID.TID 0000.0001) %MON dynstat_theta_del2           =   4.1663530858658E-02
(PID.TID 0000.0001) %MON dynstat_salt_max             =   3.4700000000000E+01
(PID.TID 0000.0001) %MON dynstat_salt_min             =   3.4700000000000E+01
(PID.TID 0000.0001) %MON dynstat_salt_mean            =   3.4700000000000E+01
(PID.TID 0000.0001) %MON dynstat_salt_sd              =   7.1054273576010E-15
(PID.TID 0000.0001) %MON dynstat_salt_del2            =   0.0000000000000E+00
(PID.TID 0000.0001) %MON extforcing_qnet_max          =   0.0000000000000E+00
(PID.TID 0000.0001) %MON extforcing_qnet_min          =   0.0000000000000E+00
(PID.TID 0000.0001) %MON extforcing_qnet_mean         =   0.0000000000000E+00
(PID.TID 0000.0001) %MON extforcing_qnet_sd           =   0.0000000000000E+00
(PID.TID 0000.0001) %MON extforcing_qnet_del2         =   0.0000000000000E+00
(PID.TID 0000.0001) %MON extforcing_qsw_max           =   0.0000000000000E+00
(PID.TID 0000.0001) %MON extforcing_qsw_min           =   0.0000000000000E+00
(PID.TID 0000.0001) %MON extforcing_qsw_mean          =   0.0000000000000E+00
(PID.TID 0000.0001) %MON extforcing_qsw_sd            =   0.0000000000000E+00
(PID.TID 0000.0001) %MON extforcing_qsw_del2          =   0.0000000000000E+00
(PID.TID 0000.0001) %MON extforcing_empmr_max         =   0.0000000000000E+00
(PID.TID 0000.0001) %MON extforcing_empmr_min         =   0.0000000000000E+00
(PID.TID 0000.0001) %MON extforcing_empmr_mean        =   0.0000000000000E+00
(PID.TID 0000.0001) %MON extforcing_empmr_sd          =   0.0000000000000E+00
(PID.TID 0000.0001) %MON extforcing_empmr_del2        =   0.0000000000000E+00
(PID.TID 0000.0001) %MON advcfl_uvel_max              =   1.0010604044190E-01
(PID.TID 0000.0001) %MON advcfl_vvel_max              =   5.9772451418355E-03
(PID.TID 0000.0001) %MON advcfl_wvel_max              =   1.6210636250194E-03
(PID.TID 0000.0001) %MON advcfl_W_hf_max              =   1.9452763500233E-03
(PID.TID 0000.0001) %MON pe_b_mean                    =   2.5561869299798E-03
(PID.TID 0000.0001) %MON ke_max                       =   7.4646940854230E-02
(PID.TID 0000.0001) %MON ke_mean                      =   8.3479531024194E-04
(PID.TID 0000.0001) %MON ke_vol                       =   2.1823819113454E+16
(PID.TID 0000.0001) %MON vort_r_min                   =  -1.7703885572913E-07
(PID.TID 0000.0001) %MON vort_r_max                   =   1.7703885572895E-07
(PID.TID 0000.0001) %MON vort_a_mean                  =   1.6716752733676E-20
(PID.TID 0000.0001) %MON vort_a_sd                    =   8.3264761184111E-05
(PID.TID 0000.0001) %MON vort_p_mean                  =   1.6820966500911E-20
(PID.TID 0000.0001) %MON vort_p_sd                    =   8.6550989352613E-05
(PID.TID 0000.0001) %MON surfExpan_theta_mean         =  -1.8160302897029E-06
(PID.TID 0000.0001) %MON surfExpan_salt_mean          =   0.0000000000000E+00
(PID.TID 0000.0001) // =======================================================
(PID.TID 0000.0001) // End MONITOR dynamic field statistics
(PID.TID 0000.0001) // =======================================================
 cg2d: Sum(rhs),rhsMax =   1.59872115546023E-14  1.47762559719807E+00
(PID.TID 0000.0001)                    cg2d_init_res =    1.95055873856015E-03
(PID.TID 0000.0001)                       cg2d_iters =    27
(PID.TID 0000.0001)                         cg2d_res =    8.23810066933893E-18
(PID.TID 0000.0001) // =======================================================
(PID.TID 0000.0001) // Begin MONITOR dynamic field statistics
(PID.TID 0000.0001) // =======================================================
(PID.TID 0000.0001) %MON time_tsnumber                =                 36013
(PID.TID 0000.0001) %MON time_secondsf                =   3.1115232000000E+09
(PID.TID 0000.0001) %MON dynstat_eta_max              =   1.6138547948305E+00
(PID.TID 0000.0001) %MON dynstat_eta_min              =  -3.9168689120012E+00
(PID.TID 0000.0001) %MON dynstat_eta_mean             =  -3.7229964002914E-16
(PID.TID 0000.0001) %MON dynstat_eta_sd               =   1.6458542756106E+00
(PID.TID 0000.0001) %MON dynstat_eta_del2             =   1.3951351564379E-02
(PID.TID 0000.0001) %MON dynstat_uvel_max             =   1.4304332207893E-01
(PID.TID 0000.0001) %MON dynstat_uvel_min             =  -3.8630974751421E-01
(PID.TID 0000.0001) %MON dynstat_uvel_mean            =   1.2828035812701E-02
(PID.TID 0000.0001) %MON dynstat_uvel_sd              =   3.8765403047138E-02
(PID.TID 0000.0001) %MON dynstat_uvel_del2            =   6.1925160015293E-04
(PID.TID 0000.0001) %MON dynstat_vvel_max             =   2.3054384836893E-02
(PID.TID 0000.0001) %MON dynstat_vvel_min             =  -2.3054384836865E-02
(PID.TID 0000.0001) %MON dynstat_vvel_mean            =   8.3488579944713E-16
(PID.TID 0000.0001) %MON dynstat_vvel_sd              =   1.5512695013111E-03
(PID.TID 0000.0001) %MON dynstat_vvel_del2            =   7.2814075350882E-05
(PID.TID 0000.0001) %MON dynstat_wvel_max             =   1.2290050431187E-06
(PID.TID 0000.0001) %MON dynstat_wvel_min             =  -8.4240155908305E-07
(PID.TID 0000.0001) %MON dynstat_wvel_mean            =  -2.9282689047677E-24
(PID.TID 0000.0001) %MON dynstat_wvel_sd              =   2.6243234347794E-07
(PID.TID 0000.0001) %MON dynstat_wvel_del2            =   3.6159442704164E-08
(PID.TID 0000.0001) %MON dynstat_theta_max            =   2.6678148690655E+01
(PID.TID 0000.0001) %MON dynstat_theta_min            =  -9.3078683334049E-01
(PID.TID 0000.0001) %MON dynstat_theta_mean           =   2.2244028042991E+00
(PID.TID 0000.0001) %MON dynstat_theta_sd             =   3.9282961708052E+00
(PID.TID 0000.0001) %MON dynstat_theta_del2           =   4.1662832337229E-02
(PID.TID 0000.0001) %MON dynstat_salt_max             =   3.4700000000000E+01
(PID.TID 0000.0001) %MON dynstat_salt_min             =   3.4700000000000E+01
(PID.TID 0000.0001) %MON dynstat_salt_mean            =   3.4700000000000E+01
(PID.TID 0000.0001) %MON dynstat_salt_sd              =   7.1054273576010E-15
(PID.TID 0000.0001) %MON dynstat_salt_del2            =   0.0000000000000E+00
(PID.TID 0000.0001) %MON extforcing_qnet_max          =   0.0000000000000E+00
(PID.TID 0000.0001) %MON extforcing_qnet_min          =   0.0000000000000E+00
(PID.TID 0000.0001) %MON extforcing_qnet_mean         =   0.0000000000000E+00
(PID.TID 0000.0001) %MON extforcing_qnet_sd           =   0.0000000000000E+00
(PID.TID 0000.0001) %MON extforcing_qnet_del2         =   0.0000000000000E+00
(PID.TID 0000.0001) %MON extforcing_qsw_max           =   0.0000000000000E+00
(PID.TID 0000.0001) %MON extforcing_qsw_min           =   0.0000000000000E+00
(PID.TID 0000.0001) %MON extforcing_qsw_mean          =   0.0000000000000E+00
(PID.TID 0000.0001) %MON extforcing_qsw_sd            =   0.0000000000000E+00
(PID.TID 0000.0001) %MON extforcing_qsw_del2          =   0.0000000000000E+00
(PID.TID 0000.0001) %MON extforcing_empmr_max         =   0.0000000000000E+00
(PID.TID 0000.0001) %MON extforcing_empmr_min         =   0.0000000000000E+00
(PID.TID 0000.0001) %MON extforcing_empmr_mean        =   0.0000000000000E+00
(PID.TID 0000.0001) %MON extforcing_empmr_sd          =   0.0000000000000E+00
(PID.TID 0000.0001) %MON extforcing_empmr_del2        =   0.0000000000000E+00
(PID.TID 0000.0001) %MON advcfl_uvel_max              =   1.0010602153810E-01
(PID.TID 0000.0001) %MON advcfl_vvel_max              =   5.9721296345717E-03
(PID.TID 0000.0001) %MON advcfl_wvel_max              =   1.7697672620909E-03
(PID.TID 0000.0001) %MON advcfl_W_hf_max              =   2.1237207145091E-03
(PID.TID 0000.0001) %MON pe_b_mean                    =   2.5551619297224E-03
(PID.TID 0000.0001) %MON ke_max                       =   7.4646862547830E-02
(PID.TID 0000.0001) %MON ke_mean                      =   8.3495068018693E-04
(PID.TID 0000.0001) %MON ke_vol                       =   2.1823819113454E+16
(PID.TID 0000.0001) %MON vort_r_min                   =  -1.7704393137925E-07
(PID.TID 0000.0001) %MON vort_r_max                   =   1.7704393137908E-07
(PID.TID 0000.0001) %MON vort_a_mean                  =   2.7861254556126E-21
(PID.TID 0000.0001) %MON vort_a_sd                    =   8.3264762469158E-05
(PID.TID 0000.0001) %MON vort_p_mean                  =   2.8034944168185E-21
(PID.TID 0000.0001) %MON vort_p_sd                    =   8.6550990844696E-05
(PID.TID 0000.0001) %MON surfExpan_theta_mean         =  -1.1213464410776E-06
(PID.TID 0000.0001) %MON surfExpan_salt_mean          =  -4.4381575587886E-22
(PID.TID 0000.0001) // =======================================================
(PID.TID 0000.0001) // End MONITOR dynamic field statistics
(PID.TID 0000.0001) // =======================================================
 cg2d: Sum(rhs),rhsMax =   7.10542735760100E-15  1.47750390817641E+00
(PID.TID 0000.0001)                    cg2d_init_res =    7.69653351432639E-04
(PID.TID 0000.0001)                       cg2d_iters =    27
(PID.TID 0000.0001)                         cg2d_res =    2.01702922575130E-17
(PID.TID 0000.0001) // =======================================================
(PID.TID 0000.0001) // Begin MONITOR dynamic field statistics
(PID.TID 0000.0001) // =======================================================
(PID.TID 0000.0001) %MON time_tsnumber                =                 36014
(PID.TID 0000.0001) %MON time_secondsf                =   3.1116096000000E+09
(PID.TID 0000.0001) %MON dynstat_eta_max              =   1.6137291159276E+00
(PID.TID 0000.0001) %MON dynstat_eta_min              =  -3.9167955328683E+00
(PID.TID 0000.0001) %MON dynstat_eta_mean             =  -3.7229964002914E-16
(PID.TID 0000.0001) %MON dynstat_eta_sd               =   1.6457375853280E+00
(PID.TID 0000.0001) %MON dynstat_eta_del2             =   1.3950280475088E-02
(PID.TID 0000.0001) %MON dynstat_uvel_max             =   1.4304911838407E-01
(PID.TID 0000.0001) %MON dynstat_uvel_min             =  -3.8630957434848E-01
(PID.TID 0000.0001) %MON dynstat_uvel_mean            =   1.2830999013067E-02
(PID.TID 0000.0001) %MON dynstat_uvel_sd              =   3.8766159624732E-02
(PID.TID 0000.0001) %MON dynstat_uvel_del2            =   6.1926027573992E-04
(PID.TID 0000.0001) %MON dynstat_vvel_max             =   2.3034981578126E-02
(PID.TID 0000.0001) %MON dynstat_vvel_min             =  -2.3034981578100E-02
(PID.TID 0000.0001) %MON dynstat_vvel_mean            =   6.4665807751138E-16
(PID.TID 0000.0001) %MON dynstat_vvel_sd              =   1.5507028979985E-03
(PID.TID 0000.0001) %MON dynstat_vvel_del2            =   7.2819614658904E-05
(PID.TID 0000.0001) %MON dynstat_wvel_max             =   1.3296804001085E-06
(PID.TID 0000.0001) %MON dynstat_wvel_min             =  -8.3775696268382E-07
(PID.TID 0000.0001) %MON dynstat_wvel_mean            =  -7.3206722619193E-24
(PID.TID 0000.0001) %MON dynstat_wvel_sd              =   2.5517992526387E-07
(PID.TID 0000.0001) %MON dynstat_wvel_del2            =   3.6157320992117E-08
(PID.TID 0000.0001) %MON dynstat_theta_max            =   2.6677707038276E+01
(PID.TID 0000.0001) %MON dynstat_theta_min            =  -9.3078882986427E-01
(PID.TID 0000.0001) %MON dynstat_theta_mean           =   2.2243989920368E+00
(PID.TID 0000.0001) %MON dynstat_theta_sd             =   3.9283075492219E+00
(PID.TID 0000.0001) %MON dynstat_theta_del2           =   4.1663818963463E-02
(PID.TID 0000.0001) %MON dynstat_salt_max             =   3.4700000000000E+01
(PID.TID 0000.0001) %MON dynstat_salt_min             =   3.4700000000000E+01
(PID.TID 0000.0001) %MON dynstat_salt_mean            =   3.4700000000000E+01
(PID.TID 0000.0001) %MON dynstat_salt_sd              =   7.1054273576010E-15
(PID.TID 0000.0001) %MON dynstat_salt_del2            =   0.0000000000000E+00
(PID.TID 0000.0001) %MON extforcing_qnet_max          =   0.0000000000000E+00
(PID.TID 0000.0001) %MON extforcing_qnet_min          =   0.0000000000000E+00
(PID.TID 0000.0001) %MON extforcing_qnet_mean         =   0.0000000000000E+00
(PID.TID 0000.0001) %MON extforcing_qnet_sd           =   0.0000000000000E+00
(PID.TID 0000.0001) %MON extforcing_qnet_del2         =   0.0000000000000E+00
(PID.TID 0000.0001) %MON extforcing_qsw_max           =   0.0000000000000E+00
(PID.TID 0000.0001) %MON extforcing_qsw_min           =   0.0000000000000E+00
(PID.TID 0000.0001) %MON extforcing_qsw_mean          =   0.0000000000000E+00
(PID.TID 0000.0001) %MON extforcing_qsw_sd            =   0.0000000000000E+00
(PID.TID 0000.0001) %MON extforcing_qsw_del2          =   0.0000000000000E+00
(PID.TID 0000.0001) %MON extforcing_empmr_max         =   0.0000000000000E+00
(PID.TID 0000.0001) %MON extforcing_empmr_min         =   0.0000000000000E+00
(PID.TID 0000.0001) %MON extforcing_empmr_mean        =   0.0000000000000E+00
(PID.TID 0000.0001) %MON extforcing_empmr_sd          =   0.0000000000000E+00
(PID.TID 0000.0001) %MON extforcing_empmr_del2        =   0.0000000000000E+00
(PID.TID 0000.0001) %MON advcfl_uvel_max              =   1.0010597666496E-01
(PID.TID 0000.0001) %MON advcfl_vvel_max              =   5.9671033119217E-03
(PID.TID 0000.0001) %MON advcfl_wvel_max              =   1.9147397761562E-03
(PID.TID 0000.0001) %MON advcfl_W_hf_max              =   2.2976877313874E-03
(PID.TID 0000.0001) %MON pe_b_mean                    =   2.5547996230441E-03
(PID.TID 0000.0001) %MON ke_max                       =   7.4646745821596E-02
(PID.TID 0000.0001) %MON ke_mean                      =   8.3501715868361E-04
(PID.TID 0000.0001) %MON ke_vol                       =   2.1823819113454E+16
(PID.TID 0000.0001) %MON vort_r_min                   =  -1.7704784267306E-07
(PID.TID 0000.0001) %MON vort_r_max                   =   1.7704784267288E-07
(PID.TID 0000.0001) %MON vort_a_mean                  =  -1.6716752733676E-20
(PID.TID 0000.0001) %MON vort_a_sd                    =   8.3264763087484E-05
(PID.TID 0000.0001) %MON vort_p_mean                  =  -1.6820966500911E-20
(PID.TID 0000.0001) %MON vort_p_sd                    =   8.6550991551889E-05
(PID.TID 0000.0001) %MON surfExpan_theta_mean         =  -3.9430938462698E-07
(PID.TID 0000.0001) %MON surfExpan_salt_mean          =   1.1095393896971E-22
(PID.TID 0000.0001) // =======================================================
(PID.TID 0000.0001) // End MONITOR dynamic field statistics
(PID.TID 0000.0001) // =======================================================
 cg2d: Sum(rhs),rhsMax =   1.24344978758018E-14  1.47745945514759E+00
(PID.TID 0000.0001)                    cg2d_init_res =    7.06734795105141E-04
(PID.TID 0000.0001)                       cg2d_iters =    27
(PID.TID 0000.0001)                         cg2d_res =    1.68610441475429E-17
(PID.TID 0000.0001) // =======================================================
(PID.TID 0000.0001) // Begin MONITOR dynamic field statistics
(PID.TID 0000.0001) // =======================================================
(PID.TID 0000.0001) %MON time_tsnumber                =                 36015
(PID.TID 0000.0001) %MON time_secondsf                =   3.1116960000000E+09
(PID.TID 0000.0001) %MON dynstat_eta_max              =   1.6136972953661E+00
(PID.TID 0000.0001) %MON dynstat_eta_min              =  -3.9172920650384E+00
(PID.TID 0000.0001) %MON dynstat_eta_mean             =  -3.7229964002914E-16
(PID.TID 0000.0001) %MON dynstat_eta_sd               =   1.6458367433171E+00
(PID.TID 0000.0001) %MON dynstat_eta_del2             =   1.3949033007214E-02
(PID.TID 0000.0001) %MON dynstat_uvel_max             =   1.4304886840444E-01
(PID.TID 0000.0001) %MON dynstat_uvel_min             =  -3.8630931058027E-01
(PID.TID 0000.0001) %MON dynstat_uvel_mean            =   1.2830473982322E-02
(PID.TID 0000.0001) %MON dynstat_uvel_sd              =   3.8765732405160E-02
(PID.TID 0000.0001) %MON dynstat_uvel_del2            =   6.1925106310823E-04
(PID.TID 0000.0001) %MON dynstat_vvel_max             =   2.3016993187358E-02
(PID.TID 0000.0001) %MON dynstat_vvel_min             =  -2.3016993187333E-02
(PID.TID 0000.0001) %MON dynstat_vvel_mean            =   4.4328594750595E-16
(PID.TID 0000.0001) %MON dynstat_vvel_sd              =   1.5509688099338E-03
(PID.TID 0000.0001) %MON dynstat_vvel_del2            =   7.2835169348494E-05
(PID.TID 0000.0001) %MON dynstat_wvel_max             =   1.4225566706434E-06
(PID.TID 0000.0001) %MON dynstat_wvel_min             =  -8.2559202989686E-07
(PID.TID 0000.0001) %MON dynstat_wvel_mean            =   3.6603361309597E-24
(PID.TID 0000.0001) %MON dynstat_wvel_sd              =   2.5536416618604E-07
(PID.TID 0000.0001) %MON dynstat_wvel_del2            =   3.6168397383458E-08
(PID.TID 0000.0001) %MON dynstat_theta_max            =   2.6676730472726E+01
(PID.TID 0000.0001) %MON dynstat_theta_min            =  -9.3079083216521E-01
(PID.TID 0000.0001) %MON dynstat_theta_mean           =   2.2243831811479E+00
(PID.TID 0000.0001) %MON dynstat_theta_sd             =   3.9282810785991E+00
(PID.TID 0000.0001) %MON dynstat_theta_del2           =   4.1666180609391E-02
(PID.TID 0000.0001) %MON dynstat_salt_max             =   3.4700000000000E+01
(PID.TID 0000.0001) %MON dynstat_salt_min             =   3.4700000000000E+01
(PID.TID 0000.0001) %MON dynstat_salt_mean            =   3.4700000000000E+01
(PID.TID 0000.0001) %MON dynstat_salt_sd              =   7.1054273576010E-15
(PID.TID 0000.0001) %MON dynstat_salt_del2            =   0.0000000000000E+00
(PID.TID 0000.0001) %MON extforcing_qnet_max          =   0.0000000000000E+00
(PID.TID 0000.0001) %MON extforcing_qnet_min          =   0.0000000000000E+00
(PID.TID 0000.0001) %MON extforcing_qnet_mean         =   0.0000000000000E+00
(PID.TID 0000.0001) %MON extforcing_qnet_sd           =   0.0000000000000E+00
(PID.TID 0000.0001) %MON extforcing_qnet_del2         =   0.0000000000000E+00
(PID.TID 0000.0001) %MON extforcing_qsw_max           =   0.0000000000000E+00
(PID.TID 0000.0001) %MON extforcing_qsw_min           =   0.0000000000000E+00
(PID.TID 0000.0001) %MON extforcing_qsw_mean          =   0.0000000000000E+00
(PID.TID 0000.0001) %MON extforcing_qsw_sd            =   0.0000000000000E+00
(PID.TID 0000.0001) %MON extforcing_qsw_del2          =   0.0000000000000E+00
(PID.TID 0000.0001) %MON extforcing_empmr_max         =   0.0000000000000E+00
(PID.TID 0000.0001) %MON extforcing_empmr_min         =   0.0000000000000E+00
(PID.TID 0000.0001) %MON extforcing_empmr_mean        =   0.0000000000000E+00
(PID.TID 0000.0001) %MON extforcing_empmr_sd          =   0.0000000000000E+00
(PID.TID 0000.0001) %MON extforcing_empmr_del2        =   0.0000000000000E+00
(PID.TID 0000.0001) %MON advcfl_uvel_max              =   1.0010590831362E-01
(PID.TID 0000.0001) %MON advcfl_vvel_max              =   5.9624435041521E-03
(PID.TID 0000.0001) %MON advcfl_wvel_max              =   2.0484816057266E-03
(PID.TID 0000.0001) %MON advcfl_W_hf_max              =   2.4581779268719E-03
(PID.TID 0000.0001) %MON pe_b_mean                    =   2.5551074928127E-03
(PID.TID 0000.0001) %MON ke_max                       =   7.4646596306847E-02
(PID.TID 0000.0001) %MON ke_mean                      =   8.3499426850160E-04
(PID.TID 0000.0001) %MON ke_vol                       =   2.1823819113454E+16
(PID.TID 0000.0001) %MON vort_r_min                   =  -1.7705059436394E-07
(PID.TID 0000.0001) %MON vort_r_max                   =   1.7705059436376E-07
(PID.TID 0000.0001) %MON vort_a_mean                  =   1.1144501822451E-20
(PID.TID 0000.0001) %MON vort_a_sd                    =   8.3264763035693E-05
(PID.TID 0000.0001) %MON vort_p_mean                  =   1.1213977667274E-20
(PID.TID 0000.0001) %MON vort_p_sd                    =   8.6550991475951E-05
(PID.TID 0000.0001) %MON surfExpan_theta_mean         =   3.3182951908006E-07
(PID.TID 0000.0001) %MON surfExpan_salt_mean          =  -1.1095393896971E-21
(PID.TID 0000.0001) // =======================================================
(PID.TID 0000.0001) // End MONITOR dynamic field statistics
(PID.TID 0000.0001) // =======================================================
 cg2d: Sum(rhs),rhsMax =   7.10542735760100E-15  1.47751342859987E+00
(PID.TID 0000.0001)                    cg2d_init_res =    1.78730805980280E-03
(PID.TID 0000.0001)                       cg2d_iters =    27
(PID.TID 0000.0001)                         cg2d_res =    1.84050960954147E-17
(PID.TID 0000.0001) // =======================================================
(PID.TID 0000.0001) // Begin MONITOR dynamic field statistics
(PID.TID 0000.0001) // =======================================================
(PID.TID 0000.0001) %MON time_tsnumber                =                 36016
(PID.TID 0000.0001) %MON time_secondsf                =   3.1117824000000E+09
(PID.TID 0000.0001) %MON dynstat_eta_max              =   1.6137791557338E+00
(PID.TID 0000.0001) %MON dynstat_eta_min              =  -3.9182650958351E+00
(PID.TID 0000.0001) %MON dynstat_eta_mean             =  -3.7229964002914E-16
(PID.TID 0000.0001) %MON dynstat_eta_sd               =   1.6461438456640E+00
(PID.TID 0000.0001) %MON dynstat_eta_del2             =   1.3948028781379E-02
(PID.TID 0000.0001) %MON dynstat_uvel_max             =   1.4304262068818E-01
(PID.TID 0000.0001) %MON dynstat_uvel_min             =  -3.8630896968545E-01
(PID.TID 0000.0001) %MON dynstat_uvel_mean            =   1.2826621755424E-02
(PID.TID 0000.0001) %MON dynstat_uvel_sd              =   3.8764162639825E-02
(PID.TID 0000.0001) %MON dynstat_uvel_del2            =   6.1922573523687E-04
(PID.TID 0000.0001) %MON dynstat_vvel_max             =   2.3001153326593E-02
(PID.TID 0000.0001) %MON dynstat_vvel_min             =  -2.3001153326569E-02
(PID.TID 0000.0001) %MON dynstat_vvel_mean            =   2.0630050775650E-16
(PID.TID 0000.0001) %MON dynstat_vvel_sd              =   1.5519753064769E-03
(PID.TID 0000.0001) %MON dynstat_vvel_del2            =   7.2850836527449E-05
(PID.TID 0000.0001) %MON dynstat_wvel_max             =   1.5043339330515E-06
(PID.TID 0000.0001) %MON dynstat_wvel_min             =  -8.0712884737092E-07
(PID.TID 0000.0001) %MON dynstat_wvel_mean            =  -8.0527394881113E-24
(PID.TID 0000.0001) %MON dynstat_wvel_sd              =   2.6199785437590E-07
(PID.TID 0000.0001) %MON dynstat_wvel_del2            =   3.6164356266645E-08
(PID.TID 0000.0001) %MON dynstat_theta_max            =   2.6675290731009E+01
(PID.TID 0000.0001) %MON dynstat_theta_min            =  -9.3079284016570E-01
(PID.TID 0000.0001) %MON dynstat_theta_mean           =   2.2243560006150E+00
(PID.TID 0000.0001) %MON dynstat_theta_sd             =   3.9282191227242E+00
(PID.TID 0000.0001) %MON dynstat_theta_del2           =   4.1669618240687E-02
(PID.TID 0000.0001) %MON dynstat_salt_max             =   3.4700000000000E+01
(PID.TID 0000.0001) %MON dynstat_salt_min             =   3.4700000000000E+01
(PID.TID 0000.0001) %MON dynstat_salt_mean            =   3.4700000000000E+01
(PID.TID 0000.0001) %MON dynstat_salt_sd              =   7.1054273576010E-15
(PID.TID 0000.0001) %MON dynstat_salt_del2            =   0.0000000000000E+00
(PID.TID 0000.0001) %MON extforcing_qnet_max          =   0.0000000000000E+00
(PID.TID 0000.0001) %MON extforcing_qnet_min          =   0.0000000000000E+00
(PID.TID 0000.0001) %MON extforcing_qnet_mean         =   0.0000000000000E+00
(PID.TID 0000.0001) %MON extforcing_qnet_sd           =   0.0000000000000E+00
(PID.TID 0000.0001) %MON extforcing_qnet_del2         =   0.0000000000000E+00
(PID.TID 0000.0001) %MON extforcing_qsw_max           =   0.0000000000000E+00
(PID.TID 0000.0001) %MON extforcing_qsw_min           =   0.0000000000000E+00
(PID.TID 0000.0001) %MON extforcing_qsw_mean          =   0.0000000000000E+00
(PID.TID 0000.0001) %MON extforcing_qsw_sd            =   0.0000000000000E+00
(PID.TID 0000.0001) %MON extforcing_qsw_del2          =   0.0000000000000E+00
(PID.TID 0000.0001) %MON extforcing_empmr_max         =   0.0000000000000E+00
(PID.TID 0000.0001) %MON extforcing_empmr_min         =   0.0000000000000E+00
(PID.TID 0000.0001) %MON extforcing_empmr_mean        =   0.0000000000000E+00
(PID.TID 0000.0001) %MON extforcing_empmr_sd          =   0.0000000000000E+00
(PID.TID 0000.0001) %MON extforcing_empmr_del2        =   0.0000000000000E+00
(PID.TID 0000.0001) %MON advcfl_uvel_max              =   1.0010581997616E-01
(PID.TID 0000.0001) %MON advcfl_vvel_max              =   5.9583402629445E-03
(PID.TID 0000.0001) %MON advcfl_wvel_max              =   2.1662408635941E-03
(PID.TID 0000.0001) %MON advcfl_W_hf_max              =   2.5994890363129E-03
(PID.TID 0000.0001) %MON pe_b_mean                    =   2.5560611143902E-03
(PID.TID 0000.0001) %MON ke_max                       =   7.4646420581109E-02
(PID.TID 0000.0001) %MON ke_mean                      =   8.3488554027575E-04
(PID.TID 0000.0001) %MON ke_vol                       =   2.1823819113454E+16
(PID.TID 0000.0001) %MON vort_r_min                   =  -1.7705224946381E-07
(PID.TID 0000.0001) %MON vort_r_max                   =   1.7705224946363E-07
(PID.TID 0000.0001) %MON vort_a_mean                  =   2.7861254556126E-21
(PID.TID 0000.0001) %MON vort_a_sd                    =   8.3264762340792E-05
(PID.TID 0000.0001) %MON vort_p_mean                  =   2.8034944168185E-21
(PID.TID 0000.0001) %MON vort_p_sd                    =   8.6550990657712E-05
(PID.TID 0000.0001) %MON surfExpan_theta_mean         =   1.0235262636386E-06
(PID.TID 0000.0001) %MON surfExpan_salt_mean          =   4.4381575587886E-22
(PID.TID 0000.0001) // =======================================================
(PID.TID 0000.0001) // End MONITOR dynamic field statistics
(PID.TID 0000.0001) // =======================================================
 Computing Diagnostic #     23  ETAN         Counter:       1   Parms: SM      M1      
 Computing Diagnostic #     24  ETANSQ       Counter:       1   Parms: SM P    M1      
 Computing Diagnostic #     25  DETADT2      Counter:       1   Parms: SM      M1      
 Computing Diagnostic #     69  PHIBOT       Counter:       1   Parms: SM      M1      
 Computing Diagnostic #     70  PHIBOTSQ     Counter:       1   Parms: SM P    M1      
 Computing Diagnostic #    171  GM_VisbK     Counter:       1   Parms: SM P    M1      
 cg2d: Sum(rhs),rhsMax =   1.24344978758018E-14  1.47767514533257E+00
(PID.TID 0000.0001)                    cg2d_init_res =    2.82235372299461E-03
(PID.TID 0000.0001)                       cg2d_iters =    27
(PID.TID 0000.0001)                         cg2d_res =    9.80245622275769E-18
(PID.TID 0000.0001) // =======================================================
(PID.TID 0000.0001) // Begin MONITOR dynamic field statistics
(PID.TID 0000.0001) // =======================================================
(PID.TID 0000.0001) %MON time_tsnumber                =                 36017
(PID.TID 0000.0001) %MON time_secondsf                =   3.1118688000000E+09
(PID.TID 0000.0001) %MON dynstat_eta_max              =   1.6139823397454E+00
(PID.TID 0000.0001) %MON dynstat_eta_min              =  -3.9196060631069E+00
(PID.TID 0000.0001) %MON dynstat_eta_mean             =  -3.7229964002914E-16
(PID.TID 0000.0001) %MON dynstat_eta_sd               =   1.6466405051041E+00
(PID.TID 0000.0001) %MON dynstat_eta_del2             =   1.3947600572952E-02
(PID.TID 0000.0001) %MON dynstat_uvel_max             =   1.4303070545382E-01
(PID.TID 0000.0001) %MON dynstat_uvel_min             =  -3.8630856696435E-01
(PID.TID 0000.0001) %MON dynstat_uvel_mean            =   1.2819748298791E-02
(PID.TID 0000.0001) %MON dynstat_uvel_sd              =   3.8761544356672E-02
(PID.TID 0000.0001) %MON dynstat_uvel_del2            =   6.1918672342075E-04
(PID.TID 0000.0001) %MON dynstat_vvel_max             =   2.2987913734704E-02
(PID.TID 0000.0001) %MON dynstat_vvel_min             =  -2.2987913734680E-02
(PID.TID 0000.0001) %MON dynstat_vvel_mean            =  -3.9583492037600E-17
(PID.TID 0000.0001) %MON dynstat_vvel_sd              =   1.5535036944357E-03
(PID.TID 0000.0001) %MON dynstat_vvel_del2            =   7.2870174667633E-05
(PID.TID 0000.0001) %MON dynstat_wvel_max             =   1.5732567633201E-06
(PID.TID 0000.0001) %MON dynstat_wvel_min             =  -8.0398922922225E-07
(PID.TID 0000.0001) %MON dynstat_wvel_mean            =  -7.3206722619193E-24
(PID.TID 0000.0001) %MON dynstat_wvel_sd              =   2.7287311989570E-07
(PID.TID 0000.0001) %MON dynstat_wvel_del2            =   3.6142966777514E-08
(PID.TID 0000.0001) %MON dynstat_theta_max            =   2.6673471328999E+01
(PID.TID 0000.0001) %MON dynstat_theta_min            =  -9.3079485384260E-01
(PID.TID 0000.0001) %MON dynstat_theta_mean           =   2.2243186022698E+00
(PID.TID 0000.0001) %MON dynstat_theta_sd             =   3.9281255705672E+00
(PID.TID 0000.0001) %MON dynstat_theta_del2           =   4.1673845557846E-02
(PID.TID 0000.0001) %MON dynstat_salt_max             =   3.4700000000000E+01
(PID.TID 0000.0001) %MON dynstat_salt_min             =   3.4700000000000E+01
(PID.TID 0000.0001) %MON dynstat_salt_mean            =   3.4700000000000E+01
(PID.TID 0000.0001) %MON dynstat_salt_sd              =   7.1054273576010E-15
(PID.TID 0000.0001) %MON dynstat_salt_del2            =   0.0000000000000E+00
(PID.TID 0000.0001) %MON extforcing_qnet_max          =   0.0000000000000E+00
(PID.TID 0000.0001) %MON extforcing_qnet_min          =   0.0000000000000E+00
(PID.TID 0000.0001) %MON extforcing_qnet_mean         =   0.0000000000000E+00
(PID.TID 0000.0001) %MON extforcing_qnet_sd           =   0.0000000000000E+00
(PID.TID 0000.0001) %MON extforcing_qnet_del2         =   0.0000000000000E+00
(PID.TID 0000.0001) %MON extforcing_qsw_max           =   0.0000000000000E+00
(PID.TID 0000.0001) %MON extforcing_qsw_min           =   0.0000000000000E+00
(PID.TID 0000.0001) %MON extforcing_qsw_mean          =   0.0000000000000E+00
(PID.TID 0000.0001) %MON extforcing_qsw_sd            =   0.0000000000000E+00
(PID.TID 0000.0001) %MON extforcing_qsw_del2          =   0.0000000000000E+00
(PID.TID 0000.0001) %MON extforcing_empmr_max         =   0.0000000000000E+00
(PID.TID 0000.0001) %MON extforcing_empmr_min         =   0.0000000000000E+00
(PID.TID 0000.0001) %MON extforcing_empmr_mean        =   0.0000000000000E+00
(PID.TID 0000.0001) %MON extforcing_empmr_sd          =   0.0000000000000E+00
(PID.TID 0000.0001) %MON extforcing_empmr_del2        =   0.0000000000000E+00
(PID.TID 0000.0001) %MON advcfl_uvel_max              =   1.0010571561739E-01
(PID.TID 0000.0001) %MON advcfl_vvel_max              =   5.9549106091223E-03
(PID.TID 0000.0001) %MON advcfl_wvel_max              =   2.2654897391810E-03
(PID.TID 0000.0001) %MON advcfl_W_hf_max              =   2.7185876870172E-03
(PID.TID 0000.0001) %MON pe_b_mean                    =   2.5576037297514E-03
(PID.TID 0000.0001) %MON ke_max                       =   7.4646225468717E-02
(PID.TID 0000.0001) %MON ke_mean                      =   8.3469824968539E-04
(PID.TID 0000.0001) %MON ke_vol                       =   2.1823819113454E+16
(PID.TID 0000.0001) %MON vort_r_min                   =  -1.7705291851899E-07
(PID.TID 0000.0001) %MON vort_r_max                   =   1.7705291851881E-07
(PID.TID 0000.0001) %MON vort_a_mean                  =  -8.3583763668379E-21
(PID.TID 0000.0001) %MON vort_a_sd                    =   8.3264761057789E-05
(PID.TID 0000.0001) %MON vort_p_mean                  =  -8.4104832504555E-21
(PID.TID 0000.0001) %MON vort_p_sd                    =   8.6550989170720E-05
(PID.TID 0000.0001) %MON surfExpan_theta_mean         =   1.6488238657881E-06
(PID.TID 0000.0001) %MON surfExpan_salt_mean          =   4.4381575587886E-22
(PID.TID 0000.0001) // =======================================================
(PID.TID 0000.0001) // End MONITOR dynamic field statistics
(PID.TID 0000.0001) // =======================================================
 cg2d: Sum(rhs),rhsMax =   1.06581410364015E-14  1.47794059828366E+00
(PID.TID 0000.0001)                    cg2d_init_res =    3.71617233538059E-03
(PID.TID 0000.0001)                       cg2d_iters =    27
(PID.TID 0000.0001)                         cg2d_res =    2.24645587776791E-17
(PID.TID 0000.0001) // =======================================================
(PID.TID 0000.0001) // Begin MONITOR dynamic field statistics
(PID.TID 0000.0001) // =======================================================
(PID.TID 0000.0001) %MON time_tsnumber                =                 36018
(PID.TID 0000.0001) %MON time_secondsf                =   3.1119552000000E+09
(PID.TID 0000.0001) %MON dynstat_eta_max              =   1.6143006810824E+00
(PID.TID 0000.0001) %MON dynstat_eta_min              =  -3.9212070359429E+00
(PID.TID 0000.0001) %MON dynstat_eta_mean             =  -3.7229964002914E-16
(PID.TID 0000.0001) %MON dynstat_eta_sd               =   1.6472986219204E+00
(PID.TID 0000.0001) %MON dynstat_eta_del2             =   1.3947925169788E-02
(PID.TID 0000.0001) %MON dynstat_uvel_max             =   1.4301374171810E-01
(PID.TID 0000.0001) %MON dynstat_uvel_min             =  -3.8630811812700E-01
(PID.TID 0000.0001) %MON dynstat_uvel_mean            =   1.2810281588431E-02
(PID.TID 0000.0001) %MON dynstat_uvel_sd              =   3.8758019430256E-02
(PID.TID 0000.0001) %MON dynstat_uvel_del2            =   6.1913689278491E-04
(PID.TID 0000.0001) %MON dynstat_vvel_max             =   2.2977523821275E-02
(PID.TID 0000.0001) %MON dynstat_vvel_min             =  -2.2977523821251E-02
(PID.TID 0000.0001) %MON dynstat_vvel_mean            =  -2.9176320550496E-16
(PID.TID 0000.0001) %MON dynstat_vvel_sd              =   1.5552550301763E-03
(PID.TID 0000.0001) %MON dynstat_vvel_del2            =   7.2888288895010E-05
(PID.TID 0000.0001) %MON dynstat_wvel_max             =   1.6286070145368E-06
(PID.TID 0000.0001) %MON dynstat_wvel_min             =  -8.0868294982445E-07
(PID.TID 0000.0001) %MON dynstat_wvel_mean            =  -5.8565378095355E-24
(PID.TID 0000.0001) %MON dynstat_wvel_sd              =   2.8534577879022E-07
(PID.TID 0000.0001) %MON dynstat_wvel_del2            =   3.6123883683006E-08
(PID.TID 0000.0001) %MON dynstat_theta_max            =   2.6671361798220E+01
(PID.TID 0000.0001) %MON dynstat_theta_min            =  -9.3079687320376E-01
(PID.TID 0000.0001) %MON dynstat_theta_mean           =   2.2242726014663E+00
(PID.TID 0000.0001) %MON dynstat_theta_sd             =   3.9280056463818E+00
(PID.TID 0000.0001) %MON dynstat_theta_del2           =   4.1678619585656E-02
(PID.TID 0000.0001) %MON dynstat_salt_max             =   3.4700000000000E+01
(PID.TID 0000.0001) %MON dynstat_salt_min             =   3.4700000000000E+01
(PID.TID 0000.0001) %MON dynstat_salt_mean            =   3.4700000000000E+01
(PID.TID 0000.0001) %MON dynstat_salt_sd              =   7.1054273576010E-15
(PID.TID 0000.0001) %MON dynstat_salt_del2            =   0.0000000000000E+00
(PID.TID 0000.0001) %MON extforcing_qnet_max          =   0.0000000000000E+00
(PID.TID 0000.0001) %MON extforcing_qnet_min          =   0.0000000000000E+00
(PID.TID 0000.0001) %MON extforcing_qnet_mean         =   0.0000000000000E+00
(PID.TID 0000.0001) %MON extforcing_qnet_sd           =   0.0000000000000E+00
(PID.TID 0000.0001) %MON extforcing_qnet_del2         =   0.0000000000000E+00
(PID.TID 0000.0001) %MON extforcing_qsw_max           =   0.0000000000000E+00
(PID.TID 0000.0001) %MON extforcing_qsw_min           =   0.0000000000000E+00
(PID.TID 0000.0001) %MON extforcing_qsw_mean          =   0.0000000000000E+00
(PID.TID 0000.0001) %MON extforcing_qsw_sd            =   0.0000000000000E+00
(PID.TID 0000.0001) %MON extforcing_qsw_del2          =   0.0000000000000E+00
(PID.TID 0000.0001) %MON extforcing_empmr_max         =   0.0000000000000E+00
(PID.TID 0000.0001) %MON extforcing_empmr_min         =   0.0000000000000E+00
(PID.TID 0000.0001) %MON extforcing_empmr_mean        =   0.0000000000000E+00
(PID.TID 0000.0001) %MON extforcing_empmr_sd          =   0.0000000000000E+00
(PID.TID 0000.0001) %MON extforcing_empmr_del2        =   0.0000000000000E+00
(PID.TID 0000.0001) %MON advcfl_uvel_max              =   1.0010559930834E-01
(PID.TID 0000.0001) %MON advcfl_vvel_max              =   5.9522191510622E-03
(PID.TID 0000.0001) %MON advcfl_wvel_max              =   2.3451941009330E-03
(PID.TID 0000.0001) %MON advcfl_W_hf_max              =   2.8142329211196E-03
(PID.TID 0000.0001) %MON pe_b_mean                    =   2.5596485457067E-03
(PID.TID 0000.0001) %MON ke_max                       =   7.4646017621430E-02
(PID.TID 0000.0001) %MON ke_mean                      =   8.3444298913460E-04
(PID.TID 0000.0001) %MON ke_vol                       =   2.1823819113454E+16
(PID.TID 0000.0001) %MON vort_r_min                   =  -1.7705274875173E-07
(PID.TID 0000.0001) %MON vort_r_max                   =   1.7705274875155E-07
(PID.TID 0000.0001) %MON vort_a_mean                  =  -1.9502878189288E-20
(PID.TID 0000.0001) %MON vort_a_sd                    =   8.3264759266095E-05
(PID.TID 0000.0001) %MON vort_p_mean                  =  -1.9624460917730E-20
(PID.TID 0000.0001) %MON vort_p_sd                    =   8.6550987114029E-05
(PID.TID 0000.0001) %MON surfExpan_theta_mean         =   2.1792692507748E-06
(PID.TID 0000.0001) %MON surfExpan_salt_mean          =  -1.1095393896971E-21
(PID.TID 0000.0001) // =======================================================
(PID.TID 0000.0001) // End MONITOR dynamic field statistics
(PID.TID 0000.0001) // =======================================================
 cg2d: Sum(rhs),rhsMax =   1.24344978758018E-14  1.47829342291148E+00
(PID.TID 0000.0001)                    cg2d_init_res =    4.42323486822043E-03
(PID.TID 0000.0001)                       cg2d_iters =    27
(PID.TID 0000.0001)                         cg2d_res =    1.50755124615043E-17
(PID.TID 0000.0001) // =======================================================
(PID.TID 0000.0001) // Begin MONITOR dynamic field statistics
(PID.TID 0000.0001) // =======================================================
(PID.TID 0000.0001) %MON time_tsnumber                =                 36019
(PID.TID 0000.0001) %MON time_secondsf                =   3.1120416000000E+09
(PID.TID 0000.0001) %MON dynstat_eta_max              =   1.6147151681982E+00
(PID.TID 0000.0001) %MON dynstat_eta_min              =  -3.9229706663866E+00
(PID.TID 0000.0001) %MON dynstat_eta_mean             =  -3.7229964002914E-16
(PID.TID 0000.0001) %MON dynstat_eta_sd               =   1.6480820020393E+00
(PID.TID 0000.0001) %MON dynstat_eta_del2             =   1.3949003129666E-02
(PID.TID 0000.0001) %MON dynstat_uvel_max             =   1.4299261312213E-01
(PID.TID 0000.0001) %MON dynstat_uvel_min             =  -3.8630763853366E-01
(PID.TID 0000.0001) %MON dynstat_uvel_mean            =   1.2798745539813E-02
(PID.TID 0000.0001) %MON dynstat_uvel_sd              =   3.8753769642631E-02
(PID.TID 0000.0001) %MON dynstat_uvel_del2            =   6.1907934570817E-04
(PID.TID 0000.0001) %MON dynstat_vvel_max             =   2.2970110830816E-02
(PID.TID 0000.0001) %MON dynstat_vvel_min             =  -2.2970110830792E-02
(PID.TID 0000.0001) %MON dynstat_vvel_mean            =  -5.4040596961283E-16
(PID.TID 0000.0001) %MON dynstat_vvel_sd              =   1.5569073320250E-03
(PID.TID 0000.0001) %MON dynstat_vvel_del2            =   7.2903156131714E-05
(PID.TID 0000.0001) %MON dynstat_wvel_max             =   1.6702120562695E-06
(PID.TID 0000.0001) %MON dynstat_wvel_min             =  -8.1992918782665E-07
(PID.TID 0000.0001) %MON dynstat_wvel_mean            =   5.8565378095355E-24
(PID.TID 0000.0001) %MON dynstat_wvel_sd              =   2.9694482426695E-07
(PID.TID 0000.0001) %MON dynstat_wvel_del2            =   3.6115767925628E-08
(PID.TID 0000.0001) %MON dynstat_theta_max            =   2.6669053960923E+01
(PID.TID 0000.0001) %MON dynstat_theta_min            =  -9.3079889826405E-01
(PID.TID 0000.0001) %MON dynstat_theta_mean           =   2.2242199897256E+00
(PID.TID 0000.0001) %MON dynstat_theta_sd             =   3.9278656316364E+00
(PID.TID 0000.0001) %MON dynstat_theta_del2           =   4.1683729230080E-02
(PID.TID 0000.0001) %MON dynstat_salt_max             =   3.4700000000000E+01
(PID.TID 0000.0001) %MON dynstat_salt_min             =   3.4700000000000E+01
(PID.TID 0000.0001) %MON dynstat_salt_mean            =   3.4700000000000E+01
(PID.TID 0000.0001) %MON dynstat_salt_sd              =   7.1054273576010E-15
(PID.TID 0000.0001) %MON dynstat_salt_del2            =   0.0000000000000E+00
(PID.TID 0000.0001) %MON extforcing_qnet_max          =   0.0000000000000E+00
(PID.TID 0000.0001) %MON extforcing_qnet_min          =   0.0000000000000E+00
(PID.TID 0000.0001) %MON extforcing_qnet_mean         =   0.0000000000000E+00
(PID.TID 0000.0001) %MON extforcing_qnet_sd           =   0.0000000000000E+00
(PID.TID 0000.0001) %MON extforcing_qnet_del2         =   0.0000000000000E+00
(PID.TID 0000.0001) %MON extforcing_qsw_max           =   0.0000000000000E+00
(PID.TID 0000.0001) %MON extforcing_qsw_min           =   0.0000000000000E+00
(PID.TID 0000.0001) %MON extforcing_qsw_mean          =   0.0000000000000E+00
(PID.TID 0000.0001) %MON extforcing_qsw_sd            =   0.0000000000000E+00
(PID.TID 0000.0001) %MON extforcing_qsw_del2          =   0.0000000000000E+00
(PID.TID 0000.0001) %MON extforcing_empmr_max         =   0.0000000000000E+00
(PID.TID 0000.0001) %MON extforcing_empmr_min         =   0.0000000000000E+00
(PID.TID 0000.0001) %MON extforcing_empmr_mean        =   0.0000000000000E+00
(PID.TID 0000.0001) %MON extforcing_empmr_sd          =   0.0000000000000E+00
(PID.TID 0000.0001) %MON extforcing_empmr_del2        =   0.0000000000000E+00
(PID.TID 0000.0001) %MON advcfl_uvel_max              =   1.0010547502936E-01
(PID.TID 0000.0001) %MON advcfl_vvel_max              =   5.9502988508542E-03
(PID.TID 0000.0001) %MON advcfl_wvel_max              =   2.4051053610281E-03
(PID.TID 0000.0001) %MON advcfl_W_hf_max              =   2.8861264332337E-03
(PID.TID 0000.0001) %MON pe_b_mean                    =   2.5620836288676E-03
(PID.TID 0000.0001) %MON ke_max                       =   7.4645803351200E-02
(PID.TID 0000.0001) %MON ke_mean                      =   8.3413309549901E-04
(PID.TID 0000.0001) %MON ke_vol                       =   2.1823819113454E+16
(PID.TID 0000.0001) %MON vort_r_min                   =  -1.7705191405788E-07
(PID.TID 0000.0001) %MON vort_r_max                   =   1.7705191405770E-07
(PID.TID 0000.0001) %MON vort_a_mean                  =  -2.7861254556126E-21
(PID.TID 0000.0001) %MON vort_a_sd                    =   8.3264757064993E-05
(PID.TID 0000.0001) %MON vort_p_mean                  =  -2.8034944168185E-21
(PID.TID 0000.0001) %MON vort_p_sd                    =   8.6550984605074E-05
(PID.TID 0000.0001) %MON surfExpan_theta_mean         =   2.5916372631963E-06
(PID.TID 0000.0001) %MON surfExpan_salt_mean          =   0.0000000000000E+00
(PID.TID 0000.0001) // =======================================================
(PID.TID 0000.0001) // End MONITOR dynamic field statistics
(PID.TID 0000.0001) // =======================================================
 cg2d: Sum(rhs),rhsMax =   1.06581410364015E-14  1.47870783928673E+00
(PID.TID 0000.0001)                    cg2d_init_res =    4.90991758885769E-03
(PID.TID 0000.0001)                       cg2d_iters =    27
(PID.TID 0000.0001)                         cg2d_res =    9.19710568908925E-18
(PID.TID 0000.0001) // =======================================================
(PID.TID 0000.0001) // Begin MONITOR dynamic field statistics
(PID.TID 0000.0001) // =======================================================
(PID.TID 0000.0001) %MON time_tsnumber                =                 36020
(PID.TID 0000.0001) %MON time_secondsf                =   3.1121280000000E+09
(PID.TID 0000.0001) %MON dynstat_eta_max              =   1.6151969432048E+00
(PID.TID 0000.0001) %MON dynstat_eta_min              =  -3.9248138002424E+00
(PID.TID 0000.0001) %MON dynstat_eta_mean             =  -4.4675956803497E-16
(PID.TID 0000.0001) %MON dynstat_eta_sd               =   1.6489486410182E+00
(PID.TID 0000.0001) %MON dynstat_eta_del2             =   1.3950681140031E-02
(PID.TID 0000.0001) %MON dynstat_uvel_max             =   1.4296841532648E-01
(PID.TID 0000.0001) %MON dynstat_uvel_min             =  -3.8630714295907E-01
(PID.TID 0000.0001) %MON dynstat_uvel_mean            =   1.2785732307866E-02
(PID.TID 0000.0001) %MON dynstat_uvel_sd              =   3.8749006277391E-02
(PID.TID 0000.0001) %MON dynstat_uvel_del2            =   6.1901726008224E-04
(PID.TID 0000.0001) %MON dynstat_vvel_max             =   2.2965742214659E-02
(PID.TID 0000.0001) %MON dynstat_vvel_min             =  -2.2965742214635E-02
(PID.TID 0000.0001) %MON dynstat_vvel_mean            =  -7.9800207574509E-16
(PID.TID 0000.0001) %MON dynstat_vvel_sd              =   1.5581735181845E-03
(PID.TID 0000.0001) %MON dynstat_vvel_del2            =   7.2912228044281E-05
(PID.TID 0000.0001) %MON dynstat_wvel_max             =   1.6980702512783E-06
(PID.TID 0000.0001) %MON dynstat_wvel_min             =  -8.3473812879856E-07
(PID.TID 0000.0001) %MON dynstat_wvel_mean            =  -8.7848067143032E-24
(PID.TID 0000.0001) %MON dynstat_wvel_sd              =   3.0571534307250E-07
(PID.TID 0000.0001) %MON dynstat_wvel_del2            =   3.6111427390007E-08
(PID.TID 0000.0001) %MON dynstat_theta_max            =   2.6666639801567E+01
(PID.TID 0000.0001) %MON dynstat_theta_min            =  -9.3080092902430E-01
(PID.TID 0000.0001) %MON dynstat_theta_mean           =   2.2241630255518E+00
(PID.TID 0000.0001) %MON dynstat_theta_sd             =   3.9277125581727E+00
(PID.TID 0000.0001) %MON dynstat_theta_del2           =   4.1688987239267E-02
(PID.TID 0000.0001) %MON dynstat_salt_max             =   3.4700000000000E+01
(PID.TID 0000.0001) %MON dynstat_salt_min             =   3.4700000000000E+01
(PID.TID 0000.0001) %MON dynstat_salt_mean            =   3.4700000000000E+01
(PID.TID 0000.0001) %MON dynstat_salt_sd              =   7.1054273576010E-15
(PID.TID 0000.0001) %MON dynstat_salt_del2            =   0.0000000000000E+00
(PID.TID 0000.0001) %MON extforcing_qnet_max          =   0.0000000000000E+00
(PID.TID 0000.0001) %MON extforcing_qnet_min          =   0.0000000000000E+00
(PID.TID 0000.0001) %MON extforcing_qnet_mean         =   0.0000000000000E+00
(PID.TID 0000.0001) %MON extforcing_qnet_sd           =   0.0000000000000E+00
(PID.TID 0000.0001) %MON extforcing_qnet_del2         =   0.0000000000000E+00
(PID.TID 0000.0001) %MON extforcing_qsw_max           =   0.0000000000000E+00
(PID.TID 0000.0001) %MON extforcing_qsw_min           =   0.0000000000000E+00
(PID.TID 0000.0001) %MON extforcing_qsw_mean          =   0.0000000000000E+00
(PID.TID 0000.0001) %MON extforcing_qsw_sd            =   0.0000000000000E+00
(PID.TID 0000.0001) %MON extforcing_qsw_del2          =   0.0000000000000E+00
(PID.TID 0000.0001) %MON extforcing_empmr_max         =   0.0000000000000E+00
(PID.TID 0000.0001) %MON extforcing_empmr_min         =   0.0000000000000E+00
(PID.TID 0000.0001) %MON extforcing_empmr_mean        =   0.0000000000000E+00
(PID.TID 0000.0001) %MON extforcing_empmr_sd          =   0.0000000000000E+00
(PID.TID 0000.0001) %MON extforcing_empmr_del2        =   0.0000000000000E+00
(PID.TID 0000.0001) %MON advcfl_uvel_max              =   1.0010534660909E-01
(PID.TID 0000.0001) %MON advcfl_vvel_max              =   5.9491671814473E-03
(PID.TID 0000.0001) %MON advcfl_wvel_max              =   2.4452211618408E-03
(PID.TID 0000.0001) %MON advcfl_W_hf_max              =   2.9342653942089E-03
(PID.TID 0000.0001) %MON pe_b_mean                    =   2.5647788653098E-03
(PID.TID 0000.0001) %MON ke_max                       =   7.4645588633690E-02
(PID.TID 0000.0001) %MON ke_mean                      =   8.3378396351570E-04
(PID.TID 0000.0001) %MON ke_vol                       =   2.1823819113454E+16
(PID.TID 0000.0001) %MON vort_r_min                   =  -1.7705060620714E-07
(PID.TID 0000.0001) %MON vort_r_max                   =   1.7705060620696E-07
(PID.TID 0000.0001) %MON vort_a_mean                  =   5.5722509112253E-21
(PID.TID 0000.0001) %MON vort_a_sd                    =   8.3264754568401E-05
(PID.TID 0000.0001) %MON vort_p_mean                  =   5.6069888336370E-21
(PID.TID 0000.0001) %MON vort_p_sd                    =   8.6550981773224E-05
(PID.TID 0000.0001) %MON surfExpan_theta_mean         =   2.8692708620870E-06
(PID.TID 0000.0001) %MON surfExpan_salt_mean          =  -4.4381575587886E-22
(PID.TID 0000.0001) // =======================================================
(PID.TID 0000.0001) // End MONITOR dynamic field statistics
(PID.TID 0000.0001) // =======================================================
 Computing Diagnostic #     30  UVEL         Counter:      20   Parms: UU      MR      
           Vector  Mate for  UVEL         Diagnostic #     31  VVEL     exists 
 Computing Diagnostic #     31  VVEL         Counter:      20   Parms: VV      MR      
           Vector  Mate for  VVEL         Diagnostic #     30  UVEL     exists 
 Computing Diagnostic #     32  WVEL         Counter:      20   Parms: WM      LR      
 Computing Diagnostic #     67  PHIHYD       Counter:      20   Parms: SM      MR      
 Computing Diagnostic #     46  VVELMASS     Counter:      20   Parms: VV      MR      
           Vector  Mate for  VVELMASS     Diagnostic #     45  UVELMASS not enabled
 Computing Diagnostic #     26  THETA        Counter:      20   Parms: SM      MR      
 Computing Diagnostic #     49  VTHMASS      Counter:      20   Parms: VV      MR      
           Vector  Mate for  VTHMASS      Diagnostic #     48  UTHMASS  not enabled
 Computing Diagnostic #     50  WTHMASS      Counter:      20   Parms: WM      LR      
 Computing Diagnostic #     33  THETASQ      Counter:      20   Parms: SM P    MR      
 Computing Diagnostic #     36  UVELSQ       Counter:      20   Parms: UU P    MR      
           Vector  Mate for  UVELSQ       Diagnostic #     37  VVELSQ   not enabled
 Computing Diagnostic #     42  UV_VEL_Z     Counter:      20   Parms: UZ      MR      
           Vector  Mate for  UV_VEL_Z     Diagnostic #     42  UV_VEL_Z exists 
 Computing Diagnostic #     43  WU_VEL       Counter:      20   Parms: WU      LR      
 Computing Diagnostic #     72  DRHODR       Counter:      10   Parms: SM      LR      
 Computing Diagnostic #     62  RHOAnoma     Counter:      10   Parms: SM      MR      
 Computing Diagnostic #    183  GM_PsiY      Counter:      10   Parms: VV   182LR      
           Vector  Mate for  GM_PsiY      Diagnostic #    182  GM_PsiX  not enabled
 Computing Diagnostic #    176  GM_Kvy       Counter:      10   Parms: VV P 175MR      
           Vector  Mate for  GM_Kvy       Diagnostic #    175  GM_Kux   not enabled
 Computing Diagnostic #    178  GM_Kvz       Counter:      10   Parms: VV   177MR      
           Vector  Mate for  GM_Kvz       Diagnostic #    177  GM_Kuz   not enabled
 Computing Diagnostic #    180  GM_Kwy       Counter:      10   Parms: VM   179LR      
           Vector  Mate for  GM_Kwy       Diagnostic #    179  GM_Kwx   not enabled
 Computing Diagnostic #    181  GM_Kwz       Counter:      10   Parms: WM P    LR      
 Computing Diagnostic #     97  ADVy_TH      Counter:      20   Parms: VV      MR      
           Vector  Mate for  ADVy_TH      Diagnostic #     96  ADVx_TH  not enabled
 Computing Diagnostic #     95  ADVr_TH      Counter:      20   Parms: WM      LR      
 Computing Diagnostic #    100  DFyE_TH      Counter:      20   Parms: VV      MR      
           Vector  Mate for  DFyE_TH      Diagnostic #     99  DFxE_TH  not enabled
 Computing Diagnostic #     98  DFrE_TH      Counter:      20   Parms: WM      LR      
 Computing Diagnostic #    101  DFrI_TH      Counter:      20   Parms: WM      LR      
(PID.TID 0000.0001) %CHECKPOINT     36020 ckptA
(PID.TID 0000.0001)   Seconds in section "ALL                    [THE_MODEL_MAIN]":
(PID.TID 0000.0001)           User time:  6.82796182
(PID.TID 0000.0001)         System time:  0.199969003
(PID.TID 0000.0001)     Wall clock time:  7.23222089
(PID.TID 0000.0001)          No. starts: 1
(PID.TID 0000.0001)           No. stops: 1
(PID.TID 0000.0001)   Seconds in section "INITIALISE_FIXED       [THE_MODEL_MAIN]":
(PID.TID 0000.0001)           User time:  1.67574503
(PID.TID 0000.0001)         System time:  0.0539919999
(PID.TID 0000.0001)     Wall clock time:  1.90368891
(PID.TID 0000.0001)          No. starts: 1
(PID.TID 0000.0001)           No. stops: 1
(PID.TID 0000.0001)   Seconds in section "THE_MAIN_LOOP          [THE_MODEL_MAIN]":
(PID.TID 0000.0001)           User time:  5.14021909
(PID.TID 0000.0001)         System time:  0.142977998
(PID.TID 0000.0001)     Wall clock time:  5.31440592
(PID.TID 0000.0001)          No. starts: 1
(PID.TID 0000.0001)           No. stops: 1
(PID.TID 0000.0001)   Seconds in section "INITIALISE_VARIA    [THE_MAIN_LOOP]":
(PID.TID 0000.0001)           User time:  0.223966002
(PID.TID 0000.0001)         System time:  0.0309949964
(PID.TID 0000.0001)     Wall clock time:  0.280433893
(PID.TID 0000.0001)          No. starts: 1
(PID.TID 0000.0001)           No. stops: 1
(PID.TID 0000.0001)   Seconds in section "MAIN LOOP           [THE_MAIN_LOOP]":
(PID.TID 0000.0001)           User time:  4.91625309
(PID.TID 0000.0001)         System time:  0.111983001
(PID.TID 0000.0001)     Wall clock time:  5.0337708
(PID.TID 0000.0001)          No. starts: 1
(PID.TID 0000.0001)           No. stops: 1
(PID.TID 0000.0001)   Seconds in section "FORWARD_STEP        [THE_MAIN_LOOP]":
(PID.TID 0000.0001)           User time:  4.91425323
(PID.TID 0000.0001)         System time:  0.111983001
(PID.TID 0000.0001)     Wall clock time:  5.03284144
(PID.TID 0000.0001)          No. starts: 20
(PID.TID 0000.0001)           No. stops: 20
(PID.TID 0000.0001)   Seconds in section "DO_STATEVARS_DIAGS  [FORWARD_STEP]":
(PID.TID 0000.0001)           User time:  0.0389966965
(PID.TID 0000.0001)         System time:  0.
(PID.TID 0000.0001)     Wall clock time:  0.041615963
(PID.TID 0000.0001)          No. starts: 60
(PID.TID 0000.0001)           No. stops: 60
(PID.TID 0000.0001)   Seconds in section "LOAD_FIELDS_DRIVER  [FORWARD_STEP]":
(PID.TID 0000.0001)           User time:  0.00299990177
(PID.TID 0000.0001)         System time:  0.
(PID.TID 0000.0001)     Wall clock time:  0.00273704529
(PID.TID 0000.0001)          No. starts: 20
(PID.TID 0000.0001)           No. stops: 20
(PID.TID 0000.0001)   Seconds in section "EXTERNAL_FLDS_LOAD [LOAD_FLDS_DRIVER]":
(PID.TID 0000.0001)           User time:  0.00199997425
(PID.TID 0000.0001)         System time:  0.
(PID.TID 0000.0001)     Wall clock time:  0.000917434692
(PID.TID 0000.0001)          No. starts: 20
(PID.TID 0000.0001)           No. stops: 20
(PID.TID 0000.0001)   Seconds in section "DO_ATMOSPHERIC_PHYS [FORWARD_STEP]":
(PID.TID 0000.0001)           User time:  0.
(PID.TID 0000.0001)         System time:  0.
(PID.TID 0000.0001)     Wall clock time:  0.000887155533
(PID.TID 0000.0001)          No. starts: 20
(PID.TID 0000.0001)           No. stops: 20
(PID.TID 0000.0001)   Seconds in section "DO_OCEANIC_PHYS     [FORWARD_STEP]":
(PID.TID 0000.0001)           User time:  0.300951242
(PID.TID 0000.0001)         System time:  0.00299999863
(PID.TID 0000.0001)     Wall clock time:  0.305150747
(PID.TID 0000.0001)          No. starts: 20
(PID.TID 0000.0001)           No. stops: 20
(PID.TID 0000.0001)   Seconds in section "DYNAMICS            [FORWARD_STEP]":
(PID.TID 0000.0001)           User time:  0.55891645
(PID.TID 0000.0001)         System time:  0.00100000203
(PID.TID 0000.0001)     Wall clock time:  0.5601964
(PID.TID 0000.0001)          No. starts: 20
(PID.TID 0000.0001)           No. stops: 20
(PID.TID 0000.0001)   Seconds in section "SOLVE_FOR_PRESSURE  [FORWARD_STEP]":
(PID.TID 0000.0001)           User time:  0.0899829865
(PID.TID 0000.0001)         System time:  0.000999994576
(PID.TID 0000.0001)     Wall clock time:  0.0880048275
(PID.TID 0000.0001)          No. starts: 20
(PID.TID 0000.0001)           No. stops: 20
(PID.TID 0000.0001)   Seconds in section "MOM_CORRECTION_STEP [FORWARD_STEP]":
(PID.TID 0000.0001)           User time:  0.0239988565
(PID.TID 0000.0001)         System time:  0.
(PID.TID 0000.0001)     Wall clock time:  0.0258243084
(PID.TID 0000.0001)          No. starts: 20
(PID.TID 0000.0001)           No. stops: 20
(PID.TID 0000.0001)   Seconds in section "UPDATE_ETAH         [FORWARD_STEP]":
(PID.TID 0000.0001)           User time:  0.00199890137
(PID.TID 0000.0001)         System time:  0.
(PID.TID 0000.0001)     Wall clock time:  0.00136590004
(PID.TID 0000.0001)          No. starts: 20
(PID.TID 0000.0001)           No. stops: 20
(PID.TID 0000.0001)   Seconds in section "BLOCKING_EXCHANGES  [FORWARD_STEP]":
(PID.TID 0000.0001)           User time:  0.110984445
(PID.TID 0000.0001)         System time:  0.
(PID.TID 0000.0001)     Wall clock time:  0.112308025
(PID.TID 0000.0001)          No. starts: 40
(PID.TID 0000.0001)           No. stops: 40
(PID.TID 0000.0001)   Seconds in section "THERMODYNAMICS      [FORWARD_STEP]":
(PID.TID 0000.0001)           User time:  0.481922626
(PID.TID 0000.0001)         System time:  0.00199899822
(PID.TID 0000.0001)     Wall clock time:  0.483940363
(PID.TID 0000.0001)          No. starts: 20
(PID.TID 0000.0001)           No. stops: 20
(PID.TID 0000.0001)   Seconds in section "TRC_CORRECTION_STEP [FORWARD_STEP]":
(PID.TID 0000.0001)           User time:  0.00499868393
(PID.TID 0000.0001)         System time:  0.
(PID.TID 0000.0001)     Wall clock time:  0.00531291962
(PID.TID 0000.0001)          No. starts: 20
(PID.TID 0000.0001)           No. stops: 20
(PID.TID 0000.0001)   Seconds in section "DO_STATEVARS_TAVE   [FORWARD_STEP]":
(PID.TID 0000.0001)           User time:  0.0419957638
(PID.TID 0000.0001)         System time:  0.
(PID.TID 0000.0001)     Wall clock time:  0.0409224033
(PID.TID 0000.0001)          No. starts: 20
(PID.TID 0000.0001)           No. stops: 20
(PID.TID 0000.0001)   Seconds in section "MONITOR             [FORWARD_STEP]":
(PID.TID 0000.0001)           User time:  0.0989836454
(PID.TID 0000.0001)         System time:  0.
(PID.TID 0000.0001)     Wall clock time:  0.099550724
(PID.TID 0000.0001)          No. starts: 20
(PID.TID 0000.0001)           No. stops: 20
(PID.TID 0000.0001)   Seconds in section "DO_THE_MODEL_IO     [FORWARD_STEP]":
(PID.TID 0000.0001)           User time:  3.10152841
(PID.TID 0000.0001)         System time:  0.0299960002
(PID.TID 0000.0001)     Wall clock time:  3.1347034
(PID.TID 0000.0001)          No. starts: 20
(PID.TID 0000.0001)           No. stops: 20
(PID.TID 0000.0001)   Seconds in section "DO_WRITE_PICKUP     [FORWARD_STEP]":
(PID.TID 0000.0001)           User time:  0.0419940948
(PID.TID 0000.0001)         System time:  0.0729890019
(PID.TID 0000.0001)     Wall clock time:  0.113029718
(PID.TID 0000.0001)          No. starts: 20
(PID.TID 0000.0001)           No. stops: 20
(PID.TID 0000.0001) // ======================================================
(PID.TID 0000.0001) // Tile <-> Tile communication statistics
(PID.TID 0000.0001) // ======================================================
(PID.TID 0000.0001) // o Tile number: 000001
(PID.TID 0000.0001) //         No. X exchanges =              0
(PID.TID 0000.0001) //            Max. X spins =              0
(PID.TID 0000.0001) //            Min. X spins =     1000000000
(PID.TID 0000.0001) //          Total. X spins =              0
(PID.TID 0000.0001) //            Avg. X spins =       0.00E+00
(PID.TID 0000.0001) //         No. Y exchanges =              0
(PID.TID 0000.0001) //            Max. Y spins =              0
(PID.TID 0000.0001) //            Min. Y spins =     1000000000
(PID.TID 0000.0001) //          Total. Y spins =              0
(PID.TID 0000.0001) //            Avg. Y spins =       0.00E+00
(PID.TID 0000.0001) // o Tile number: 000002
(PID.TID 0000.0001) //         No. X exchanges =              0
(PID.TID 0000.0001) //            Max. X spins =              0
(PID.TID 0000.0001) //            Min. X spins =     1000000000
(PID.TID 0000.0001) //          Total. X spins =              0
(PID.TID 0000.0001) //            Avg. X spins =       0.00E+00
(PID.TID 0000.0001) //         No. Y exchanges =              0
(PID.TID 0000.0001) //            Max. Y spins =              0
(PID.TID 0000.0001) //            Min. Y spins =     1000000000
(PID.TID 0000.0001) //          Total. Y spins =              0
(PID.TID 0000.0001) //            Avg. Y spins =       0.00E+00
(PID.TID 0000.0001) // o Tile number: 000003
(PID.TID 0000.0001) //         No. X exchanges =              0
(PID.TID 0000.0001) //            Max. X spins =              0
(PID.TID 0000.0001) //            Min. X spins =     1000000000
(PID.TID 0000.0001) //          Total. X spins =              0
(PID.TID 0000.0001) //            Avg. X spins =       0.00E+00
(PID.TID 0000.0001) //         No. Y exchanges =              0
(PID.TID 0000.0001) //            Max. Y spins =              0
(PID.TID 0000.0001) //            Min. Y spins =     1000000000
(PID.TID 0000.0001) //          Total. Y spins =              0
(PID.TID 0000.0001) //            Avg. Y spins =       0.00E+00
(PID.TID 0000.0001) // o Tile number: 000004
(PID.TID 0000.0001) //         No. X exchanges =              0
(PID.TID 0000.0001) //            Max. X spins =              0
(PID.TID 0000.0001) //            Min. X spins =     1000000000
(PID.TID 0000.0001) //          Total. X spins =              0
(PID.TID 0000.0001) //            Avg. X spins =       0.00E+00
(PID.TID 0000.0001) //         No. Y exchanges =              0
(PID.TID 0000.0001) //            Max. Y spins =              0
(PID.TID 0000.0001) //            Min. Y spins =     1000000000
(PID.TID 0000.0001) //          Total. Y spins =              0
(PID.TID 0000.0001) //            Avg. Y spins =       0.00E+00
(PID.TID 0000.0001) // o Thread number: 000001
(PID.TID 0000.0001) //            No. barriers =          17744
(PID.TID 0000.0001) //      Max. barrier spins =              1
(PID.TID 0000.0001) //      Min. barrier spins =              1
(PID.TID 0000.0001) //     Total barrier spins =          17744
(PID.TID 0000.0001) //      Avg. barrier spins =       1.00E+00
