(PID.TID 0000.0001) 
(PID.TID 0000.0001) // ======================================================
(PID.TID 0000.0001) //                      MITgcm UV
(PID.TID 0000.0001) //                      =========
(PID.TID 0000.0001) // ======================================================
(PID.TID 0000.0001) // execution environment starting up...
(PID.TID 0000.0001) 
(PID.TID 0000.0001) // MITgcmUV version:  checkpoint57c_pre
(PID.TID 0000.0001) // Build user:        jmc
(PID.TID 0000.0001) // Build host:        faulks
(PID.TID 0000.0001) // Build date:        Thu Jan 27 09:56:02 EST 2005
(PID.TID 0000.0001) 
(PID.TID 0000.0001) // =======================================================
(PID.TID 0000.0001) // Execution Environment parameter file "eedata"
(PID.TID 0000.0001) // =======================================================
(PID.TID 0000.0001) ># Example "eedata" file
(PID.TID 0000.0001) ># Lines beginning "#" are comments
(PID.TID 0000.0001) ># nTx - No. threads per process in X
(PID.TID 0000.0001) ># nTy - No. threads per process in Y
(PID.TID 0000.0001) > &EEPARMS
(PID.TID 0000.0001) > nTx=1,nTy=1
(PID.TID 0000.0001) > &
(PID.TID 0000.0001) ># Note: Some systems use & as the
(PID.TID 0000.0001) ># namelist terminator. Other systems
(PID.TID 0000.0001) ># use a / character (as shown here).
(PID.TID 0000.0001) 
(PID.TID 0000.0001) // =======================================================
(PID.TID 0000.0001) // Computational Grid Specification ( see files "SIZE.h" )
(PID.TID 0000.0001) //                                  ( and "eedata"       )
(PID.TID 0000.0001) // =======================================================
(PID.TID 0000.0001)      nPx =    1 ; /* No. processes in X */
(PID.TID 0000.0001)      nPy =    1 ; /* No. processes in Y */
(PID.TID 0000.0001)      nSx =    1 ; /* No. tiles in X per process */
(PID.TID 0000.0001)      nSy =    4 ; /* No. tiles in Y per process */
(PID.TID 0000.0001)      sNx =    1 ; /* Tile size in X */
(PID.TID 0000.0001)      sNy =   14 ; /* Tile size in Y */
(PID.TID 0000.0001)      OLx =    3 ; /* Tile overlap distance in X */
(PID.TID 0000.0001)      OLy =    3 ; /* Tile overlap distance in Y */
(PID.TID 0000.0001)      nTx =    1 ; /* No. threads in X per process */
(PID.TID 0000.0001)      nTy =    1 ; /* No. threads in Y per process */
(PID.TID 0000.0001)       Nr =   15 ; /* No. levels in the vertical   */
(PID.TID 0000.0001)       nX =    1 ; /* Total domain size in X ( = nPx*nSx*sNx ) */
(PID.TID 0000.0001)       nY =   56 ; /* Total domain size in Y ( = nPy*nSy*sNy ) */
(PID.TID 0000.0001)   nTiles =    4 ; /* Total no. tiles per process ( = nSx*nSy ) */
(PID.TID 0000.0001)   nProcs =    1 ; /* Total no. processes ( = nPx*nPy ) */
(PID.TID 0000.0001) nThreads =    1 ; /* Total no. threads per process ( = nTx*nTy ) */
(PID.TID 0000.0001) usingMPI =    F ; /* Flag used to control whether MPI is in use */
(PID.TID 0000.0001)                   /*  note: To execute a program with MPI calls */
(PID.TID 0000.0001)                   /*  it must be launched appropriately e.g     */
(PID.TID 0000.0001)                   /*  "mpirun -np 64 ......"                    */
(PID.TID 0000.0001) useCoupler=   F ; /* Flag used to control communications with */
(PID.TID 0000.0001)                   /*  other model components, through a coupler */
(PID.TID 0000.0001) 
(PID.TID 0000.0001) // ======================================================
(PID.TID 0000.0001) // Mapping of tiles to threads
(PID.TID 0000.0001) // ======================================================
(PID.TID 0000.0001) // -o- Thread   1, tiles (   1:   1,   1:   4)
(PID.TID 0000.0001) 
(PID.TID 0000.0001) // ======================================================
(PID.TID 0000.0001) // Tile <-> Tile connectvity table
(PID.TID 0000.0001) // ======================================================
(PID.TID 0000.0001) // Tile number: 000001 (process no. = 000001)
(PID.TID 0000.0001) //        WEST: Tile = 000001, Process = 000001, Comm = put
(PID.TID 0000.0001) //                bi = 000001, bj = 000001
(PID.TID 0000.0001) //        EAST: Tile = 000001, Process = 000001, Comm = put
(PID.TID 0000.0001) //                bi = 000001, bj = 000001
(PID.TID 0000.0001) //       SOUTH: Tile = 000004, Process = 000001, Comm = put
(PID.TID 0000.0001) //                bi = 000001, bj = 000004
(PID.TID 0000.0001) //       NORTH: Tile = 000002, Process = 000001, Comm = put
(PID.TID 0000.0001) //                bi = 000001, bj = 000002
(PID.TID 0000.0001) // Tile number: 000002 (process no. = 000001)
(PID.TID 0000.0001) //        WEST: Tile = 000002, Process = 000001, Comm = put
(PID.TID 0000.0001) //                bi = 000001, bj = 000002
(PID.TID 0000.0001) //        EAST: Tile = 000002, Process = 000001, Comm = put
(PID.TID 0000.0001) //                bi = 000001, bj = 000002
(PID.TID 0000.0001) //       SOUTH: Tile = 000001, Process = 000001, Comm = put
(PID.TID 0000.0001) //                bi = 000001, bj = 000001
(PID.TID 0000.0001) //       NORTH: Tile = 000003, Process = 000001, Comm = put
(PID.TID 0000.0001) //                bi = 000001, bj = 000003
(PID.TID 0000.0001) // Tile number: 000003 (process no. = 000001)
(PID.TID 0000.0001) //        WEST: Tile = 000003, Process = 000001, Comm = put
(PID.TID 0000.0001) //                bi = 000001, bj = 000003
(PID.TID 0000.0001) //        EAST: Tile = 000003, Process = 000001, Comm = put
(PID.TID 0000.0001) //                bi = 000001, bj = 000003
(PID.TID 0000.0001) //       SOUTH: Tile = 000002, Process = 000001, Comm = put
(PID.TID 0000.0001) //                bi = 000001, bj = 000002
(PID.TID 0000.0001) //       NORTH: Tile = 000004, Process = 000001, Comm = put
(PID.TID 0000.0001) //                bi = 000001, bj = 000004
(PID.TID 0000.0001) // Tile number: 000004 (process no. = 000001)
(PID.TID 0000.0001) //        WEST: Tile = 000004, Process = 000001, Comm = put
(PID.TID 0000.0001) //                bi = 000001, bj = 000004
(PID.TID 0000.0001) //        EAST: Tile = 000004, Process = 000001, Comm = put
(PID.TID 0000.0001) //                bi = 000001, bj = 000004
(PID.TID 0000.0001) //       SOUTH: Tile = 000003, Process = 000001, Comm = put
(PID.TID 0000.0001) //                bi = 000001, bj = 000003
(PID.TID 0000.0001) //       NORTH: Tile = 000001, Process = 000001, Comm = put
(PID.TID 0000.0001) //                bi = 000001, bj = 000001
(PID.TID 0000.0001) 
(PID.TID 0000.0001) // =======================================================
(PID.TID 0000.0001) // Model parameter file "data"
(PID.TID 0000.0001) // =======================================================
(PID.TID 0000.0001) ># ====================
(PID.TID 0000.0001) ># | Model parameters |
(PID.TID 0000.0001) ># ====================
(PID.TID 0000.0001) >#
(PID.TID 0000.0001) ># Continuous equation parameters
(PID.TID 0000.0001) > &PARM01
(PID.TID 0000.0001) > tRef= 18.8, 16.3, 13.1, 10.4, 8.1, 6.0, 4.5,
(PID.TID 0000.0001) >      3.4, 2.7, 2.2, 1.8, 1.5, 1.2, 1.0, 0.9,
(PID.TID 0000.0001) > sRef= 15*34.7,
(PID.TID 0000.0001) > cosPower=1.,
(PID.TID 0000.0001) > viscAr=1.E-3,
(PID.TID 0000.0001) > viscAh=12.E5,
(PID.TID 0000.0001) > no_slip_sides=.FALSE.,
(PID.TID 0000.0001) > no_slip_bottom=.TRUE.,
(PID.TID 0000.0001) > bottomDragLinear=1.E-3,
(PID.TID 0000.0001) >#diffK4T=2.E12,
(PID.TID 0000.0001) > diffKhT=0.E3,
(PID.TID 0000.0001) > diffKrNrT=1.E-4, 14*1.E-5,
(PID.TID 0000.0001) > ivdc_kappa=100.,
(PID.TID 0000.0001) > implicitDiffusion=.TRUE.,
(PID.TID 0000.0001) > eosType='LINEAR',
(PID.TID 0000.0001) > tAlpha=2.E-4,
(PID.TID 0000.0001) > sBeta =0.E-4,
(PID.TID 0000.0001) > saltStepping=.FALSE.,
(PID.TID 0000.0001) > gravity=9.81,
(PID.TID 0000.0001) > rhonil=1035.,
(PID.TID 0000.0001) > implicitFreeSurface=.TRUE.,
(PID.TID 0000.0001) > exactConserv=.TRUE.,
(PID.TID 0000.0001) > staggerTimeStep=.TRUE.,
(PID.TID 0000.0001) > useCDscheme=.TRUE.,
(PID.TID 0000.0001) > readBinaryPrec=64,
(PID.TID 0000.0001) > tempAdvScheme=77,
(PID.TID 0000.0001) > usePickupBeforeC54=.TRUE.,
(PID.TID 0000.0001) > &
(PID.TID 0000.0001) >
(PID.TID 0000.0001) ># Elliptic solver parameters
(PID.TID 0000.0001) > &PARM02
(PID.TID 0000.0001) > cg2dMaxIters=1000,
(PID.TID 0000.0001) >#cg2dTargetResidual=1.E-13,
(PID.TID 0000.0001) > cg2dTargetResWunit=1.E-17,
(PID.TID 0000.0001) > &
(PID.TID 0000.0001) >
(PID.TID 0000.0001) ># Time stepping parameters
(PID.TID 0000.0001) > &PARM03
(PID.TID 0000.0001) > niter0=36000,
(PID.TID 0000.0001) > nTimeSteps=20,
(PID.TID 0000.0001) >#endTime=3110400000.,
(PID.TID 0000.0001) > deltaTmom=1200.0,
(PID.TID 0000.0001) > deltaTfreesurf=3600.0,
(PID.TID 0000.0001) > deltaTtracer=86400.0,
(PID.TID 0000.0001) > deltaTClock =86400.0,
(PID.TID 0000.0001) > abEps=0.1,
(PID.TID 0000.0001) > tauCD=321428.,
(PID.TID 0000.0001) > tauThetaClimRelax=2592000.0,
(PID.TID 0000.0001) > chkptFreq=0.0,
(PID.TID 0000.0001) > pChkptFreq=3110400000.0,
(PID.TID 0000.0001) > taveFreq=1555200000.0,
(PID.TID 0000.0001) > dumpFreq=1555200000.0,
(PID.TID 0000.0001) > diagFreq=1555200000.0,
(PID.TID 0000.0001) >#monitorFreq=31104000.0,
(PID.TID 0000.0001) > monitorFreq=1.0,
(PID.TID 0000.0001) > &
(PID.TID 0000.0001) >
(PID.TID 0000.0001) ># Gridding parameters
(PID.TID 0000.0001) > &PARM04
(PID.TID 0000.0001) > usingCartesianGrid=.FALSE.,
(PID.TID 0000.0001) > usingSphericalPolarGrid=.TRUE.,
(PID.TID 0000.0001) > delRc= 20.,  60.,  85., 120., 165., 215., 265., 315.,
(PID.TID 0000.0001) >       365., 415., 465., 515., 565., 615., 665., 350.,
(PID.TID 0000.0001) > phiMin=-84.,
(PID.TID 0000.0001) > delY=56*3,
(PID.TID 0000.0001) > delX=1*3,
(PID.TID 0000.0001) > &
(PID.TID 0000.0001) >
(PID.TID 0000.0001) ># Input datasets
(PID.TID 0000.0001) > &PARM05
(PID.TID 0000.0001) > bathyFile='topo_sl.bin',
(PID.TID 0000.0001) > zonalWindFile='taux_sl.bin',
(PID.TID 0000.0001) > thetaClimFile='sst_sl.bin',
(PID.TID 0000.0001) > &
(PID.TID 0000.0001) 
(PID.TID 0000.0001) S/R INI_PARMS ; starts to read PARM01
(PID.TID 0000.0001) S/R INI_PARMS ; read PARM01 : OK
(PID.TID 0000.0001) S/R INI_PARMS ; starts to read PARM02
(PID.TID 0000.0001) S/R INI_PARMS ; read PARM02 : OK
(PID.TID 0000.0001) S/R INI_PARMS ; starts to read PARM03
(PID.TID 0000.0001) S/R INI_PARMS ; read PARM03 : OK
(PID.TID 0000.0001) S/R INI_PARMS ; starts to read PARM04
(PID.TID 0000.0001) S/R INI_PARMS ; read PARM04 : OK
(PID.TID 0000.0001) S/R INI_PARMS ; starts to read PARM05
(PID.TID 0000.0001) S/R INI_PARMS ; read PARM05 : OK
(PID.TID 0000.0001)  PACKAGES_BOOT: opening data.pkg
(PID.TID 0000.0001)  OPEN_COPY_DATA_FILE: opening file data.pkg
(PID.TID 0000.0001) // =======================================================
(PID.TID 0000.0001) // Parameter file "data.pkg"
(PID.TID 0000.0001) // =======================================================
(PID.TID 0000.0001) ># Packages
(PID.TID 0000.0001) > &PACKAGES
(PID.TID 0000.0001) > useGMRedi=.TRUE.,
(PID.TID 0000.0001) > useDiagnostics=.TRUE.,
(PID.TID 0000.0001) > &
(PID.TID 0000.0001) >
(PID.TID 0000.0001) 
(PID.TID 0000.0001)  PACKAGES_BOOT: finished reading data.pkg
(PID.TID 0000.0001)  GM_READPARMS: opening data.gmredi
(PID.TID 0000.0001)  OPEN_COPY_DATA_FILE: opening file data.gmredi
(PID.TID 0000.0001) // =======================================================
(PID.TID 0000.0001) // Parameter file "data.gmredi"
(PID.TID 0000.0001) // =======================================================
(PID.TID 0000.0001) ># from MOM
(PID.TID 0000.0001) ># GM_background_K: 	isopycnal diffusion coefficien
(PID.TID 0000.0001) ># GM_maxSlope:		max slope of isopycnals
(PID.TID 0000.0001) ># GM_Scrit:		transition for scaling diffusion coefficient
(PID.TID 0000.0001) ># GM_Sd:		half width scaling for diffusion coefficient
(PID.TID 0000.0001) ># real background diff:	horizontal diffusion
(PID.TID 0000.0001) >
(PID.TID 0000.0001) ># ifdef GM_VISBECK_VARIABLE_K, include following in GM_PARM01
(PID.TID 0000.0001) ># GM_Visbeck_alpha   = 0.,
(PID.TID 0000.0001) ># GM_Visbeck_length  = 2.e+5,
(PID.TID 0000.0001) ># GM_Visbeck_depth   = 1.e+3,
(PID.TID 0000.0001) ># GM_Visbeck_maxval_K= 2.5e+3,
(PID.TID 0000.0001) >
(PID.TID 0000.0001) > &GM_PARM01
(PID.TID 0000.0001) >  GM_AdvForm=.TRUE.,
(PID.TID 0000.0001) ># GM_AdvSeparate=.TRUE.,
(PID.TID 0000.0001) ># GM_background_K=1000.,
(PID.TID 0000.0001) >  GM_background_K=10.,
(PID.TID 0000.0001) ># GM_isopycK=1000.,
(PID.TID 0000.0001) ># GM_taper_scheme    = 'clipping',
(PID.TID 0000.0001) >  GM_taper_scheme    = 'linear',
(PID.TID 0000.0001) ># GM_taper_scheme    = 'gkw91',
(PID.TID 0000.0001) ># GM_taper_scheme    = 'ldd97',
(PID.TID 0000.0001) >  GM_maxSlope        = 1.e-2,
(PID.TID 0000.0001) >  GM_Scrit           = 4.e-3,
(PID.TID 0000.0001) >  GM_Sd              = 1.e-3,
(PID.TID 0000.0001) >  GM_Visbeck_alpha   = 1.e-2,
(PID.TID 0000.0001) >  GM_Visbeck_length  = 2.e+5,
(PID.TID 0000.0001) >  GM_Visbeck_depth   = 1.e+3,
(PID.TID 0000.0001) >  GM_Visbeck_maxval_K= 2.5e+3,
(PID.TID 0000.0001) > &end
(PID.TID 0000.0001) >
(PID.TID 0000.0001) >
(PID.TID 0000.0001) 
(PID.TID 0000.0001)  GM_READPARMS: finished reading data.gmredi
(PID.TID 0000.0001)  DIAGNOSTICS_READPARMS: opening data.diagnostics
(PID.TID 0000.0001)  OPEN_COPY_DATA_FILE: opening file data.diagnostics
(PID.TID 0000.0001) // =======================================================
(PID.TID 0000.0001) // Parameter file "data.diagnostics"
(PID.TID 0000.0001) // =======================================================
(PID.TID 0000.0001) ># Diagnostic Package Choices
(PID.TID 0000.0001) >#-----------------
(PID.TID 0000.0001) ># for each output-stream:
(PID.TID 0000.0001) >#  filename(n) : prefix of the output file name (only 8.c long) for outp.stream n
(PID.TID 0000.0001) >#  frequency(n):< 0 : write snap-shot output every multiple of |frequency| (iter)
(PID.TID 0000.0001) >#               > 0 : write time-average output every multiple of frequency (iter)
(PID.TID 0000.0001) >#  levels(:,n) : list of levels to write to file (Notes: declared as REAL)
(PID.TID 0000.0001) >#                 when this entry is missing, select all common levels of this list
(PID.TID 0000.0001) >#  fields(:,n) : list of diagnostics fields (8.c) (see "available_diagnostics" file
(PID.TID 0000.0001) >#                 for the list of all available diag. in this particular config)
(PID.TID 0000.0001) >#-----------------
(PID.TID 0000.0001) > &diagnostics_list
(PID.TID 0000.0001) >  frequency(1) = -10,
(PID.TID 0000.0001) >   levels(1,1) = 1.,
(PID.TID 0000.0001) >   fields(1,1) = 'ETAN    ','ETANSQ  ','DETADT2 ','PHIBOT  ','PHIBOTSQ',
(PID.TID 0000.0001) >   filename(1) = 'surfDiag',
(PID.TID 0000.0001) >  frequency(2) = 20,
(PID.TID 0000.0001) ># do not specify levels => all levels are selected
(PID.TID 0000.0001) >   fields(1,2) = 'UVEL    ','VVEL    ','WVEL    ','PHIHYD  ',
(PID.TID 0000.0001) >                 'UVELMASS','VVELMASS',
(PID.TID 0000.0001) >                 'UVELSQ  ','VVELSQ  ','UVELVVEL','THETASQ ',
(PID.TID 0000.0001) >                 'THETA   ','UTHMASS ','VTHMASS ','WVELTH  ',
(PID.TID 0000.0001) >#                'SALT    ','USLTMASS','VSLTMASS','WVELSLT ',
(PID.TID 0000.0001) >   filename(2) = 'dynDiag',
(PID.TID 0000.0001) >  frequency(3) = 10,
(PID.TID 0000.0001) >   levels(1,3) = 2., 3., 4., 5., 6., 7., 8., 9., 10., 11., 12., 13.,
(PID.TID 0000.0001) >   fields(1,3) = 'DRHODR  ',
(PID.TID 0000.0001) >   filename(3) = 'oceDiag',
(PID.TID 0000.0001) >  frequency(4) = 20,
(PID.TID 0000.0001) >   fields(1,4) = 'ADVx_TH ','ADVy_TH ','ADVr_TH ',
(PID.TID 0000.0001) >                 'DIFx_TH ','DIFy_TH ','DFrE_TH ',
(PID.TID 0000.0001) >                 'DFrI_TH ',
(PID.TID 0000.0001) >#                'ADVx_SLT',
(PID.TID 0000.0001) >   filename(4) = 'flxDiag',
(PID.TID 0000.0001) > &end
(PID.TID 0000.0001) 
(PID.TID 0000.0001) -----------------------------------------------------
(PID.TID 0000.0001)  DIAGNOSTICS_READPARMS: active diagnostics summary:
(PID.TID 0000.0001) -----------------------------------------------------
(PID.TID 0000.0001) Creating Output Stream: surfDiag
(PID.TID 0000.0001)  Frequency:  -10
(PID.TID 0000.0001)  Levels:       1.
(PID.TID 0000.0001)  Fields:    ETAN     ETANSQ   DETADT2  PHIBOT   PHIBOTSQ
(PID.TID 0000.0001) Creating Output Stream: dynDiag
(PID.TID 0000.0001)  Frequency:  20
(PID.TID 0000.0001)  Levels:    will be set later
(PID.TID 0000.0001)  Fields:    UVEL     VVEL     WVEL     PHIHYD   UVELMASS VVELMASS UVELSQ   VVELSQ   UVELVVEL THETASQ  THETA    UTHMASS  VTHMASS  WVELTH
(PID.TID 0000.0001) Creating Output Stream: oceDiag
(PID.TID 0000.0001)  Frequency:  10
(PID.TID 0000.0001)  Levels:       2.   3.   4.   5.   6.   7.   8.   9.  10.  11.  12.  13.
(PID.TID 0000.0001)  Fields:    DRHODR
(PID.TID 0000.0001) Creating Output Stream: flxDiag
(PID.TID 0000.0001)  Frequency:  20
(PID.TID 0000.0001)  Levels:    will be set later
(PID.TID 0000.0001)  Fields:    ADVx_TH  ADVy_TH  ADVr_TH  DIFx_TH  DIFy_TH  DFrE_TH  DFrI_TH
(PID.TID 0000.0001) -----------------------------------------------------
(PID.TID 0000.0001) 
(PID.TID 0000.0001) %MON XC_max                       =   1.5000000000000E+00
(PID.TID 0000.0001) %MON XC_min                       =   1.5000000000000E+00
(PID.TID 0000.0001) %MON XC_mean                      =   1.5000000000000E+00
(PID.TID 0000.0001) %MON XC_sd                        =   0.0000000000000E+00
(PID.TID 0000.0001) %MON XG_max                       =   0.0000000000000E+00
(PID.TID 0000.0001) %MON XG_min                       =   0.0000000000000E+00
(PID.TID 0000.0001) %MON XG_mean                      =   0.0000000000000E+00
(PID.TID 0000.0001) %MON XG_sd                        =   0.0000000000000E+00
(PID.TID 0000.0001) %MON DXC_max                      =   3.3341812682592E+05
(PID.TID 0000.0001) %MON DXC_min                      =   4.3534716771864E+04
(PID.TID 0000.0001) %MON DXC_mean                     =   2.2627957857351E+05
(PID.TID 0000.0001) %MON DXC_sd                       =   9.1462046601761E+04
(PID.TID 0000.0001) %MON DXF_max                      =   3.3341812682592E+05
(PID.TID 0000.0001) %MON DXF_min                      =   4.3534716771864E+04
(PID.TID 0000.0001) %MON DXF_mean                     =   2.2627957857351E+05
(PID.TID 0000.0001) %MON DXF_sd                       =   9.1462046601761E+04
(PID.TID 0000.0001) %MON DXG_max                      =   3.3353242005612E+05
(PID.TID 0000.0001) %MON DXG_min                      =   3.4863631318407E+04
(PID.TID 0000.0001) %MON DXG_mean                     =   2.2620203821339E+05
(PID.TID 0000.0001) %MON DXG_sd                       =   9.1624145029333E+04
(PID.TID 0000.0001) %MON DXV_max                      =   3.3353242005612E+05
(PID.TID 0000.0001) %MON DXV_min                      =   3.4863631318407E+04
(PID.TID 0000.0001) %MON DXV_mean                     =   2.2620203821339E+05
(PID.TID 0000.0001) %MON DXV_sd                       =   9.1624145029333E+04
(PID.TID 0000.0001) %MON YC_max                       =   8.2500000000000E+01
(PID.TID 0000.0001) %MON YC_min                       =  -8.2500000000000E+01
(PID.TID 0000.0001) %MON YC_mean                      =   0.0000000000000E+00
(PID.TID 0000.0001) %MON YC_sd                        =   4.8489689625734E+01
(PID.TID 0000.0001) %MON YG_max                       =   8.1000000000000E+01
(PID.TID 0000.0001) %MON YG_min                       =  -8.4000000000000E+01
(PID.TID 0000.0001) %MON YG_mean                      =  -1.5272727272727E+00
(PID.TID 0000.0001) %MON YG_sd                        =   4.8928093638598E+01
(PID.TID 0000.0001) %MON DYC_max                      =   3.3353242005612E+05
(PID.TID 0000.0001) %MON DYC_min                      =   3.3353242005612E+05
(PID.TID 0000.0001) %MON DYC_mean                     =   3.3353242005612E+05
(PID.TID 0000.0001) %MON DYC_sd                       =   0.0000000000000E+00
(PID.TID 0000.0001) %MON DYF_max                      =   3.3353242005612E+05
(PID.TID 0000.0001) %MON DYF_min                      =   3.3353242005612E+05
(PID.TID 0000.0001) %MON DYF_mean                     =   3.3353242005612E+05
(PID.TID 0000.0001) %MON DYF_sd                       =   0.0000000000000E+00
(PID.TID 0000.0001) %MON DYG_max                      =   3.3353242005612E+05
(PID.TID 0000.0001) %MON DYG_min                      =   3.3353242005612E+05
(PID.TID 0000.0001) %MON DYG_mean                     =   3.3353242005612E+05
(PID.TID 0000.0001) %MON DYG_sd                       =   0.0000000000000E+00
(PID.TID 0000.0001) %MON DYU_max                      =   3.3353242005612E+05
(PID.TID 0000.0001) %MON DYU_min                      =   3.3353242005612E+05
(PID.TID 0000.0001) %MON DYU_mean                     =   3.3353242005612E+05
(PID.TID 0000.0001) %MON DYU_sd                       =   0.0000000000000E+00
(PID.TID 0000.0001) %MON RA_max                       =   1.1119305196237E+11
(PID.TID 0000.0001) %MON RA_min                       =   1.4518580829015E+10
(PID.TID 0000.0001) %MON RA_mean                      =   7.5462954512622E+10
(PID.TID 0000.0001) %MON RA_sd                        =   3.0502073169179E+10
(PID.TID 0000.0001) %MON RAW_max                      =   1.1119305196237E+11
(PID.TID 0000.0001) %MON RAW_min                      =   1.4518580829015E+10
(PID.TID 0000.0001) %MON RAW_mean                     =   7.5462954512622E+10
(PID.TID 0000.0001) %MON RAW_sd                       =   3.0502073169179E+10
(PID.TID 0000.0001) %MON RAS_max                      =   1.1123116810562E+11
(PID.TID 0000.0001) %MON RAS_min                      =   1.1626823069547E+10
(PID.TID 0000.0001) %MON RAS_mean                     =   7.5437095242840E+10
(PID.TID 0000.0001) %MON RAS_sd                       =   3.0556132074289E+10
(PID.TID 0000.0001) %MON RAZ_max                      =   1.1123116810562E+11
(PID.TID 0000.0001) %MON RAZ_min                      =   1.1626823069547E+10
(PID.TID 0000.0001) %MON RAZ_mean                     =   7.5437095242840E+10
(PID.TID 0000.0001) %MON RAZ_sd                       =   3.0556132074289E+10
(PID.TID 0000.0001)  MDSREADFIELD: opening global file: topo_sl.bin
(PID.TID 0000.0001) // =======================================================
(PID.TID 0000.0001) // Field Model R_low (ini_masks_etc) at iteration          1
(PID.TID 0000.0001) // CMIN =         -5.200000000000000E+03
(PID.TID 0000.0001) // CMAX =         -5.200000000000000E+03
(PID.TID 0000.0001) // CINT =          0.000000000000000E+00
(PID.TID 0000.0001) // SYMBOLS (CMIN->CMAX): -abcdefghijklmnopqrstuvwxyz+
(PID.TID 0000.0001) //                  0.0: .
(PID.TID 0000.0001) // RANGE I (Lo:Hi:Step):(  -2:   4:   1)
(PID.TID 0000.0001) // RANGE J (Lo:Hi:Step):(  59:  -2:  -1)
(PID.TID 0000.0001) // RANGE K (Lo:Hi:Step):(   1:   1:   1)
(PID.TID 0000.0001) // =======================================================
(PID.TID 0000.0001) // =======================================================
(PID.TID 0000.0001) // END OF FIELD                                          =
(PID.TID 0000.0001) // =======================================================
(PID.TID 0000.0001) 
(PID.TID 0000.0001) // =======================================================
(PID.TID 0000.0001) // Field Model Ro_surf (ini_masks_etc) at iteration          1
(PID.TID 0000.0001) // CMIN =          1.000000000000000E+32
(PID.TID 0000.0001) // CMAX =         -1.000000000000000E+32
(PID.TID 0000.0001) // CINT =          0.000000000000000E+00
(PID.TID 0000.0001) // SYMBOLS (CMIN->CMAX): -abcdefghijklmnopqrstuvwxyz+
(PID.TID 0000.0001) //                  0.0: .
(PID.TID 0000.0001) // RANGE I (Lo:Hi:Step):(  -2:   4:   1)
(PID.TID 0000.0001) // RANGE J (Lo:Hi:Step):(  59:  -2:  -1)
(PID.TID 0000.0001) // RANGE K (Lo:Hi:Step):(   1:   1:   1)
(PID.TID 0000.0001) // =======================================================
(PID.TID 0000.0001) // =======================================================
(PID.TID 0000.0001) // END OF FIELD                                          =
(PID.TID 0000.0001) // =======================================================
(PID.TID 0000.0001) 
(PID.TID 0000.0001) // =======================================================
(PID.TID 0000.0001) // Field hFacC at iteration          1
(PID.TID 0000.0001) // CMIN =          1.000000000000000E+00
(PID.TID 0000.0001) // CMAX =          1.000000000000000E+00
(PID.TID 0000.0001) // CINT =          0.000000000000000E+00
(PID.TID 0000.0001) // SYMBOLS (CMIN->CMAX): -abcdefghijklmnopqrstuvwxyz+
(PID.TID 0000.0001) //                  0.0: .
(PID.TID 0000.0001) // RANGE I (Lo:Hi:Step):(  -2:   4:   1)
(PID.TID 0000.0001) // RANGE J (Lo:Hi:Step):(  59:  -2:  -1)
(PID.TID 0000.0001) // RANGE K (Lo:Hi:Step):(   1:   1:   1)
(PID.TID 0000.0001) // =======================================================
(PID.TID 0000.0001) // =======================================================
(PID.TID 0000.0001) // END OF FIELD                                          =
(PID.TID 0000.0001) // =======================================================
(PID.TID 0000.0001) 
(PID.TID 0000.0001) // =======================================================
(PID.TID 0000.0001) // Field hFacW at iteration          1
(PID.TID 0000.0001) // CMIN =          1.000000000000000E+00
(PID.TID 0000.0001) // CMAX =          1.000000000000000E+00
(PID.TID 0000.0001) // CINT =          0.000000000000000E+00
(PID.TID 0000.0001) // SYMBOLS (CMIN->CMAX): -abcdefghijklmnopqrstuvwxyz+
(PID.TID 0000.0001) //                  0.0: .
(PID.TID 0000.0001) // RANGE I (Lo:Hi:Step):(  -2:   4:   1)
(PID.TID 0000.0001) // RANGE J (Lo:Hi:Step):(  59:  -2:  -1)
(PID.TID 0000.0001) // RANGE K (Lo:Hi:Step):(   1:   1:   1)
(PID.TID 0000.0001) // =======================================================
(PID.TID 0000.0001) // =======================================================
(PID.TID 0000.0001) // END OF FIELD                                          =
(PID.TID 0000.0001) // =======================================================
(PID.TID 0000.0001) 
(PID.TID 0000.0001) // =======================================================
(PID.TID 0000.0001) // Field hFacS at iteration          1
(PID.TID 0000.0001) // CMIN =          1.000000000000000E+00
(PID.TID 0000.0001) // CMAX =          1.000000000000000E+00
(PID.TID 0000.0001) // CINT =          0.000000000000000E+00
(PID.TID 0000.0001) // SYMBOLS (CMIN->CMAX): -abcdefghijklmnopqrstuvwxyz+
(PID.TID 0000.0001) //                  0.0: .
(PID.TID 0000.0001) // RANGE I (Lo:Hi:Step):(  -2:   4:   1)
(PID.TID 0000.0001) // RANGE J (Lo:Hi:Step):(  59:  -2:  -1)
(PID.TID 0000.0001) // RANGE K (Lo:Hi:Step):(   1:   1:   1)
(PID.TID 0000.0001) // =======================================================
(PID.TID 0000.0001) // =======================================================
(PID.TID 0000.0001) // END OF FIELD                                          =
(PID.TID 0000.0001) // =======================================================
(PID.TID 0000.0001) 
(PID.TID 0000.0001) 
(PID.TID 0000.0001) // ===================================
(PID.TID 0000.0001) // GAD parameters :
(PID.TID 0000.0001) // ===================================
(PID.TID 0000.0001) tempAdvScheme =   /* Temp. Horiz.Advection scheme selector */
(PID.TID 0000.0001)                      77
(PID.TID 0000.0001)     ;
(PID.TID 0000.0001) tempVertAdvScheme =   /* Temp. Vert. Advection scheme selector */
(PID.TID 0000.0001)                      77
(PID.TID 0000.0001)     ;
(PID.TID 0000.0001) tempMultiDimAdvec =   /* use Muti-Dim Advec method for Temp */
(PID.TID 0000.0001)                   T
(PID.TID 0000.0001)     ;
(PID.TID 0000.0001) tempAdamsBashforth =   /* use Adams-Bashforth time-stepping for Temp */
(PID.TID 0000.0001)                   F
(PID.TID 0000.0001)     ;
(PID.TID 0000.0001) saltAdvScheme =   /* Salt. Horiz.advection scheme selector */
(PID.TID 0000.0001)                       2
(PID.TID 0000.0001)     ;
(PID.TID 0000.0001) saltVertAdvScheme =   /* Salt. Vert. Advection scheme selector */
(PID.TID 0000.0001)                       2
(PID.TID 0000.0001)     ;
(PID.TID 0000.0001) saltMultiDimAdvec =   /* use Muti-Dim Advec method for Salt */
(PID.TID 0000.0001)                   F
(PID.TID 0000.0001)     ;
(PID.TID 0000.0001) saltAdamsBashforth =   /* use Adams-Bashforth time-stepping for Salt */
(PID.TID 0000.0001)                   T
(PID.TID 0000.0001)     ;
(PID.TID 0000.0001) // ===================================
(PID.TID 0000.0001) ------------------------------------------------------------
(PID.TID 0000.0001) DIAGNOSTICS_SET_LEVELS: done
(PID.TID 0000.0001)  Total Nb of available Diagnostics: ndiagt= 304
(PID.TID 0000.0001)  write list of available Diagnostics to file: available_diagnostics
(PID.TID 0000.0001) SETDIAG: Allocate  1 Levels for Diagnostic # 238 ETAN
(PID.TID 0000.0001) SETDIAG: Allocate  1 Levels for Diagnostic # 239 ETANSQ
(PID.TID 0000.0001) SETDIAG: Allocate  1 Levels for Diagnostic # 240 DETADT2
(PID.TID 0000.0001) SETDIAG: Allocate  1 Levels for Diagnostic # 269 PHIBOT
(PID.TID 0000.0001) SETDIAG: Allocate  1 Levels for Diagnostic # 270 PHIBOTSQ
(PID.TID 0000.0001) SETDIAG: Allocate 15 Levels for Diagnostic # 243 UVEL
(PID.TID 0000.0001) SETDIAG: Allocate 15 Levels for Diagnostic # 244 VVEL
(PID.TID 0000.0001) SETDIAG: Allocate 15 Levels for Diagnostic # 245 WVEL
(PID.TID 0000.0001) SETDIAG: Allocate 15 Levels for Diagnostic # 268 PHIHYD
(PID.TID 0000.0001) SETDIAG: Allocate 15 Levels for Diagnostic # 252 UVELMASS
(PID.TID 0000.0001) SETDIAG: Allocate 15 Levels for Diagnostic # 253 VVELMASS
(PID.TID 0000.0001) SETDIAG: Allocate 15 Levels for Diagnostic # 248 UVELSQ
(PID.TID 0000.0001) SETDIAG: Allocate 15 Levels for Diagnostic # 249 VVELSQ
(PID.TID 0000.0001) SETDIAG: Allocate 15 Levels for Diagnostic # 251 UVELVVEL
(PID.TID 0000.0001) SETDIAG: Allocate 15 Levels for Diagnostic # 246 THETASQ
(PID.TID 0000.0001) SETDIAG: Allocate 15 Levels for Diagnostic # 241 THETA
(PID.TID 0000.0001) SETDIAG: Allocate 15 Levels for Diagnostic # 255 UTHMASS
(PID.TID 0000.0001) SETDIAG: Allocate 15 Levels for Diagnostic # 256 VTHMASS
(PID.TID 0000.0001) SETDIAG: Allocate 15 Levels for Diagnostic # 263 WVELTH
(PID.TID 0000.0001) SETDIAG: Allocate 15 Levels for Diagnostic # 271 DRHODR
(PID.TID 0000.0001) SETDIAG: Allocate 15 Levels for Diagnostic # 282 ADVx_TH
(PID.TID 0000.0001) SETDIAG: Allocate 15 Levels for Diagnostic # 283 ADVy_TH
(PID.TID 0000.0001) SETDIAG: Allocate 15 Levels for Diagnostic # 281 ADVr_TH
(PID.TID 0000.0001) SETDIAG: Allocate 15 Levels for Diagnostic # 285 DIFx_TH
(PID.TID 0000.0001) SETDIAG: Allocate 15 Levels for Diagnostic # 286 DIFy_TH
(PID.TID 0000.0001) SETDIAG: Allocate 15 Levels for Diagnostic # 284 DFrE_TH
(PID.TID 0000.0001) SETDIAG: Allocate 15 Levels for Diagnostic # 287 DFrI_TH
(PID.TID 0000.0001)   space allocated for all diagnostics:   335 levels
(PID.TID 0000.0001) DIAGNOSTICS_SET_POINTERS: Set levels for Outp.Stream: dynDiag
(PID.TID 0000.0001)  Levels:       1.   2.   3.   4.   5.   6.   7.   8.   9.  10.  11.  12.  13.  14.  15.
(PID.TID 0000.0001) DIAGNOSTICS_SET_POINTERS: Set levels for Outp.Stream: flxDiag
(PID.TID 0000.0001)  Levels:       1.   2.   3.   4.   5.   6.   7.   8.   9.  10.  11.  12.  13.  14.  15.
(PID.TID 0000.0001) DIAGNOSTICS_SET_POINTERS: done
(PID.TID 0000.0001) ------------------------------------------------------------
(PID.TID 0000.0001) GMREDI_CHECK: #define GMREDI
(PID.TID 0000.0001) GM_AdvForm =  /* if FALSE => use SkewFlux Form */
(PID.TID 0000.0001)                   T
(PID.TID 0000.0001)     ;
(PID.TID 0000.0001) GM_AdvSeparate = /* Calc Bolus & Euler Adv. separately */
(PID.TID 0000.0001)                   F
(PID.TID 0000.0001)     ;
(PID.TID 0000.0001) GM_ExtraDiag =  /* Tensor Extra Diag (line 1&2) non 0 */
(PID.TID 0000.0001)                   T
(PID.TID 0000.0001)     ;
(PID.TID 0000.0001) GM_isopycK =   /* Background Isopyc. Diffusivity ( m^2/s ) */
(PID.TID 0000.0001)                 1.000000000000000E+01
(PID.TID 0000.0001)     ;
(PID.TID 0000.0001)  GM_skewflx*K =   /* Background GM_SkewFlx Diffusivity ( m^2/s ) */
(PID.TID 0000.0001)                 0.000000000000000E+00
(PID.TID 0000.0001)     ;
(PID.TID 0000.0001)  GM_advec*K =   /* Backg. GM-Advec(=Bolus) Diffusivity ( m^2/s ) */
(PID.TID 0000.0001)                 1.000000000000000E+01
(PID.TID 0000.0001)     ;
(PID.TID 0000.0001)  GM_Visbeck_alpha =   /* Visbeck alpha coeff. ( ) */
(PID.TID 0000.0001)                 1.000000000000000E-02
(PID.TID 0000.0001)     ;
(PID.TID 0000.0001)  Tapering/Cliping : linear
(PID.TID 0000.0001)  GM_Small_Number =  /* epsilon used in slope calc */
(PID.TID 0000.0001)                 1.000000000000000E-12
(PID.TID 0000.0001)     ;
(PID.TID 0000.0001)  GM_slopeSqCutoff =  /* Slope^2 cut-off value */
(PID.TID 0000.0001)                 1.000000000000000E+48
(PID.TID 0000.0001)     ;
(PID.TID 0000.0001) %MON fCori_max                    =   1.4419980985793E-04
(PID.TID 0000.0001) %MON fCori_min                    =  -1.4419980985793E-04
(PID.TID 0000.0001) %MON fCori_mean                   =   7.7443012320393E-21
(PID.TID 0000.0001) %MON fCori_sd                     =   9.9129524406610E-05
(PID.TID 0000.0001) %MON fCoriG_max                   =   1.4365344605787E-04
(PID.TID 0000.0001) %MON fCoriG_min                   =  -1.4464734631126E-04
(PID.TID 0000.0001) %MON fCoriG_mean                  =  -2.6299517511138E-06
(PID.TID 0000.0001) %MON fCoriG_sd                    =   9.9997297738060E-05
(PID.TID 0000.0001) %MON fCoriCos_max                 =   1.4539426427085E-04
(PID.TID 0000.0001) %MON fCoriCos_min                 =   1.8984265119424E-05
(PID.TID 0000.0001) %MON fCoriCos_mean                =   9.8674157759248E-05
(PID.TID 0000.0001) %MON fCoriCos_sd                  =   3.9884025205722E-05
(PID.TID 0000.0001) // CG2D normalisation factor =          0.3504529336387450760403189E-04
(PID.TID 0000.0001) 
 ini_cg2d: sumArea,cg2dTolerance =  4.19688829104880E+12  1.22567651146013E-12
(PID.TID 0000.0001) CONFIG_CHECK: OK
(PID.TID 0000.0001) // =======================================================
(PID.TID 0000.0001) // Model configuration
(PID.TID 0000.0001) // =======================================================
(PID.TID 0000.0001) //
(PID.TID 0000.0001) // "Physical" paramters ( PARM01 in namelist )
(PID.TID 0000.0001) //
(PID.TID 0000.0001) buoyancyRelation = OCEANIC
(PID.TID 0000.0001) fluidIsAir  =  /* fluid major constituent is Air */
(PID.TID 0000.0001)                   F
(PID.TID 0000.0001)     ;
(PID.TID 0000.0001) fluidIsWater=  /* fuild major constituent is Water */
(PID.TID 0000.0001)                   T
(PID.TID 0000.0001)     ;
(PID.TID 0000.0001) usingPCoords =  /* use p (or p*) vertical coordinate */
(PID.TID 0000.0001)                   F
(PID.TID 0000.0001)     ;
(PID.TID 0000.0001) usingZCoords =  /* use z (or z*) vertical coordinate */
(PID.TID 0000.0001)                   T
(PID.TID 0000.0001)     ;
(PID.TID 0000.0001) tRef =   /* Reference temperature profile ( oC or oK ) */
(PID.TID 0000.0001)                 1.880000000000000E+01,      /* K =  1 */
(PID.TID 0000.0001)                 1.630000000000000E+01,      /* K =  2 */
(PID.TID 0000.0001)                 1.310000000000000E+01,      /* K =  3 */
(PID.TID 0000.0001)                 1.040000000000000E+01,      /* K =  4 */
(PID.TID 0000.0001)                 8.100000000000000E+00,      /* K =  5 */
(PID.TID 0000.0001)                 6.000000000000000E+00,      /* K =  6 */
(PID.TID 0000.0001)                 4.500000000000000E+00,      /* K =  7 */
(PID.TID 0000.0001)                 3.400000000000000E+00,      /* K =  8 */
(PID.TID 0000.0001)                 2.700000000000000E+00,      /* K =  9 */
(PID.TID 0000.0001)                 2.200000000000000E+00,      /* K = 10 */
(PID.TID 0000.0001)                 1.800000000000000E+00,      /* K = 11 */
(PID.TID 0000.0001)                 1.500000000000000E+00,      /* K = 12 */
(PID.TID 0000.0001)                 1.200000000000000E+00,      /* K = 13 */
(PID.TID 0000.0001)                 1.000000000000000E+00,      /* K = 14 */
(PID.TID 0000.0001)                 9.000000000000000E-01       /* K = 15 */
(PID.TID 0000.0001)     ;
(PID.TID 0000.0001) sRef =   /* Reference salinity profile ( ppt ) */
(PID.TID 0000.0001)    15 @  3.470000000000000E+01              /* K =  1: 15 */
(PID.TID 0000.0001)     ;
(PID.TID 0000.0001) viscAh =   /* Lateral eddy viscosity ( m^2/s ) */
(PID.TID 0000.0001)                 1.200000000000000E+06
(PID.TID 0000.0001)     ;
(PID.TID 0000.0001) viscAhMax =   /* Maximum lateral eddy viscosity ( m^2/s ) */
(PID.TID 0000.0001)                 1.000000000000000E+21
(PID.TID 0000.0001)     ;
(PID.TID 0000.0001) viscAhGrid =   /* Grid dependent lateral eddy viscosity ( non-dim. ) */
(PID.TID 0000.0001)                 0.000000000000000E+00
(PID.TID 0000.0001)     ;
(PID.TID 0000.0001) viscC2leith =   /* Leith harmonic viscosity factor ( non-dom. ) */
(PID.TID 0000.0001)                 0.000000000000000E+00
(PID.TID 0000.0001)     ;
(PID.TID 0000.0001) viscA4 =   /* Lateral biharmonic viscosity ( m^4/s ) */
(PID.TID 0000.0001)                 0.000000000000000E+00
(PID.TID 0000.0001)     ;
(PID.TID 0000.0001) viscA4Max =   /* Maximum biharmonic viscosity ( m^2/s ) */
(PID.TID 0000.0001)                 1.000000000000000E+21
(PID.TID 0000.0001)     ;
(PID.TID 0000.0001) viscA4Grid =   /* Grid dependent biharmonic viscosity ( non-dim. ) */
(PID.TID 0000.0001)                 0.000000000000000E+00
(PID.TID 0000.0001)     ;
(PID.TID 0000.0001) viscC4leith =   /* Leith biharmonic viscosity factor ( non-dom. ) */
(PID.TID 0000.0001)                 0.000000000000000E+00
(PID.TID 0000.0001)     ;
(PID.TID 0000.0001) no_slip_sides =  /* Viscous BCs: No-slip sides */
(PID.TID 0000.0001)                   F
(PID.TID 0000.0001)     ;
(PID.TID 0000.0001) viscAr =   /* Vertical eddy viscosity ( units of r^2/s ) */
(PID.TID 0000.0001)                 1.000000000000000E-03
(PID.TID 0000.0001)     ;
(PID.TID 0000.0001) no_slip_bottom =  /* Viscous BCs: No-slip bottom */
(PID.TID 0000.0001)                   T
(PID.TID 0000.0001)     ;
(PID.TID 0000.0001) diffKhT =   /* Laplacian diffusion of heat laterally ( m^2/s ) */
(PID.TID 0000.0001)                 0.000000000000000E+00
(PID.TID 0000.0001)     ;
(PID.TID 0000.0001) diffK4T =   /* Bihaarmonic diffusion of heat laterally ( m^4/s ) */
(PID.TID 0000.0001)                 0.000000000000000E+00
(PID.TID 0000.0001)     ;
(PID.TID 0000.0001) diffKhS =   /* Laplacian diffusion of salt laterally ( m^2/s ) */
(PID.TID 0000.0001)                 0.000000000000000E+00
(PID.TID 0000.0001)     ;
(PID.TID 0000.0001) diffK4S =   /* Bihaarmonic diffusion of salt laterally ( m^4/s ) */
(PID.TID 0000.0001)                 0.000000000000000E+00
(PID.TID 0000.0001)     ;
(PID.TID 0000.0001) diffKrNrT = /* vertical profile of vertical diffusion of Temp ( m^2/s )*/
(PID.TID 0000.0001)                 1.000000000000000E-04,      /* K =  1 */
(PID.TID 0000.0001)    14 @  1.000000000000000E-05              /* K =  2: 15 */
(PID.TID 0000.0001)     ;
(PID.TID 0000.0001) diffKrNrS = /* vertical profile of vertical diffusion of Salt ( m^2/s )*/
(PID.TID 0000.0001)    15 @  0.000000000000000E+00              /* K =  1: 15 */
(PID.TID 0000.0001)     ;
(PID.TID 0000.0001) diffKrBL79surf =   /* Surface diffusion for Bryan and Lewis 1979 ( m^2/s ) */
(PID.TID 0000.0001)                 0.000000000000000E+00
(PID.TID 0000.0001)     ;
(PID.TID 0000.0001) diffKrBL79deep =   /* Deep diffusion for Bryan and Lewis 1979 ( m^2/s ) */
(PID.TID 0000.0001)                 0.000000000000000E+00
(PID.TID 0000.0001)     ;
(PID.TID 0000.0001) diffKrBL79scl =   /* Depth scale for Bryan and Lewis 1979 ( m ) */
(PID.TID 0000.0001)                 2.000000000000000E+02
(PID.TID 0000.0001)     ;
(PID.TID 0000.0001) diffKrBL79Ho =   /* Turning depth for Bryan and Lewis 1979 ( m ) */
(PID.TID 0000.0001)                -2.000000000000000E+03
(PID.TID 0000.0001)     ;
(PID.TID 0000.0001)  Equation of State : eosType = LINEAR
(PID.TID 0000.0001) tAlpha =   /* Linear EOS thermal expansion coefficient ( 1/degree ) */
(PID.TID 0000.0001)                 2.000000000000000E-04
(PID.TID 0000.0001)     ;
(PID.TID 0000.0001) sBeta =   /* Linear EOS haline contraction coefficient ( 1/ppt ) */
(PID.TID 0000.0001)                 0.000000000000000E+00
(PID.TID 0000.0001)     ;
(PID.TID 0000.0001) rhonil =   /* Reference density ( kg/m^3 ) */
(PID.TID 0000.0001)                 1.035000000000000E+03
(PID.TID 0000.0001)     ;
(PID.TID 0000.0001) rhoConst =   /* Reference density ( kg/m^3 ) */
(PID.TID 0000.0001)                 1.035000000000000E+03
(PID.TID 0000.0001)     ;
(PID.TID 0000.0001) rhoConstFresh =   /* Reference density ( kg/m^3 ) */
(PID.TID 0000.0001)                 1.035000000000000E+03
(PID.TID 0000.0001)     ;
(PID.TID 0000.0001) gravity =   /* Gravitational acceleration ( m/s^2 ) */
(PID.TID 0000.0001)                 9.810000000000000E+00
(PID.TID 0000.0001)     ;
(PID.TID 0000.0001) gBaro =   /* Barotropic gravity ( m/s^2 ) */
(PID.TID 0000.0001)                 9.810000000000000E+00
(PID.TID 0000.0001)     ;
(PID.TID 0000.0001) rotationPeriod =   /* Rotation Period ( s ) */
(PID.TID 0000.0001)                 8.640000000000000E+04
(PID.TID 0000.0001)     ;
(PID.TID 0000.0001) omega =   /* Angular velocity ( rad/s ) */
(PID.TID 0000.0001)                 7.272205216643040E-05
(PID.TID 0000.0001)     ;
(PID.TID 0000.0001) f0 =   /* Reference coriolis parameter ( 1/s ) */
(PID.TID 0000.0001)                 1.000000000000000E-04
(PID.TID 0000.0001)     ;
(PID.TID 0000.0001) beta =   /* Beta ( 1/(m.s) ) */
(PID.TID 0000.0001)                 9.999999999999999E-12
(PID.TID 0000.0001)     ;
(PID.TID 0000.0001) freeSurfFac =   /* Implicit free surface factor */
(PID.TID 0000.0001)                 1.000000000000000E+00
(PID.TID 0000.0001)     ;
(PID.TID 0000.0001) implicitFreeSurface =   /* Implicit free surface on/off flag */
(PID.TID 0000.0001)                   T
(PID.TID 0000.0001)     ;
(PID.TID 0000.0001) rigidLid =   /* Rigid lid on/off flag */
(PID.TID 0000.0001)                   F
(PID.TID 0000.0001)     ;
(PID.TID 0000.0001) implicSurfPress =   /* Surface Pressure implicit factor (0-1)*/
(PID.TID 0000.0001)                 1.000000000000000E+00
(PID.TID 0000.0001)     ;
(PID.TID 0000.0001) implicDiv2Dflow =   /* Barot. Flow Div. implicit factor (0-1)*/
(PID.TID 0000.0001)                 1.000000000000000E+00
(PID.TID 0000.0001)     ;
(PID.TID 0000.0001) exactConserv =   /* Exact Volume Conservation on/off flag*/
(PID.TID 0000.0001)                   T
(PID.TID 0000.0001)     ;
(PID.TID 0000.0001) uniformLin_PhiSurf =   /* use uniform Bo_surf on/off flag*/
(PID.TID 0000.0001)                   T
(PID.TID 0000.0001)     ;
(PID.TID 0000.0001) nonlinFreeSurf =   /* Non-linear Free Surf. options (-1,0,1,2,3)*/
(PID.TID 0000.0001)                       0
(PID.TID 0000.0001)     ;
(PID.TID 0000.0001)      -1,0= Off ; 1,2,3= On, 2=+rescale gU,gV, 3=+update cg2d solv.
(PID.TID 0000.0001) hFacInf =   /* lower threshold for hFac (nonlinFreeSurf only)*/
(PID.TID 0000.0001)                 2.000000000000000E-01
(PID.TID 0000.0001)     ;
(PID.TID 0000.0001) hFacSup =   /* upper threshold for hFac (nonlinFreeSurf only)*/
(PID.TID 0000.0001)                 2.000000000000000E+00
(PID.TID 0000.0001)     ;
(PID.TID 0000.0001) select_rStar =   /* r* Coordinate options (not yet implemented)*/
(PID.TID 0000.0001)                       0
(PID.TID 0000.0001)     ;
(PID.TID 0000.0001) useRealFreshWaterFlux =   /* Real Fresh Water Flux on/off flag*/
(PID.TID 0000.0001)                   F
(PID.TID 0000.0001)     ;
(PID.TID 0000.0001) convertFW2Salt = /* convert F.W. Flux to Salt Flux (-1=use local S)(ppt)*/
(PID.TID 0000.0001)                 3.500000000000000E+01
(PID.TID 0000.0001)     ;
(PID.TID 0000.0001) nonHydrostatic =  /* Non-Hydrostatic on/off flag */
(PID.TID 0000.0001)                   F
(PID.TID 0000.0001)     ;
(PID.TID 0000.0001) momStepping =  /* Momentum equation on/off flag */
(PID.TID 0000.0001)                   T
(PID.TID 0000.0001)     ;
(PID.TID 0000.0001) momAdvection =  /* Momentum advection on/off flag */
(PID.TID 0000.0001)                   T
(PID.TID 0000.0001)     ;
(PID.TID 0000.0001) momViscosity =  /* Momentum viscosity on/off flag */
(PID.TID 0000.0001)                   T
(PID.TID 0000.0001)     ;
(PID.TID 0000.0001) momImplVertAdv =/* Momentum implicit vert. advection on/off*/
(PID.TID 0000.0001)                   F
(PID.TID 0000.0001)     ;
(PID.TID 0000.0001) implicitViscosity = /* Implicit viscosity on/off flag */
(PID.TID 0000.0001)                   F
(PID.TID 0000.0001)     ;
(PID.TID 0000.0001) useCoriolis =  /* Coriolis on/off flag */
(PID.TID 0000.0001)                   T
(PID.TID 0000.0001)     ;
(PID.TID 0000.0001) useCDscheme =  /* CD scheme on/off flag */
(PID.TID 0000.0001)                   T
(PID.TID 0000.0001)     ;
(PID.TID 0000.0001) useJamartWetPoints= /* Coriolis WetPoints method flag */
(PID.TID 0000.0001)                   F
(PID.TID 0000.0001)     ;
(PID.TID 0000.0001) useJamartMomAdv= /* V.I. Non-linear terms Jamart flag */
(PID.TID 0000.0001)                   F
(PID.TID 0000.0001)     ;
(PID.TID 0000.0001) SadournyCoriolis= /* Sadourny Coriolis discr. flag */
(PID.TID 0000.0001)                   F
(PID.TID 0000.0001)     ;
(PID.TID 0000.0001) upwindVorticity= /* Upwind bias vorticity flag */
(PID.TID 0000.0001)                   F
(PID.TID 0000.0001)     ;
(PID.TID 0000.0001) useAbsVorticity= /* Work with f+zeta in Coriolis */
(PID.TID 0000.0001)                   F
(PID.TID 0000.0001)     ;
(PID.TID 0000.0001) highOrderVorticity= /* High order interp. of vort. flag */
(PID.TID 0000.0001)                   F
(PID.TID 0000.0001)     ;
(PID.TID 0000.0001) momForcing =  /* Momentum forcing on/off flag */
(PID.TID 0000.0001)                   T
(PID.TID 0000.0001)     ;
(PID.TID 0000.0001) momPressureForcing =  /* Momentum pressure term on/off flag */
(PID.TID 0000.0001)                   T
(PID.TID 0000.0001)     ;
(PID.TID 0000.0001) staggerTimeStep =   /* Stagger time stepping on/off flag */
(PID.TID 0000.0001)                   T
(PID.TID 0000.0001)     ;
(PID.TID 0000.0001) multiDimAdvection =   /* enable/disable Multi-Dim Advection */
(PID.TID 0000.0001)                   T
(PID.TID 0000.0001)     ;
(PID.TID 0000.0001) useMultiDimAdvec =   /* Multi-Dim Advection is/is-not used */
(PID.TID 0000.0001)                   T
(PID.TID 0000.0001)     ;
(PID.TID 0000.0001) implicitDiffusion =/* Implicit Diffusion on/off flag */
(PID.TID 0000.0001)                   T
(PID.TID 0000.0001)     ;
(PID.TID 0000.0001) tempStepping =  /* Temperature equation on/off flag */
(PID.TID 0000.0001)                   T
(PID.TID 0000.0001)     ;
(PID.TID 0000.0001) tempAdvection=  /* Temperature advection on/off flag */
(PID.TID 0000.0001)                   T
(PID.TID 0000.0001)     ;
(PID.TID 0000.0001) tempImplVertAdv =/* Temp. implicit vert. advection on/off */
(PID.TID 0000.0001)                   F
(PID.TID 0000.0001)     ;
(PID.TID 0000.0001) tempForcing  =  /* Temperature forcing on/off flag */
(PID.TID 0000.0001)                   T
(PID.TID 0000.0001)     ;
(PID.TID 0000.0001) saltStepping =  /* Salinity equation on/off flag */
(PID.TID 0000.0001)                   F
(PID.TID 0000.0001)     ;
(PID.TID 0000.0001) saltAdvection=  /* Salinity advection on/off flag */
(PID.TID 0000.0001)                   F
(PID.TID 0000.0001)     ;
(PID.TID 0000.0001) saltImplVertAdv =/* Sali. implicit vert. advection on/off */
(PID.TID 0000.0001)                   F
(PID.TID 0000.0001)     ;
(PID.TID 0000.0001) saltForcing  =  /* Salinity forcing on/off flag */
(PID.TID 0000.0001)                   F
(PID.TID 0000.0001)     ;
(PID.TID 0000.0001) //
(PID.TID 0000.0001) // Elliptic solver(s) paramters ( PARM02 in namelist )
(PID.TID 0000.0001) //
(PID.TID 0000.0001) cg2dMaxIters =   /* Upper limit on 2d con. grad iterations  */
(PID.TID 0000.0001)                    1000
(PID.TID 0000.0001)     ;
(PID.TID 0000.0001) cg2dChkResFreq =   /* 2d con. grad convergence test frequency */
(PID.TID 0000.0001)                       1
(PID.TID 0000.0001)     ;
(PID.TID 0000.0001) cg2dTargetResidual =   /* 2d con. grad target residual  */
(PID.TID 0000.0001)                 1.000000000000000E-07
(PID.TID 0000.0001)     ;
(PID.TID 0000.0001) cg2dTargetResWunit =   /* CG2d target residual [W units] */
(PID.TID 0000.0001)                 1.000000000000000E-17
(PID.TID 0000.0001)     ;
(PID.TID 0000.0001) cg2dPreCondFreq =   /* Freq. for updating cg2d preconditioner */
(PID.TID 0000.0001)                       1
(PID.TID 0000.0001)     ;
(PID.TID 0000.0001) //
(PID.TID 0000.0001) // Time stepping paramters ( PARM03 in namelist )
(PID.TID 0000.0001) //
(PID.TID 0000.0001) nIter0 =   /* Base timestep number  */
(PID.TID 0000.0001)                   36000
(PID.TID 0000.0001)     ;
(PID.TID 0000.0001) nTimeSteps =   /* Number of timesteps */
(PID.TID 0000.0001)                      20
(PID.TID 0000.0001)     ;
(PID.TID 0000.0001) deltatTmom =   /* Momentum equation timestep ( s ) */
(PID.TID 0000.0001)                 1.200000000000000E+03
(PID.TID 0000.0001)     ;
(PID.TID 0000.0001) deltaTfreesurf =   /* FreeSurface equation timestep ( s ) */
(PID.TID 0000.0001)                 3.600000000000000E+03
(PID.TID 0000.0001)     ;
(PID.TID 0000.0001) dTtracerLev =   /* Tracer equation timestep ( s ) */
(PID.TID 0000.0001)    15 @  8.640000000000000E+04              /* K =  1: 15 */
(PID.TID 0000.0001)     ;
(PID.TID 0000.0001) deltatTClock  =   /* Model clock timestep ( s ) */
(PID.TID 0000.0001)                 8.640000000000000E+04
(PID.TID 0000.0001)     ;
(PID.TID 0000.0001) cAdjFreq =   /* Convective adjustment interval ( s ) */
(PID.TID 0000.0001)                 0.000000000000000E+00
(PID.TID 0000.0001)     ;
(PID.TID 0000.0001) forcing_In_AB =   /* put T,S Forcing in Adams-Bash. stepping */
(PID.TID 0000.0001)                   T
(PID.TID 0000.0001)     ;
(PID.TID 0000.0001) abeps =   /* Adams-Bashforth stabilizing weight */
(PID.TID 0000.0001)                 1.000000000000000E-01
(PID.TID 0000.0001)     ;
(PID.TID 0000.0001) tauCD =   /* CD coupling time-scale ( s ) */
(PID.TID 0000.0001)                 3.214280000000000E+05
(PID.TID 0000.0001)     ;
(PID.TID 0000.0001) rCD =   /* Normalised CD coupling parameter */
(PID.TID 0000.0001)                 9.962666600296178E-01
(PID.TID 0000.0001)     ;
(PID.TID 0000.0001) startTime =   /* Run start time ( s ). */
(PID.TID 0000.0001)                 3.110400000000000E+09
(PID.TID 0000.0001)     ;
(PID.TID 0000.0001) endTime =   /* Integration ending time ( s ). */
(PID.TID 0000.0001)                 3.112128000000000E+09
(PID.TID 0000.0001)     ;
(PID.TID 0000.0001) pChkPtFreq =   /* Permanent restart/checkpoint file interval ( s ). */
(PID.TID 0000.0001)                 3.110400000000000E+09
(PID.TID 0000.0001)     ;
(PID.TID 0000.0001) chkPtFreq =   /* Rolling restart/checkpoint file interval ( s ). */
(PID.TID 0000.0001)                 0.000000000000000E+00
(PID.TID 0000.0001)     ;
(PID.TID 0000.0001) pickup_write_mdsio =   /* Model IO flag. */
(PID.TID 0000.0001)                   T
(PID.TID 0000.0001)     ;
(PID.TID 0000.0001) pickup_read_mdsio =   /* Model IO flag. */
(PID.TID 0000.0001)                   T
(PID.TID 0000.0001)     ;
(PID.TID 0000.0001) pickup_write_immed =   /* Model IO flag. */
(PID.TID 0000.0001)                   F
(PID.TID 0000.0001)     ;
(PID.TID 0000.0001) dumpFreq =   /* Model state write out interval ( s ). */
(PID.TID 0000.0001)                 1.555200000000000E+09
(PID.TID 0000.0001)     ;
(PID.TID 0000.0001) snapshot_mdsio =   /* Model IO flag. */
(PID.TID 0000.0001)                   T
(PID.TID 0000.0001)     ;
(PID.TID 0000.0001) monitorFreq =   /* Monitor output interval ( s ). */
(PID.TID 0000.0001)                 1.000000000000000E+00
(PID.TID 0000.0001)     ;
(PID.TID 0000.0001) monitor_stdio =   /* Model IO flag. */
(PID.TID 0000.0001)                   T
(PID.TID 0000.0001)     ;
(PID.TID 0000.0001) externForcingPeriod =   /* forcing period (s) */
(PID.TID 0000.0001)                 0.000000000000000E+00
(PID.TID 0000.0001)     ;
(PID.TID 0000.0001) externForcingCycle =   /* period of the cyle (s). */
(PID.TID 0000.0001)                 0.000000000000000E+00
(PID.TID 0000.0001)     ;
(PID.TID 0000.0001) tauThetaClimRelax =   /* relaxation time scale (s) */
(PID.TID 0000.0001)                 2.592000000000000E+06
(PID.TID 0000.0001)     ;
(PID.TID 0000.0001) tauSaltClimRelax =   /* relaxation time scale (s) */
(PID.TID 0000.0001)                 0.000000000000000E+00
(PID.TID 0000.0001)     ;
(PID.TID 0000.0001) latBandClimRelax =   /* max. Lat. where relaxation */
(PID.TID 0000.0001)                 1.800000000000000E+02
(PID.TID 0000.0001)     ;
(PID.TID 0000.0001) //
(PID.TID 0000.0001) // Gridding paramters ( PARM04 in namelist )
(PID.TID 0000.0001) //
(PID.TID 0000.0001) usingCartesianGrid =   /* Cartesian coordinates flag ( True / False ) */
(PID.TID 0000.0001)                   F
(PID.TID 0000.0001)     ;
(PID.TID 0000.0001) usingSphericalPolarGrid =   /* Spherical coordinates flag ( True / False ) */
(PID.TID 0000.0001)                   T
(PID.TID 0000.0001)     ;
(PID.TID 0000.0001) usingCylindricalGrid =   /* Spherical coordinates flag ( True / False ) */
(PID.TID 0000.0001)                   F
(PID.TID 0000.0001)     ;
(PID.TID 0000.0001) groundAtK1 =   /* Lower Boundary (ground) at the surface(k=1) ( T / F ) */
(PID.TID 0000.0001)                   F
(PID.TID 0000.0001)     ;
(PID.TID 0000.0001) Ro_SeaLevel =   /* r(1) ( units of r ) */
(PID.TID 0000.0001)                 0.000000000000000E+00
(PID.TID 0000.0001)     ;
(PID.TID 0000.0001) rkFac =   /* minus Vertical index orientation  */
(PID.TID 0000.0001)                 1.000000000000000E+00
(PID.TID 0000.0001)     ;
(PID.TID 0000.0001) horiVertRatio =   /* Ratio on units : Horiz - Vertical */
(PID.TID 0000.0001)                 1.000000000000000E+00
(PID.TID 0000.0001)     ;
(PID.TID 0000.0001) drC =   /* C spacing ( units of r ) */
(PID.TID 0000.0001)                 2.000000000000000E+01,      /* K =  1 */
(PID.TID 0000.0001)                 6.000000000000000E+01,      /* K =  2 */
(PID.TID 0000.0001)                 8.500000000000000E+01,      /* K =  3 */
(PID.TID 0000.0001)                 1.200000000000000E+02,      /* K =  4 */
(PID.TID 0000.0001)                 1.650000000000000E+02,      /* K =  5 */
(PID.TID 0000.0001)                 2.150000000000000E+02,      /* K =  6 */
(PID.TID 0000.0001)                 2.650000000000000E+02,      /* K =  7 */
(PID.TID 0000.0001)                 3.150000000000000E+02,      /* K =  8 */
(PID.TID 0000.0001)                 3.650000000000000E+02,      /* K =  9 */
(PID.TID 0000.0001)                 4.150000000000000E+02,      /* K = 10 */
(PID.TID 0000.0001)                 4.650000000000000E+02,      /* K = 11 */
(PID.TID 0000.0001)                 5.150000000000000E+02,      /* K = 12 */
(PID.TID 0000.0001)                 5.650000000000000E+02,      /* K = 13 */
(PID.TID 0000.0001)                 6.150000000000000E+02,      /* K = 14 */
(PID.TID 0000.0001)                 6.650000000000000E+02       /* K = 15 */
(PID.TID 0000.0001)     ;
(PID.TID 0000.0001) drF =   /* W spacing ( units of r ) */
(PID.TID 0000.0001)                 5.000000000000000E+01,      /* K =  1 */
(PID.TID 0000.0001)                 7.250000000000000E+01,      /* K =  2 */
(PID.TID 0000.0001)                 1.025000000000000E+02,      /* K =  3 */
(PID.TID 0000.0001)                 1.425000000000000E+02,      /* K =  4 */
(PID.TID 0000.0001)                 1.900000000000000E+02,      /* K =  5 */
(PID.TID 0000.0001)                 2.400000000000000E+02,      /* K =  6 */
(PID.TID 0000.0001)                 2.900000000000000E+02,      /* K =  7 */
(PID.TID 0000.0001)                 3.400000000000000E+02,      /* K =  8 */
(PID.TID 0000.0001)                 3.900000000000000E+02,      /* K =  9 */
(PID.TID 0000.0001)                 4.400000000000000E+02,      /* K = 10 */
(PID.TID 0000.0001)                 4.900000000000000E+02,      /* K = 11 */
(PID.TID 0000.0001)                 5.400000000000000E+02,      /* K = 12 */
(PID.TID 0000.0001)                 5.900000000000000E+02,      /* K = 13 */
(PID.TID 0000.0001)                 6.400000000000000E+02,      /* K = 14 */
(PID.TID 0000.0001)                 6.825000000000000E+02       /* K = 15 */
(PID.TID 0000.0001)     ;
(PID.TID 0000.0001) delX =   /* U spacing ( m - cartesian, degrees - spherical ) */
(PID.TID 0000.0001)                 3.000000000000000E+00       /* I =  1 */
(PID.TID 0000.0001)     ;
(PID.TID 0000.0001) delY =   /* V spacing ( m - cartesian, degrees - spherical ) */
(PID.TID 0000.0001)    56 @  3.000000000000000E+00              /* J =  1: 56 */
(PID.TID 0000.0001)     ;
(PID.TID 0000.0001) phiMin =    /* South edge (ignored - cartesian, degrees - spherical ) */
(PID.TID 0000.0001)                -8.400000000000000E+01
(PID.TID 0000.0001)     ;
(PID.TID 0000.0001) thetaMin =    /* West edge ( ignored - cartesian, degrees - spherical ) */
(PID.TID 0000.0001)                 0.000000000000000E+00
(PID.TID 0000.0001)     ;
(PID.TID 0000.0001) rSphere =    /* Radius ( ignored - cartesian, m - spherical ) */
(PID.TID 0000.0001)                 6.370000000000000E+06
(PID.TID 0000.0001)     ;
(PID.TID 0000.0001) xcoord =   /* P-point X coord ( m - cartesian, degrees - spherical ) */
(PID.TID 0000.0001)                 1.500000000000000E+00       /* I =  1 */
(PID.TID 0000.0001)     ;
(PID.TID 0000.0001) ycoord =   /* P-point Y coord ( m - cartesian, degrees - spherical ) */
(PID.TID 0000.0001)                -8.250000000000000E+01,      /* J =  1 */
(PID.TID 0000.0001)                -7.950000000000000E+01,      /* J =  2 */
(PID.TID 0000.0001)                -7.650000000000000E+01,      /* J =  3 */
(PID.TID 0000.0001)                -7.350000000000000E+01,      /* J =  4 */
(PID.TID 0000.0001)                -7.050000000000000E+01,      /* J =  5 */
(PID.TID 0000.0001)                -6.750000000000000E+01,      /* J =  6 */
(PID.TID 0000.0001)                -6.450000000000000E+01,      /* J =  7 */
(PID.TID 0000.0001)                -6.150000000000000E+01,      /* J =  8 */
(PID.TID 0000.0001)                -5.850000000000000E+01,      /* J =  9 */
(PID.TID 0000.0001)                -5.550000000000000E+01,      /* J = 10 */
(PID.TID 0000.0001)                -5.250000000000000E+01,      /* J = 11 */
(PID.TID 0000.0001)                -4.950000000000000E+01,      /* J = 12 */
(PID.TID 0000.0001)                -4.650000000000000E+01,      /* J = 13 */
(PID.TID 0000.0001)                -4.350000000000000E+01,      /* J = 14 */
(PID.TID 0000.0001)                -4.050000000000000E+01,      /* J = 15 */
(PID.TID 0000.0001)                -3.750000000000000E+01,      /* J = 16 */
(PID.TID 0000.0001)                -3.450000000000000E+01,      /* J = 17 */
(PID.TID 0000.0001)                -3.150000000000000E+01,      /* J = 18 */
(PID.TID 0000.0001)                -2.850000000000000E+01,      /* J = 19 */
(PID.TID 0000.0001)                -2.550000000000000E+01,      /* J = 20 */
(PID.TID 0000.0001)                -2.250000000000000E+01,      /* J = 21 */
(PID.TID 0000.0001)                -1.950000000000000E+01,      /* J = 22 */
(PID.TID 0000.0001)                -1.650000000000000E+01,      /* J = 23 */
(PID.TID 0000.0001)                -1.350000000000000E+01,      /* J = 24 */
(PID.TID 0000.0001)                -1.050000000000000E+01,      /* J = 25 */
(PID.TID 0000.0001)                -7.500000000000000E+00,      /* J = 26 */
(PID.TID 0000.0001)                -4.500000000000000E+00,      /* J = 27 */
(PID.TID 0000.0001)                -1.500000000000000E+00,      /* J = 28 */
(PID.TID 0000.0001)                 1.500000000000000E+00,      /* J = 29 */
(PID.TID 0000.0001)                 4.500000000000000E+00,      /* J = 30 */
(PID.TID 0000.0001)                 7.500000000000000E+00,      /* J = 31 */
(PID.TID 0000.0001)                 1.050000000000000E+01,      /* J = 32 */
(PID.TID 0000.0001)                 1.350000000000000E+01,      /* J = 33 */
(PID.TID 0000.0001)                 1.650000000000000E+01,      /* J = 34 */
(PID.TID 0000.0001)                 1.950000000000000E+01,      /* J = 35 */
(PID.TID 0000.0001)                 2.250000000000000E+01,      /* J = 36 */
(PID.TID 0000.0001)                 2.550000000000000E+01,      /* J = 37 */
(PID.TID 0000.0001)                 2.850000000000000E+01,      /* J = 38 */
(PID.TID 0000.0001)                 3.150000000000000E+01,      /* J = 39 */
(PID.TID 0000.0001)                 3.450000000000000E+01,      /* J = 40 */
(PID.TID 0000.0001)                 3.750000000000000E+01,      /* J = 41 */
(PID.TID 0000.0001)                 4.050000000000000E+01,      /* J = 42 */
(PID.TID 0000.0001)                 4.350000000000000E+01,      /* J = 43 */
(PID.TID 0000.0001)                 4.650000000000000E+01,      /* J = 44 */
(PID.TID 0000.0001)                 4.950000000000000E+01,      /* J = 45 */
(PID.TID 0000.0001)                 5.250000000000000E+01,      /* J = 46 */
(PID.TID 0000.0001)                 5.550000000000000E+01,      /* J = 47 */
(PID.TID 0000.0001)                 5.850000000000000E+01,      /* J = 48 */
(PID.TID 0000.0001)                 6.150000000000000E+01,      /* J = 49 */
(PID.TID 0000.0001)                 6.450000000000000E+01,      /* J = 50 */
(PID.TID 0000.0001)                 6.750000000000000E+01,      /* J = 51 */
(PID.TID 0000.0001)                 7.050000000000000E+01,      /* J = 52 */
(PID.TID 0000.0001)                 7.350000000000000E+01,      /* J = 53 */
(PID.TID 0000.0001)                 7.650000000000000E+01,      /* J = 54 */
(PID.TID 0000.0001)                 7.950000000000000E+01,      /* J = 55 */
(PID.TID 0000.0001)                 8.250000000000000E+01       /* J = 56 */
(PID.TID 0000.0001)     ;
(PID.TID 0000.0001) rcoord =   /* P-point R coordinate (  units of r ) */
(PID.TID 0000.0001)                -2.000000000000000E+01,      /* K =  1 */
(PID.TID 0000.0001)                -8.000000000000000E+01,      /* K =  2 */
(PID.TID 0000.0001)                -1.650000000000000E+02,      /* K =  3 */
(PID.TID 0000.0001)                -2.850000000000000E+02,      /* K =  4 */
(PID.TID 0000.0001)                -4.500000000000000E+02,      /* K =  5 */
(PID.TID 0000.0001)                -6.650000000000000E+02,      /* K =  6 */
(PID.TID 0000.0001)                -9.300000000000000E+02,      /* K =  7 */
(PID.TID 0000.0001)                -1.245000000000000E+03,      /* K =  8 */
(PID.TID 0000.0001)                -1.610000000000000E+03,      /* K =  9 */
(PID.TID 0000.0001)                -2.025000000000000E+03,      /* K = 10 */
(PID.TID 0000.0001)                -2.490000000000000E+03,      /* K = 11 */
(PID.TID 0000.0001)                -3.005000000000000E+03,      /* K = 12 */
(PID.TID 0000.0001)                -3.570000000000000E+03,      /* K = 13 */
(PID.TID 0000.0001)                -4.185000000000000E+03,      /* K = 14 */
(PID.TID 0000.0001)                -4.850000000000000E+03       /* K = 15 */
(PID.TID 0000.0001)     ;
(PID.TID 0000.0001) rF =   /* W-Interf. R coordinate (  units of r ) */
(PID.TID 0000.0001)                 0.000000000000000E+00,      /* K =  1 */
(PID.TID 0000.0001)                -5.000000000000000E+01,      /* K =  2 */
(PID.TID 0000.0001)                -1.225000000000000E+02,      /* K =  3 */
(PID.TID 0000.0001)                -2.250000000000000E+02,      /* K =  4 */
(PID.TID 0000.0001)                -3.675000000000000E+02,      /* K =  5 */
(PID.TID 0000.0001)                -5.575000000000000E+02,      /* K =  6 */
(PID.TID 0000.0001)                -7.975000000000000E+02,      /* K =  7 */
(PID.TID 0000.0001)                -1.087500000000000E+03,      /* K =  8 */
(PID.TID 0000.0001)                -1.427500000000000E+03,      /* K =  9 */
(PID.TID 0000.0001)                -1.817500000000000E+03,      /* K = 10 */
(PID.TID 0000.0001)                -2.257500000000000E+03,      /* K = 11 */
(PID.TID 0000.0001)                -2.747500000000000E+03,      /* K = 12 */
(PID.TID 0000.0001)                -3.287500000000000E+03,      /* K = 13 */
(PID.TID 0000.0001)                -3.877500000000000E+03,      /* K = 14 */
(PID.TID 0000.0001)                -4.517500000000000E+03,      /* K = 15 */
(PID.TID 0000.0001)                -5.200000000000000E+03       /* K = 16 */
(PID.TID 0000.0001)     ;
(PID.TID 0000.0001) dxF =  /* dxF(:,1,:,1) ( m - cartesian, degrees - spherical ) */
(PID.TID 0000.0001)                 4.353471677186367E+04       /* I =  1 */
(PID.TID 0000.0001)     ;
(PID.TID 0000.0001) dxF =  /* dxF(1,:,1,:) ( m - cartesian, degrees - spherical ) */
(PID.TID 0000.0001)                 4.353471677186367E+04,      /* J =  1 */
(PID.TID 0000.0001)                 6.078145583759403E+04,      /* J =  2 */
(PID.TID 0000.0001)                 7.786159715774079E+04,      /* J =  3 */
(PID.TID 0000.0001)                 9.472832525217145E+04,      /* J =  4 */
(PID.TID 0000.0001)                 1.113354095915710E+05,      /* J =  5 */
(PID.TID 0000.0001)                 1.276373313121096E+05,      /* J =  6 */
(PID.TID 0000.0001)                 1.435894079794837E+05,      /* J =  7 */
(PID.TID 0000.0001)                 1.591479160603634E+05,      /* J =  8 */
(PID.TID 0000.0001)                 1.742702107655578E+05,      /* J =  9 */
(PID.TID 0000.0001)                 1.889148429364175E+05,      /* J = 10 */
(PID.TID 0000.0001)                 2.030416726540983E+05,      /* J = 11 */
(PID.TID 0000.0001)                 2.166119792602878E+05,      /* J = 12 */
(PID.TID 0000.0001)                 2.295885674878389E+05,      /* J = 13 */
(PID.TID 0000.0001)                 2.419358694104115E+05,      /* J = 14 */
(PID.TID 0000.0001)                 2.536200419316863E+05,      /* J = 15 */
(PID.TID 0000.0001)                 2.646090595469393E+05,      /* J = 16 */
(PID.TID 0000.0001)                 2.748728021227243E+05,      /* J = 17 */
(PID.TID 0000.0001)                 2.843831374540652E+05,      /* J = 18 */
(PID.TID 0000.0001)                 2.931139983728740E+05,      /* J = 19 */
(PID.TID 0000.0001)                 3.010414541962470E+05,      /* J = 20 */
(PID.TID 0000.0001)                 3.081437763188029E+05,      /* J = 21 */
(PID.TID 0000.0001)                 3.144014977692803E+05,      /* J = 22 */
(PID.TID 0000.0001)                 3.197974665681523E+05,      /* J = 23 */
(PID.TID 0000.0001)                 3.243168927400103E+05,      /* J = 24 */
(PID.TID 0000.0001)                 3.279473888518588E+05,      /* J = 25 */
(PID.TID 0000.0001)                 3.306790039662077E+05,      /* J = 26 */
(PID.TID 0000.0001)                 3.325042509159012E+05,      /* J = 27 */
(PID.TID 0000.0001)     2 @  3.334181268259212E+05,             /* J = 28: 29 */
(PID.TID 0000.0001)                 3.325042509159012E+05,      /* J = 30 */
(PID.TID 0000.0001)                 3.306790039662077E+05,      /* J = 31 */
(PID.TID 0000.0001)                 3.279473888518588E+05,      /* J = 32 */
(PID.TID 0000.0001)                 3.243168927400103E+05,      /* J = 33 */
(PID.TID 0000.0001)                 3.197974665681523E+05,      /* J = 34 */
(PID.TID 0000.0001)                 3.144014977692803E+05,      /* J = 35 */
(PID.TID 0000.0001)                 3.081437763188029E+05,      /* J = 36 */
(PID.TID 0000.0001)                 3.010414541962470E+05,      /* J = 37 */
(PID.TID 0000.0001)                 2.931139983728740E+05,      /* J = 38 */
(PID.TID 0000.0001)                 2.843831374540652E+05,      /* J = 39 */
(PID.TID 0000.0001)                 2.748728021227243E+05,      /* J = 40 */
(PID.TID 0000.0001)                 2.646090595469393E+05,      /* J = 41 */
(PID.TID 0000.0001)                 2.536200419316863E+05,      /* J = 42 */
(PID.TID 0000.0001)                 2.419358694104115E+05,      /* J = 43 */
(PID.TID 0000.0001)                 2.295885674878389E+05,      /* J = 44 */
(PID.TID 0000.0001)                 2.166119792602878E+05,      /* J = 45 */
(PID.TID 0000.0001)                 2.030416726540983E+05,      /* J = 46 */
(PID.TID 0000.0001)                 1.889148429364175E+05,      /* J = 47 */
(PID.TID 0000.0001)                 1.742702107655578E+05,      /* J = 48 */
(PID.TID 0000.0001)                 1.591479160603634E+05,      /* J = 49 */
(PID.TID 0000.0001)                 1.435894079794837E+05,      /* J = 50 */
(PID.TID 0000.0001)                 1.276373313121096E+05,      /* J = 51 */
(PID.TID 0000.0001)                 1.113354095915710E+05,      /* J = 52 */
(PID.TID 0000.0001)                 9.472832525217145E+04,      /* J = 53 */
(PID.TID 0000.0001)                 7.786159715774079E+04,      /* J = 54 */
(PID.TID 0000.0001)                 6.078145583759403E+04,      /* J = 55 */
(PID.TID 0000.0001)                 4.353471677186367E+04       /* J = 56 */
(PID.TID 0000.0001)     ;
(PID.TID 0000.0001) dyF =  /* dyF(:,1,:,1) ( m - cartesian, degrees - spherical ) */
(PID.TID 0000.0001)                 3.335324200561164E+05       /* I =  1 */
(PID.TID 0000.0001)     ;
(PID.TID 0000.0001) dyF =  /* dyF(1,:,1,:) ( m - cartesian, degrees - spherical ) */
(PID.TID 0000.0001)    56 @  3.335324200561164E+05              /* J =  1: 56 */
(PID.TID 0000.0001)     ;
(PID.TID 0000.0001) dxG =  /* dxG(:,1,:,1) ( m - cartesian, degrees - spherical ) */
(PID.TID 0000.0001)                 3.486363131840732E+04       /* I =  1 */
(PID.TID 0000.0001)     ;
(PID.TID 0000.0001) dxG =  /* dxG(1,:,1,:) ( m - cartesian, degrees - spherical ) */
(PID.TID 0000.0001)                 3.486363131840732E+04,      /* J =  1 */
(PID.TID 0000.0001)                 5.217596570505216E+04,      /* J =  2 */
(PID.TID 0000.0001)                 6.934528939640634E+04,      /* J =  3 */
(PID.TID 0000.0001)                 8.632454246965688E+04,      /* J =  4 */
(PID.TID 0000.0001)                 1.030671859723435E+05,      /* J =  5 */
(PID.TID 0000.0001)                 1.195273294823923E+05,      /* J =  6 */
(PID.TID 0000.0001)                 1.356598568905725E+05,      /* J =  7 */
(PID.TID 0000.0001)                 1.514205500606167E+05,      /* J =  8 */
(PID.TID 0000.0001)                 1.667662100280583E+05,      /* J =  9 */
(PID.TID 0000.0001)                 1.816547754055899E+05,      /* J = 10 */
(PID.TID 0000.0001)                 1.960454376704035E+05,      /* J = 11 */
(PID.TID 0000.0001)                 2.098987530175138E+05,      /* J = 12 */
(PID.TID 0000.0001)                 2.231767504724866E+05,      /* J = 13 */
(PID.TID 0000.0001)                 2.358430359672399E+05,      /* J = 14 */
(PID.TID 0000.0001)                 2.478628920936556E+05,      /* J = 15 */
(PID.TID 0000.0001)                 2.592033732615808E+05,      /* J = 16 */
(PID.TID 0000.0001)                 2.698333960004017E+05,      /* J = 17 */
(PID.TID 0000.0001)                 2.797238241566748E+05,      /* J = 18 */
(PID.TID 0000.0001)                 2.888475487542992E+05,      /* J = 19 */
(PID.TID 0000.0001)                 2.971795622983349E+05,      /* J = 20 */
(PID.TID 0000.0001)                 3.046970273188090E+05,      /* J = 21 */
(PID.TID 0000.0001)                 3.113793389666330E+05,      /* J = 22 */
(PID.TID 0000.0001)                 3.172081814900618E+05,      /* J = 23 */
(PID.TID 0000.0001)                 3.221675784368968E+05,      /* J = 24 */
(PID.TID 0000.0001)                 3.262439364448300E+05,      /* J = 25 */
(PID.TID 0000.0001)                 3.294260824999061E+05,      /* J = 26 */
(PID.TID 0000.0001)                 3.317052945609759E+05,      /* J = 27 */
(PID.TID 0000.0001)                 3.330753254662066E+05,      /* J = 28 */
(PID.TID 0000.0001)                 3.335324200561164E+05,      /* J = 29 */
(PID.TID 0000.0001)                 3.330753254662066E+05,      /* J = 30 */
(PID.TID 0000.0001)                 3.317052945609759E+05,      /* J = 31 */
(PID.TID 0000.0001)                 3.294260824999061E+05,      /* J = 32 */
(PID.TID 0000.0001)                 3.262439364448300E+05,      /* J = 33 */
(PID.TID 0000.0001)                 3.221675784368968E+05,      /* J = 34 */
(PID.TID 0000.0001)                 3.172081814900618E+05,      /* J = 35 */
(PID.TID 0000.0001)                 3.113793389666330E+05,      /* J = 36 */
(PID.TID 0000.0001)                 3.046970273188090E+05,      /* J = 37 */
(PID.TID 0000.0001)                 2.971795622983349E+05,      /* J = 38 */
(PID.TID 0000.0001)                 2.888475487542992E+05,      /* J = 39 */
(PID.TID 0000.0001)                 2.797238241566748E+05,      /* J = 40 */
(PID.TID 0000.0001)                 2.698333960004017E+05,      /* J = 41 */
(PID.TID 0000.0001)                 2.592033732615808E+05,      /* J = 42 */
(PID.TID 0000.0001)                 2.478628920936556E+05,      /* J = 43 */
(PID.TID 0000.0001)                 2.358430359672399E+05,      /* J = 44 */
(PID.TID 0000.0001)                 2.231767504724866E+05,      /* J = 45 */
(PID.TID 0000.0001)                 2.098987530175138E+05,      /* J = 46 */
(PID.TID 0000.0001)                 1.960454376704035E+05,      /* J = 47 */
(PID.TID 0000.0001)                 1.816547754055899E+05,      /* J = 48 */
(PID.TID 0000.0001)                 1.667662100280583E+05,      /* J = 49 */
(PID.TID 0000.0001)                 1.514205500606167E+05,      /* J = 50 */
(PID.TID 0000.0001)                 1.356598568905725E+05,      /* J = 51 */
(PID.TID 0000.0001)                 1.195273294823923E+05,      /* J = 52 */
(PID.TID 0000.0001)                 1.030671859723435E+05,      /* J = 53 */
(PID.TID 0000.0001)                 8.632454246965688E+04,      /* J = 54 */
(PID.TID 0000.0001)                 6.934528939640634E+04,      /* J = 55 */
(PID.TID 0000.0001)                 5.217596570505216E+04       /* J = 56 */
(PID.TID 0000.0001)     ;
(PID.TID 0000.0001) dyG =  /* dyG(:,1,:,1) ( m - cartesian, degrees - spherical ) */
(PID.TID 0000.0001)                 3.335324200561164E+05       /* I =  1 */
(PID.TID 0000.0001)     ;
(PID.TID 0000.0001) dyG =  /* dyG(1,:,1,:) ( m - cartesian, degrees - spherical ) */
(PID.TID 0000.0001)    56 @  3.335324200561164E+05              /* J =  1: 56 */
(PID.TID 0000.0001)     ;
(PID.TID 0000.0001) dxC =  /* dxC(:,1,:,1) ( m - cartesian, degrees - spherical ) */
(PID.TID 0000.0001)                 4.353471677186367E+04       /* I =  1 */
(PID.TID 0000.0001)     ;
(PID.TID 0000.0001) dxC =  /* dxC(1,:,1,:) ( m - cartesian, degrees - spherical ) */
(PID.TID 0000.0001)                 4.353471677186367E+04,      /* J =  1 */
(PID.TID 0000.0001)                 6.078145583759403E+04,      /* J =  2 */
(PID.TID 0000.0001)                 7.786159715774079E+04,      /* J =  3 */
(PID.TID 0000.0001)                 9.472832525217145E+04,      /* J =  4 */
(PID.TID 0000.0001)                 1.113354095915710E+05,      /* J =  5 */
(PID.TID 0000.0001)                 1.276373313121096E+05,      /* J =  6 */
(PID.TID 0000.0001)                 1.435894079794837E+05,      /* J =  7 */
(PID.TID 0000.0001)                 1.591479160603634E+05,      /* J =  8 */
(PID.TID 0000.0001)                 1.742702107655578E+05,      /* J =  9 */
(PID.TID 0000.0001)                 1.889148429364175E+05,      /* J = 10 */
(PID.TID 0000.0001)                 2.030416726540983E+05,      /* J = 11 */
(PID.TID 0000.0001)                 2.166119792602878E+05,      /* J = 12 */
(PID.TID 0000.0001)                 2.295885674878389E+05,      /* J = 13 */
(PID.TID 0000.0001)                 2.419358694104115E+05,      /* J = 14 */
(PID.TID 0000.0001)                 2.536200419316863E+05,      /* J = 15 */
(PID.TID 0000.0001)                 2.646090595469393E+05,      /* J = 16 */
(PID.TID 0000.0001)                 2.748728021227243E+05,      /* J = 17 */
(PID.TID 0000.0001)                 2.843831374540652E+05,      /* J = 18 */
(PID.TID 0000.0001)                 2.931139983728740E+05,      /* J = 19 */
(PID.TID 0000.0001)                 3.010414541962470E+05,      /* J = 20 */
(PID.TID 0000.0001)                 3.081437763188029E+05,      /* J = 21 */
(PID.TID 0000.0001)                 3.144014977692803E+05,      /* J = 22 */
(PID.TID 0000.0001)                 3.197974665681523E+05,      /* J = 23 */
(PID.TID 0000.0001)                 3.243168927400103E+05,      /* J = 24 */
(PID.TID 0000.0001)                 3.279473888518588E+05,      /* J = 25 */
(PID.TID 0000.0001)                 3.306790039662077E+05,      /* J = 26 */
(PID.TID 0000.0001)                 3.325042509159012E+05,      /* J = 27 */
(PID.TID 0000.0001)     2 @  3.334181268259212E+05,             /* J = 28: 29 */
(PID.TID 0000.0001)                 3.325042509159012E+05,      /* J = 30 */
(PID.TID 0000.0001)                 3.306790039662077E+05,      /* J = 31 */
(PID.TID 0000.0001)                 3.279473888518588E+05,      /* J = 32 */
(PID.TID 0000.0001)                 3.243168927400103E+05,      /* J = 33 */
(PID.TID 0000.0001)                 3.197974665681523E+05,      /* J = 34 */
(PID.TID 0000.0001)                 3.144014977692803E+05,      /* J = 35 */
(PID.TID 0000.0001)                 3.081437763188029E+05,      /* J = 36 */
(PID.TID 0000.0001)                 3.010414541962470E+05,      /* J = 37 */
(PID.TID 0000.0001)                 2.931139983728740E+05,      /* J = 38 */
(PID.TID 0000.0001)                 2.843831374540652E+05,      /* J = 39 */
(PID.TID 0000.0001)                 2.748728021227243E+05,      /* J = 40 */
(PID.TID 0000.0001)                 2.646090595469393E+05,      /* J = 41 */
(PID.TID 0000.0001)                 2.536200419316863E+05,      /* J = 42 */
(PID.TID 0000.0001)                 2.419358694104115E+05,      /* J = 43 */
(PID.TID 0000.0001)                 2.295885674878389E+05,      /* J = 44 */
(PID.TID 0000.0001)                 2.166119792602878E+05,      /* J = 45 */
(PID.TID 0000.0001)                 2.030416726540983E+05,      /* J = 46 */
(PID.TID 0000.0001)                 1.889148429364175E+05,      /* J = 47 */
(PID.TID 0000.0001)                 1.742702107655578E+05,      /* J = 48 */
(PID.TID 0000.0001)                 1.591479160603634E+05,      /* J = 49 */
(PID.TID 0000.0001)                 1.435894079794837E+05,      /* J = 50 */
(PID.TID 0000.0001)                 1.276373313121096E+05,      /* J = 51 */
(PID.TID 0000.0001)                 1.113354095915710E+05,      /* J = 52 */
(PID.TID 0000.0001)                 9.472832525217145E+04,      /* J = 53 */
(PID.TID 0000.0001)                 7.786159715774079E+04,      /* J = 54 */
(PID.TID 0000.0001)                 6.078145583759403E+04,      /* J = 55 */
(PID.TID 0000.0001)                 4.353471677186367E+04       /* J = 56 */
(PID.TID 0000.0001)     ;
(PID.TID 0000.0001) dyC =  /* dyC(:,1,:,1) ( m - cartesian, degrees - spherical ) */
(PID.TID 0000.0001)                 3.335324200561164E+05       /* I =  1 */
(PID.TID 0000.0001)     ;
(PID.TID 0000.0001) dyC =  /* dyC(1,:,1,:) ( m - cartesian, degrees - spherical ) */
(PID.TID 0000.0001)    56 @  3.335324200561164E+05              /* J =  1: 56 */
(PID.TID 0000.0001)     ;
(PID.TID 0000.0001) dxV =  /* dxV(:,1,:,1) ( m - cartesian, degrees - spherical ) */
(PID.TID 0000.0001)                 3.486363131840732E+04       /* I =  1 */
(PID.TID 0000.0001)     ;
(PID.TID 0000.0001) dxV =  /* dxV(1,:,1,:) ( m - cartesian, degrees - spherical ) */
(PID.TID 0000.0001)                 3.486363131840732E+04,      /* J =  1 */
(PID.TID 0000.0001)                 5.217596570505216E+04,      /* J =  2 */
(PID.TID 0000.0001)                 6.934528939640634E+04,      /* J =  3 */
(PID.TID 0000.0001)                 8.632454246965688E+04,      /* J =  4 */
(PID.TID 0000.0001)                 1.030671859723435E+05,      /* J =  5 */
(PID.TID 0000.0001)                 1.195273294823923E+05,      /* J =  6 */
(PID.TID 0000.0001)                 1.356598568905725E+05,      /* J =  7 */
(PID.TID 0000.0001)                 1.514205500606167E+05,      /* J =  8 */
(PID.TID 0000.0001)                 1.667662100280583E+05,      /* J =  9 */
(PID.TID 0000.0001)                 1.816547754055899E+05,      /* J = 10 */
(PID.TID 0000.0001)                 1.960454376704035E+05,      /* J = 11 */
(PID.TID 0000.0001)                 2.098987530175138E+05,      /* J = 12 */
(PID.TID 0000.0001)                 2.231767504724866E+05,      /* J = 13 */
(PID.TID 0000.0001)                 2.358430359672399E+05,      /* J = 14 */
(PID.TID 0000.0001)                 2.478628920936556E+05,      /* J = 15 */
(PID.TID 0000.0001)                 2.592033732615808E+05,      /* J = 16 */
(PID.TID 0000.0001)                 2.698333960004017E+05,      /* J = 17 */
(PID.TID 0000.0001)                 2.797238241566748E+05,      /* J = 18 */
(PID.TID 0000.0001)                 2.888475487542992E+05,      /* J = 19 */
(PID.TID 0000.0001)                 2.971795622983349E+05,      /* J = 20 */
(PID.TID 0000.0001)                 3.046970273188090E+05,      /* J = 21 */
(PID.TID 0000.0001)                 3.113793389666330E+05,      /* J = 22 */
(PID.TID 0000.0001)                 3.172081814900618E+05,      /* J = 23 */
(PID.TID 0000.0001)                 3.221675784368968E+05,      /* J = 24 */
(PID.TID 0000.0001)                 3.262439364448300E+05,      /* J = 25 */
(PID.TID 0000.0001)                 3.294260824999061E+05,      /* J = 26 */
(PID.TID 0000.0001)                 3.317052945609759E+05,      /* J = 27 */
(PID.TID 0000.0001)                 3.330753254662066E+05,      /* J = 28 */
(PID.TID 0000.0001)                 3.335324200561164E+05,      /* J = 29 */
(PID.TID 0000.0001)                 3.330753254662066E+05,      /* J = 30 */
(PID.TID 0000.0001)                 3.317052945609759E+05,      /* J = 31 */
(PID.TID 0000.0001)                 3.294260824999061E+05,      /* J = 32 */
(PID.TID 0000.0001)                 3.262439364448300E+05,      /* J = 33 */
(PID.TID 0000.0001)                 3.221675784368968E+05,      /* J = 34 */
(PID.TID 0000.0001)                 3.172081814900618E+05,      /* J = 35 */
(PID.TID 0000.0001)                 3.113793389666330E+05,      /* J = 36 */
(PID.TID 0000.0001)                 3.046970273188090E+05,      /* J = 37 */
(PID.TID 0000.0001)                 2.971795622983349E+05,      /* J = 38 */
(PID.TID 0000.0001)                 2.888475487542992E+05,      /* J = 39 */
(PID.TID 0000.0001)                 2.797238241566748E+05,      /* J = 40 */
(PID.TID 0000.0001)                 2.698333960004017E+05,      /* J = 41 */
(PID.TID 0000.0001)                 2.592033732615808E+05,      /* J = 42 */
(PID.TID 0000.0001)                 2.478628920936556E+05,      /* J = 43 */
(PID.TID 0000.0001)                 2.358430359672399E+05,      /* J = 44 */
(PID.TID 0000.0001)                 2.231767504724866E+05,      /* J = 45 */
(PID.TID 0000.0001)                 2.098987530175138E+05,      /* J = 46 */
(PID.TID 0000.0001)                 1.960454376704035E+05,      /* J = 47 */
(PID.TID 0000.0001)                 1.816547754055899E+05,      /* J = 48 */
(PID.TID 0000.0001)                 1.667662100280583E+05,      /* J = 49 */
(PID.TID 0000.0001)                 1.514205500606167E+05,      /* J = 50 */
(PID.TID 0000.0001)                 1.356598568905725E+05,      /* J = 51 */
(PID.TID 0000.0001)                 1.195273294823923E+05,      /* J = 52 */
(PID.TID 0000.0001)                 1.030671859723435E+05,      /* J = 53 */
(PID.TID 0000.0001)                 8.632454246965688E+04,      /* J = 54 */
(PID.TID 0000.0001)                 6.934528939640634E+04,      /* J = 55 */
(PID.TID 0000.0001)                 5.217596570505216E+04       /* J = 56 */
(PID.TID 0000.0001)     ;
(PID.TID 0000.0001) dyU =  /* dyU(:,1,:,1) ( m - cartesian, degrees - spherical ) */
(PID.TID 0000.0001)                 3.335324200561164E+05       /* I =  1 */
(PID.TID 0000.0001)     ;
(PID.TID 0000.0001) dyU =  /* dyU(1,:,1,:) ( m - cartesian, degrees - spherical ) */
(PID.TID 0000.0001)    56 @  3.335324200561164E+05              /* J =  1: 56 */
(PID.TID 0000.0001)     ;
(PID.TID 0000.0001) rA =  /* rA(:,1,:,1) ( m - cartesian, degrees - spherical ) */
(PID.TID 0000.0001)                 1.451858082901536E+10       /* I =  1 */
(PID.TID 0000.0001)     ;
(PID.TID 0000.0001) rA =  /* rA(1,:,1,:) ( m - cartesian, degrees - spherical ) */
(PID.TID 0000.0001)                 1.451858082901536E+10,      /* J =  1 */
(PID.TID 0000.0001)                 2.027027037083401E+10,      /* J =  2 */
(PID.TID 0000.0001)                 2.596640051053460E+10,      /* J =  3 */
(PID.TID 0000.0001)                 3.159135855133891E+10,      /* J =  4 */
(PID.TID 0000.0001)                 3.712972687424187E+10,      /* J =  5 */
(PID.TID 0000.0001)                 4.256632519663855E+10,      /* J =  6 */
(PID.TID 0000.0001)                 4.788625218042016E+10,      /* J =  7 */
(PID.TID 0000.0001)                 5.307492627550761E+10,      /* J =  8 */
(PID.TID 0000.0001)                 5.811812568686684E+10,      /* J =  9 */
(PID.TID 0000.0001)                 6.300202735545998E+10,      /* J = 10 */
(PID.TID 0000.0001)                 6.771324484628893E+10,      /* J = 11 */
(PID.TID 0000.0001)                 7.223886503968413E+10,      /* J = 12 */
(PID.TID 0000.0001)                 7.656648352526761E+10,      /* J = 13 */
(PID.TID 0000.0001)                 8.068423860157887E+10,      /* J = 14 */
(PID.TID 0000.0001)                 8.458084378817659E+10,      /* J = 15 */
(PID.TID 0000.0001)                 8.824561876109258E+10,      /* J = 16 */
(PID.TID 0000.0001)                 9.166851862686266E+10,      /* J = 17 */
(PID.TID 0000.0001)                 9.484016145487706E+10,      /* J = 18 */
(PID.TID 0000.0001)                 9.775185399260217E+10,      /* J = 19 */
(PID.TID 0000.0001)                 1.003956154931817E+11,      /* J = 20 */
(PID.TID 0000.0001)                 1.027641995901083E+11,      /* J = 21 */
(PID.TID 0000.0001)                 1.048511141590102E+11,      /* J = 22 */
(PID.TID 0000.0001)                 1.066506391121138E+11,      /* J = 23 */
(PID.TID 0000.0001)                 1.081578420766062E+11,      /* J = 24 */
(PID.TID 0000.0001)                 1.093685919139261E+11,      /* J = 25 */
(PID.TID 0000.0001)                 1.102795700429274E+11,      /* J = 26 */
(PID.TID 0000.0001)                 1.108882795358801E+11,      /* J = 27 */
(PID.TID 0000.0001)     2 @  1.111930519623746E+11,             /* J = 28: 29 */
(PID.TID 0000.0001)                 1.108882795358801E+11,      /* J = 30 */
(PID.TID 0000.0001)                 1.102795700429274E+11,      /* J = 31 */
(PID.TID 0000.0001)                 1.093685919139261E+11,      /* J = 32 */
(PID.TID 0000.0001)                 1.081578420766062E+11,      /* J = 33 */
(PID.TID 0000.0001)                 1.066506391121138E+11,      /* J = 34 */
(PID.TID 0000.0001)                 1.048511141590102E+11,      /* J = 35 */
(PID.TID 0000.0001)                 1.027641995901083E+11,      /* J = 36 */
(PID.TID 0000.0001)                 1.003956154931817E+11,      /* J = 37 */
(PID.TID 0000.0001)                 9.775185399260217E+10,      /* J = 38 */
(PID.TID 0000.0001)                 9.484016145487706E+10,      /* J = 39 */
(PID.TID 0000.0001)                 9.166851862686266E+10,      /* J = 40 */
(PID.TID 0000.0001)                 8.824561876109258E+10,      /* J = 41 */
(PID.TID 0000.0001)                 8.458084378817659E+10,      /* J = 42 */
(PID.TID 0000.0001)                 8.068423860157887E+10,      /* J = 43 */
(PID.TID 0000.0001)                 7.656648352526761E+10,      /* J = 44 */
(PID.TID 0000.0001)                 7.223886503968413E+10,      /* J = 45 */
(PID.TID 0000.0001)                 6.771324484628893E+10,      /* J = 46 */
(PID.TID 0000.0001)                 6.300202735545998E+10,      /* J = 47 */
(PID.TID 0000.0001)                 5.811812568686684E+10,      /* J = 48 */
(PID.TID 0000.0001)                 5.307492627550761E+10,      /* J = 49 */
(PID.TID 0000.0001)                 4.788625218042016E+10,      /* J = 50 */
(PID.TID 0000.0001)                 4.256632519663855E+10,      /* J = 51 */
(PID.TID 0000.0001)                 3.712972687424187E+10,      /* J = 52 */
(PID.TID 0000.0001)                 3.159135855133891E+10,      /* J = 53 */
(PID.TID 0000.0001)                 2.596640051053460E+10,      /* J = 54 */
(PID.TID 0000.0001)                 2.027027037083401E+10,      /* J = 55 */
(PID.TID 0000.0001)                 1.451858082901536E+10       /* J = 56 */
(PID.TID 0000.0001)     ;
(PID.TID 0000.0001) rAw =  /* rAw(:,1,:,1) ( m - cartesian, degrees - spherical ) */
(PID.TID 0000.0001)                 1.451858082901536E+10       /* I =  1 */
(PID.TID 0000.0001)     ;
(PID.TID 0000.0001) rAw =  /* rAw(1,:,1,:) ( m - cartesian, degrees - spherical ) */
(PID.TID 0000.0001)                 1.451858082901536E+10,      /* J =  1 */
(PID.TID 0000.0001)                 2.027027037083401E+10,      /* J =  2 */
(PID.TID 0000.0001)                 2.596640051053460E+10,      /* J =  3 */
(PID.TID 0000.0001)                 3.159135855133891E+10,      /* J =  4 */
(PID.TID 0000.0001)                 3.712972687424187E+10,      /* J =  5 */
(PID.TID 0000.0001)                 4.256632519663855E+10,      /* J =  6 */
(PID.TID 0000.0001)                 4.788625218042016E+10,      /* J =  7 */
(PID.TID 0000.0001)                 5.307492627550761E+10,      /* J =  8 */
(PID.TID 0000.0001)                 5.811812568686684E+10,      /* J =  9 */
(PID.TID 0000.0001)                 6.300202735545998E+10,      /* J = 10 */
(PID.TID 0000.0001)                 6.771324484628893E+10,      /* J = 11 */
(PID.TID 0000.0001)                 7.223886503968413E+10,      /* J = 12 */
(PID.TID 0000.0001)                 7.656648352526761E+10,      /* J = 13 */
(PID.TID 0000.0001)                 8.068423860157887E+10,      /* J = 14 */
(PID.TID 0000.0001)                 8.458084378817659E+10,      /* J = 15 */
(PID.TID 0000.0001)                 8.824561876109258E+10,      /* J = 16 */
(PID.TID 0000.0001)                 9.166851862686266E+10,      /* J = 17 */
(PID.TID 0000.0001)                 9.484016145487706E+10,      /* J = 18 */
(PID.TID 0000.0001)                 9.775185399260217E+10,      /* J = 19 */
(PID.TID 0000.0001)                 1.003956154931817E+11,      /* J = 20 */
(PID.TID 0000.0001)                 1.027641995901083E+11,      /* J = 21 */
(PID.TID 0000.0001)                 1.048511141590102E+11,      /* J = 22 */
(PID.TID 0000.0001)                 1.066506391121138E+11,      /* J = 23 */
(PID.TID 0000.0001)                 1.081578420766062E+11,      /* J = 24 */
(PID.TID 0000.0001)                 1.093685919139261E+11,      /* J = 25 */
(PID.TID 0000.0001)                 1.102795700429274E+11,      /* J = 26 */
(PID.TID 0000.0001)                 1.108882795358801E+11,      /* J = 27 */
(PID.TID 0000.0001)     2 @  1.111930519623746E+11,             /* J = 28: 29 */
(PID.TID 0000.0001)                 1.108882795358801E+11,      /* J = 30 */
(PID.TID 0000.0001)                 1.102795700429274E+11,      /* J = 31 */
(PID.TID 0000.0001)                 1.093685919139261E+11,      /* J = 32 */
(PID.TID 0000.0001)                 1.081578420766062E+11,      /* J = 33 */
(PID.TID 0000.0001)                 1.066506391121138E+11,      /* J = 34 */
(PID.TID 0000.0001)                 1.048511141590102E+11,      /* J = 35 */
(PID.TID 0000.0001)                 1.027641995901083E+11,      /* J = 36 */
(PID.TID 0000.0001)                 1.003956154931817E+11,      /* J = 37 */
(PID.TID 0000.0001)                 9.775185399260217E+10,      /* J = 38 */
(PID.TID 0000.0001)                 9.484016145487706E+10,      /* J = 39 */
(PID.TID 0000.0001)                 9.166851862686266E+10,      /* J = 40 */
(PID.TID 0000.0001)                 8.824561876109258E+10,      /* J = 41 */
(PID.TID 0000.0001)                 8.458084378817659E+10,      /* J = 42 */
(PID.TID 0000.0001)                 8.068423860157887E+10,      /* J = 43 */
(PID.TID 0000.0001)                 7.656648352526761E+10,      /* J = 44 */
(PID.TID 0000.0001)                 7.223886503968413E+10,      /* J = 45 */
(PID.TID 0000.0001)                 6.771324484628893E+10,      /* J = 46 */
(PID.TID 0000.0001)                 6.300202735545998E+10,      /* J = 47 */
(PID.TID 0000.0001)                 5.811812568686684E+10,      /* J = 48 */
(PID.TID 0000.0001)                 5.307492627550761E+10,      /* J = 49 */
(PID.TID 0000.0001)                 4.788625218042016E+10,      /* J = 50 */
(PID.TID 0000.0001)                 4.256632519663855E+10,      /* J = 51 */
(PID.TID 0000.0001)                 3.712972687424187E+10,      /* J = 52 */
(PID.TID 0000.0001)                 3.159135855133891E+10,      /* J = 53 */
(PID.TID 0000.0001)                 2.596640051053460E+10,      /* J = 54 */
(PID.TID 0000.0001)                 2.027027037083401E+10,      /* J = 55 */
(PID.TID 0000.0001)                 1.451858082901536E+10       /* J = 56 */
(PID.TID 0000.0001)     ;
(PID.TID 0000.0001) rAs =  /* rAs(:,1,:,1) ( m - cartesian, degrees - spherical ) */
(PID.TID 0000.0001)                 1.162682306954695E+10       /* I =  1 */
(PID.TID 0000.0001)     ;
(PID.TID 0000.0001) rAs =  /* rAs(1,:,1,:) ( m - cartesian, degrees - spherical ) */
(PID.TID 0000.0001)                 1.162682306954695E+10,      /* J =  1 */
(PID.TID 0000.0001)                 1.740038827840316E+10,      /* J =  2 */
(PID.TID 0000.0001)                 2.312626023247488E+10,      /* J =  3 */
(PID.TID 0000.0001)                 2.878874471473547E+10,      /* J =  4 */
(PID.TID 0000.0001)                 3.437232124881438E+10,      /* J =  5 */
(PID.TID 0000.0001)                 3.986168563954120E+10,      /* J =  6 */
(PID.TID 0000.0001)                 4.524179192068169E+10,      /* J =  7 */
(PID.TID 0000.0001)                 5.049789359488558E+10,      /* J =  8 */
(PID.TID 0000.0001)                 5.561558405281213E+10,      /* J =  9 */
(PID.TID 0000.0001)                 6.058083606064116E+10,      /* J = 10 */
(PID.TID 0000.0001)                 6.538004020775079E+10,      /* J = 11 */
(PID.TID 0000.0001)                 7.000004220916154E+10,      /* J = 12 */
(PID.TID 0000.0001)                 7.442817896052029E+10,      /* J = 13 */
(PID.TID 0000.0001)                 7.865231324678772E+10,      /* J = 14 */
(PID.TID 0000.0001)                 8.266086700950050E+10,      /* J = 15 */
(PID.TID 0000.0001)                 8.644285308142711E+10,      /* J = 16 */
(PID.TID 0000.0001)                 8.998790530162651E+10,      /* J = 17 */
(PID.TID 0000.0001)                 9.328630692837677E+10,      /* J = 18 */
(PID.TID 0000.0001)                 9.632901727208771E+10,      /* J = 19 */
(PID.TID 0000.0001)                 9.910769647520410E+10,      /* J = 20 */
(PID.TID 0000.0001)                 1.016147283711733E+11,      /* J = 21 */
(PID.TID 0000.0001)                 1.038432413598305E+11,      /* J = 22 */
(PID.TID 0000.0001)                 1.057871272419753E+11,      /* J = 23 */
(PID.TID 0000.0001)                 1.074410579615233E+11,      /* J = 24 */
(PID.TID 0000.0001)                 1.088005002093347E+11,      /* J = 25 */
(PID.TID 0000.0001)                 1.098617278487027E+11,      /* J = 26 */
(PID.TID 0000.0001)                 1.106218321284322E+11,      /* J = 27 */
(PID.TID 0000.0001)                 1.110787296555271E+11,      /* J = 28 */
(PID.TID 0000.0001)                 1.112311681056240E+11,      /* J = 29 */
(PID.TID 0000.0001)                 1.110787296555271E+11,      /* J = 30 */
(PID.TID 0000.0001)                 1.106218321284322E+11,      /* J = 31 */
(PID.TID 0000.0001)                 1.098617278487027E+11,      /* J = 32 */
(PID.TID 0000.0001)                 1.088005002093347E+11,      /* J = 33 */
(PID.TID 0000.0001)                 1.074410579615233E+11,      /* J = 34 */
(PID.TID 0000.0001)                 1.057871272419753E+11,      /* J = 35 */
(PID.TID 0000.0001)                 1.038432413598305E+11,      /* J = 36 */
(PID.TID 0000.0001)                 1.016147283711733E+11,      /* J = 37 */
(PID.TID 0000.0001)                 9.910769647520410E+10,      /* J = 38 */
(PID.TID 0000.0001)                 9.632901727208771E+10,      /* J = 39 */
(PID.TID 0000.0001)                 9.328630692837677E+10,      /* J = 40 */
(PID.TID 0000.0001)                 8.998790530162651E+10,      /* J = 41 */
(PID.TID 0000.0001)                 8.644285308142711E+10,      /* J = 42 */
(PID.TID 0000.0001)                 8.266086700950050E+10,      /* J = 43 */
(PID.TID 0000.0001)                 7.865231324678772E+10,      /* J = 44 */
(PID.TID 0000.0001)                 7.442817896052029E+10,      /* J = 45 */
(PID.TID 0000.0001)                 7.000004220916154E+10,      /* J = 46 */
(PID.TID 0000.0001)                 6.538004020775079E+10,      /* J = 47 */
(PID.TID 0000.0001)                 6.058083606064116E+10,      /* J = 48 */
(PID.TID 0000.0001)                 5.561558405281213E+10,      /* J = 49 */
(PID.TID 0000.0001)                 5.049789359488558E+10,      /* J = 50 */
(PID.TID 0000.0001)                 4.524179192068169E+10,      /* J = 51 */
(PID.TID 0000.0001)                 3.986168563954120E+10,      /* J = 52 */
(PID.TID 0000.0001)                 3.437232124881438E+10,      /* J = 53 */
(PID.TID 0000.0001)                 2.878874471473547E+10,      /* J = 54 */
(PID.TID 0000.0001)                 2.312626023247488E+10,      /* J = 55 */
(PID.TID 0000.0001)                 1.740038827840316E+10       /* J = 56 */
(PID.TID 0000.0001)     ;
(PID.TID 0000.0001) 
(PID.TID 0000.0001)  MDSREADFIELD: opening global file: pickup.0000036000
(PID.TID 0000.0001)  MDSREADFIELD: opening global file: pickup.0000036000
(PID.TID 0000.0001)  MDSREADFIELD: opening global file: pickup.0000036000
(PID.TID 0000.0001)  MDSREADFIELD: opening global file: pickup.0000036000
(PID.TID 0000.0001)  MDSREADFIELD: opening global file: pickup.0000036000
(PID.TID 0000.0001)  MDSREADFIELD: opening global file: pickup.0000036000
(PID.TID 0000.0001)  MDSREADFIELD: opening global file: pickup.0000036000
(PID.TID 0000.0001)  MDSREADFIELD: opening global file: pickup.0000036000
(PID.TID 0000.0001)  MDSREADFIELD: opening global file: pickup.0000036000
(PID.TID 0000.0001)  MDSREADFIELD: opening global file: pickup.0000036000
(PID.TID 0000.0001)  MDSREADFIELD: opening global file: pickup.0000036000
(PID.TID 0000.0001)  MDSREADFIELD: opening global file: pickup.0000036000
(PID.TID 0000.0001)  MDSREADFIELD: opening global file: pickup.0000036000
(PID.TID 0000.0001)  MDSREADFIELD: opening global file: pickup_cd.0000036000
(PID.TID 0000.0001)  MDSREADFIELD: opening global file: pickup_cd.0000036000
(PID.TID 0000.0001)  MDSREADFIELD: opening global file: pickup_cd.0000036000
(PID.TID 0000.0001)  MDSREADFIELD: opening global file: pickup_cd.0000036000
(PID.TID 0000.0001)  MDSREADFIELD: opening global file: pickup_cd.0000036000
(PID.TID 0000.0001)  MDSREADFIELD: opening global file: taux_sl.bin
(PID.TID 0000.0001)  MDSREADFIELD: opening global file: sst_sl.bin
(PID.TID 0000.0001) // =======================================================
(PID.TID 0000.0001) // Model current state
(PID.TID 0000.0001) // =======================================================
(PID.TID 0000.0001) 
(PID.TID 0000.0001) // =======================================================
(PID.TID 0000.0001) // Begin MONITOR dynamic field statistics
(PID.TID 0000.0001) // =======================================================
(PID.TID 0000.0001) %MON time_tsnumber                =                 36000
(PID.TID 0000.0001) %MON time_secondsf                =   3.1104000000000E+09
(PID.TID 0000.0001) %MON dynstat_eta_max              =   1.6201005177854E+00
(PID.TID 0000.0001) %MON dynstat_eta_min              =  -3.9377441396023E+00
(PID.TID 0000.0001) %MON dynstat_eta_mean             =  -2.2337978401749E-16
(PID.TID 0000.0001) %MON dynstat_eta_sd               =   1.6563991723224E+00
(PID.TID 0000.0001) %MON dynstat_eta_del2             =   1.3977066220033E-02
(PID.TID 0000.0001) %MON dynstat_uvel_max             =   1.4272657430544E-01
(PID.TID 0000.0001) %MON dynstat_uvel_min             =  -3.8630916679110E-01
(PID.TID 0000.0001) %MON dynstat_uvel_mean            =   1.2659893360806E-02
(PID.TID 0000.0001) %MON dynstat_uvel_sd              =   3.8710511996223E-02
(PID.TID 0000.0001) %MON dynstat_uvel_del2            =   6.1842820168116E-04
(PID.TID 0000.0001) %MON dynstat_vvel_max             =   2.2999750655636E-02
(PID.TID 0000.0001) %MON dynstat_vvel_min             =  -2.2999750655604E-02
(PID.TID 0000.0001) %MON dynstat_vvel_mean            =   1.0386723279140E-15
(PID.TID 0000.0001) %MON dynstat_vvel_sd              =   1.5486266626369E-03
(PID.TID 0000.0001) %MON dynstat_vvel_del2            =   7.2795151559418E-05
(PID.TID 0000.0001) %MON dynstat_wvel_max             =   1.3691712526229E-06
(PID.TID 0000.0001) %MON dynstat_wvel_min             =  -8.1261601801594E-07
(PID.TID 0000.0001) %MON dynstat_wvel_mean            =   1.3909277297647E-23
(PID.TID 0000.0001) %MON dynstat_wvel_sd              =   2.5358259198888E-07
(PID.TID 0000.0001) %MON dynstat_wvel_del2            =   3.6741344623394E-08
(PID.TID 0000.0001) %MON dynstat_theta_max            =   2.6657021468384E+01
(PID.TID 0000.0001) %MON dynstat_theta_min            =  -9.3075890930299E-01
(PID.TID 0000.0001) %MON dynstat_theta_mean           =   2.2239378147708E+00
(PID.TID 0000.0001) %MON dynstat_theta_sd             =   3.9264791989428E+00
(PID.TID 0000.0001) %MON dynstat_theta_del2           =   4.1714222085658E-02
(PID.TID 0000.0001) %MON dynstat_salt_max             =   3.4700000000000E+01
(PID.TID 0000.0001) %MON dynstat_salt_min             =   3.4700000000000E+01
(PID.TID 0000.0001) %MON dynstat_salt_mean            =   3.4700000000000E+01
(PID.TID 0000.0001) %MON dynstat_salt_sd              =   7.1054273576010E-15
(PID.TID 0000.0001) %MON dynstat_salt_del2            =   0.0000000000000E+00
(PID.TID 0000.0001) %MON advcfl_uvel_max              =   1.0010587105295E-01
(PID.TID 0000.0001) %MON advcfl_vvel_max              =   5.9579769076500E-03
(PID.TID 0000.0001) %MON advcfl_wvel_max              =   1.9716066037770E-03
(PID.TID 0000.0001) %MON advcfl_W_hf_max              =   5.9148198113310E-03
(PID.TID 0000.0001) %MON pe_b_mean                    =   2.5880083768528E-03
(PID.TID 0000.0001) %MON ke_max                       =   7.4646746291426E-02
(PID.TID 0000.0001) %MON ke_mean                      =   8.3067694548141E-04
(PID.TID 0000.0001) %MON ke_vol                       =   2.1823819113454E+16
(PID.TID 0000.0001) %MON vort_r_min                   =  -1.7696079550502E-07
(PID.TID 0000.0001) %MON vort_r_max                   =   1.7696079550484E-07
(PID.TID 0000.0001) %MON vort_a_mean                  =   2.7861254556126E-21
(PID.TID 0000.0001) %MON vort_a_sd                    =   8.3264729252745E-05
(PID.TID 0000.0001) %MON vort_p_mean                  =   2.8034944168185E-21
(PID.TID 0000.0001) %MON vort_p_sd                    =   8.6550954127805E-05
(PID.TID 0000.0001) %MON surfExpan_theta_mean         =   8.7743901385969E-09
(PID.TID 0000.0001) %MON surfExpan_salt_mean          =  -6.3105052789025E-22
(PID.TID 0000.0001) // =======================================================
(PID.TID 0000.0001) // End MONITOR dynamic field statistics
(PID.TID 0000.0001) // =======================================================
 cg2d: Sum(rhs),rhsMax =   1.77635683940025E-14  1.48268842264243E+00
(PID.TID 0000.0001)                    cg2d_init_res =    2.44540880751372E-03
(PID.TID 0000.0001)                       cg2d_iters =    27
(PID.TID 0000.0001)                         cg2d_res =    4.60109283999998E-18
(PID.TID 0000.0001) // =======================================================
(PID.TID 0000.0001) // Begin MONITOR dynamic field statistics
(PID.TID 0000.0001) // =======================================================
(PID.TID 0000.0001) %MON time_tsnumber                =                 36001
(PID.TID 0000.0001) %MON time_secondsf                =   3.1104864000000E+09
(PID.TID 0000.0001) %MON dynstat_eta_max              =   1.6196962635487E+00
(PID.TID 0000.0001) %MON dynstat_eta_min              =  -3.9375476269002E+00
(PID.TID 0000.0001) %MON dynstat_eta_mean             =  -2.2337978401749E-16
(PID.TID 0000.0001) %MON dynstat_eta_sd               =   1.6560833372467E+00
(PID.TID 0000.0001) %MON dynstat_eta_del2             =   1.3973330763588E-02
(PID.TID 0000.0001) %MON dynstat_uvel_max             =   1.4273584335081E-01
(PID.TID 0000.0001) %MON dynstat_uvel_min             =  -3.8630889365595E-01
(PID.TID 0000.0001) %MON dynstat_uvel_mean            =   1.2664017650877E-02
(PID.TID 0000.0001) %MON dynstat_uvel_sd              =   3.8711845401339E-02
(PID.TID 0000.0001) %MON dynstat_uvel_del2            =   6.1844490565322E-04
(PID.TID 0000.0001) %MON dynstat_vvel_max             =   2.3013469555000E-02
(PID.TID 0000.0001) %MON dynstat_vvel_min             =  -2.3013469554968E-02
(PID.TID 0000.0001) %MON dynstat_vvel_mean            =   8.7036626166777E-16
(PID.TID 0000.0001) %MON dynstat_vvel_sd              =   1.5493091647320E-03
(PID.TID 0000.0001) %MON dynstat_vvel_del2            =   7.2807455714830E-05
(PID.TID 0000.0001) %MON dynstat_wvel_max             =   1.4062161908958E-06
(PID.TID 0000.0001) %MON dynstat_wvel_min             =  -8.9651107050576E-07
(PID.TID 0000.0001) %MON dynstat_wvel_mean            =   5.8565378095355E-24
(PID.TID 0000.0001) %MON dynstat_wvel_sd              =   2.6253856714937E-07
(PID.TID 0000.0001) %MON dynstat_wvel_del2            =   3.6990681139062E-08
(PID.TID 0000.0001) %MON dynstat_theta_max            =   2.6657624210781E+01
(PID.TID 0000.0001) %MON dynstat_theta_min            =  -9.3075955871325E-01
(PID.TID 0000.0001) %MON dynstat_theta_mean           =   2.2239455622677E+00
(PID.TID 0000.0001) %MON dynstat_theta_sd             =   3.9265306801645E+00
(PID.TID 0000.0001) %MON dynstat_theta_del2           =   4.1716716830299E-02
(PID.TID 0000.0001) %MON dynstat_salt_max             =   3.4700000000000E+01
(PID.TID 0000.0001) %MON dynstat_salt_min             =   3.4700000000000E+01
(PID.TID 0000.0001) %MON dynstat_salt_mean            =   3.4700000000000E+01
(PID.TID 0000.0001) %MON dynstat_salt_sd              =   7.1054273576010E-15
(PID.TID 0000.0001) %MON dynstat_salt_del2            =   0.0000000000000E+00
(PID.TID 0000.0001) %MON advcfl_uvel_max              =   1.0010580027432E-01
(PID.TID 0000.0001) %MON advcfl_vvel_max              =   5.9615307238123E-03
(PID.TID 0000.0001) %MON advcfl_wvel_max              =   2.0249513148900E-03
(PID.TID 0000.0001) %MON advcfl_W_hf_max              =   6.0748539446699E-03
(PID.TID 0000.0001) %MON pe_b_mean                    =   2.5870215303153E-03
(PID.TID 0000.0001) %MON ke_max                       =   7.4646629771495E-02
(PID.TID 0000.0001) %MON ke_mean                      =   8.3078184915390E-04
(PID.TID 0000.0001) %MON ke_vol                       =   2.1823819113454E+16
(PID.TID 0000.0001) %MON vort_r_min                   =  -1.7696269008163E-07
(PID.TID 0000.0001) %MON vort_r_max                   =   1.7696269008145E-07
(PID.TID 0000.0001) %MON vort_a_mean                  =  -5.5722509112253E-21
(PID.TID 0000.0001) %MON vort_a_sd                    =   8.3264730102242E-05
(PID.TID 0000.0001) %MON vort_p_mean                  =  -5.6069888336370E-21
(PID.TID 0000.0001) %MON vort_p_sd                    =   8.6550954984575E-05
(PID.TID 0000.0001) %MON surfExpan_theta_mean         =  -9.8487652030738E-07
(PID.TID 0000.0001) %MON surfExpan_salt_mean          =  -1.1095393896971E-22
(PID.TID 0000.0001) // =======================================================
(PID.TID 0000.0001) // End MONITOR dynamic field statistics
(PID.TID 0000.0001) // =======================================================
 cg2d: Sum(rhs),rhsMax =   1.24344978758018E-14  1.48203617820840E+00
(PID.TID 0000.0001)                    cg2d_init_res =    3.92320002334384E-03
(PID.TID 0000.0001)                       cg2d_iters =    27
(PID.TID 0000.0001)                         cg2d_res =    1.21409078689863E-17
(PID.TID 0000.0001) // =======================================================
(PID.TID 0000.0001) // Begin MONITOR dynamic field statistics
(PID.TID 0000.0001) // =======================================================
(PID.TID 0000.0001) %MON time_tsnumber                =                 36002
(PID.TID 0000.0001) %MON time_secondsf                =   3.1105728000000E+09
(PID.TID 0000.0001) %MON dynstat_eta_max              =   1.6190043201618E+00
(PID.TID 0000.0001) %MON dynstat_eta_min              =  -3.9370825596754E+00
(PID.TID 0000.0001) %MON dynstat_eta_mean             =  -2.9783971202332E-16
(PID.TID 0000.0001) %MON dynstat_eta_sd               =   1.6554914963958E+00
(PID.TID 0000.0001) %MON dynstat_eta_del2             =   1.3966902541441E-02
(PID.TID 0000.0001) %MON dynstat_uvel_max             =   1.4275313306591E-01
(PID.TID 0000.0001) %MON dynstat_uvel_min             =  -3.8630854419405E-01
(PID.TID 0000.0001) %MON dynstat_uvel_mean            =   1.2671834433520E-02
(PID.TID 0000.0001) %MON dynstat_uvel_sd              =   3.8714487349085E-02
(PID.TID 0000.0001) %MON dynstat_uvel_del2            =   6.1847941819101E-04
(PID.TID 0000.0001) %MON dynstat_vvel_max             =   2.3031055883680E-02
(PID.TID 0000.0001) %MON dynstat_vvel_min             =  -2.3031055883647E-02
(PID.TID 0000.0001) %MON dynstat_vvel_mean            =   1.0774407404716E-15
(PID.TID 0000.0001) %MON dynstat_vvel_sd              =   1.5511129336435E-03
(PID.TID 0000.0001) %MON dynstat_vvel_del2            =   7.2830421633189E-05
(PID.TID 0000.0001) %MON dynstat_wvel_max             =   1.3293364621378E-06
(PID.TID 0000.0001) %MON dynstat_wvel_min             =  -9.6061308081320E-07
(PID.TID 0000.0001) %MON dynstat_wvel_mean            =   1.1713075619071E-23
(PID.TID 0000.0001) %MON dynstat_wvel_sd              =   2.8144192355289E-07
(PID.TID 0000.0001) %MON dynstat_wvel_del2            =   3.7047213411088E-08
(PID.TID 0000.0001) %MON dynstat_theta_max            =   2.6658568917491E+01
(PID.TID 0000.0001) %MON dynstat_theta_min            =  -9.3076020761642E-01
(PID.TID 0000.0001) %MON dynstat_theta_mean           =   2.2239680013260E+00
(PID.TID 0000.0001) %MON dynstat_theta_sd             =   3.9266282864274E+00
(PID.TID 0000.0001) %MON dynstat_theta_del2           =   4.1718115771530E-02
(PID.TID 0000.0001) %MON dynstat_salt_max             =   3.4700000000000E+01
(PID.TID 0000.0001) %MON dynstat_salt_min             =   3.4700000000000E+01
(PID.TID 0000.0001) %MON dynstat_salt_mean            =   3.4700000000000E+01
(PID.TID 0000.0001) %MON dynstat_salt_sd              =   7.1054273576010E-15
(PID.TID 0000.0001) %MON dynstat_salt_del2            =   0.0000000000000E+00
(PID.TID 0000.0001) %MON advcfl_uvel_max              =   1.0010570971683E-01
(PID.TID 0000.0001) %MON advcfl_vvel_max              =   5.9660863792945E-03
(PID.TID 0000.0001) %MON advcfl_wvel_max              =   1.9142445054784E-03
(PID.TID 0000.0001) %MON advcfl_W_hf_max              =   5.7427335164352E-03
(PID.TID 0000.0001) %MON pe_b_mean                    =   2.5851727931160E-03
(PID.TID 0000.0001) %MON ke_max                       =   7.4646513617267E-02
(PID.TID 0000.0001) %MON ke_mean                      =   8.3098595672678E-04
(PID.TID 0000.0001) %MON ke_vol                       =   2.1823819113454E+16
(PID.TID 0000.0001) %MON vort_r_min                   =  -1.7696634094658E-07
(PID.TID 0000.0001) %MON vort_r_max                   =   1.7696634094640E-07
(PID.TID 0000.0001) %MON vort_a_mean                  =  -8.3583763668379E-21
(PID.TID 0000.0001) %MON vort_a_sd                    =   8.3264731694888E-05
(PID.TID 0000.0001) %MON vort_p_mean                  =  -8.4104832504555E-21
(PID.TID 0000.0001) %MON vort_p_sd                    =   8.6550956601566E-05
(PID.TID 0000.0001) %MON surfExpan_theta_mean         =  -1.8697427261042E-06
(PID.TID 0000.0001) %MON surfExpan_salt_mean          =   0.0000000000000E+00
(PID.TID 0000.0001) // =======================================================
(PID.TID 0000.0001) // End MONITOR dynamic field statistics
(PID.TID 0000.0001) // =======================================================
 cg2d: Sum(rhs),rhsMax =   1.24344978758018E-14  1.48124907987934E+00
(PID.TID 0000.0001)                    cg2d_init_res =    4.99131433573535E-03
(PID.TID 0000.0001)                       cg2d_iters =    27
(PID.TID 0000.0001)                         cg2d_res =    1.93575431156673E-17
(PID.TID 0000.0001) // =======================================================
(PID.TID 0000.0001) // Begin MONITOR dynamic field statistics
(PID.TID 0000.0001) // =======================================================
(PID.TID 0000.0001) %MON time_tsnumber                =                 36003
(PID.TID 0000.0001) %MON time_secondsf                =   3.1106592000000E+09
(PID.TID 0000.0001) %MON dynstat_eta_max              =   1.6181615295614E+00
(PID.TID 0000.0001) %MON dynstat_eta_min              =  -3.9362542326058E+00
(PID.TID 0000.0001) %MON dynstat_eta_mean             =  -3.7229964002914E-16
(PID.TID 0000.0001) %MON dynstat_eta_sd               =   1.6546777977087E+00
(PID.TID 0000.0001) %MON dynstat_eta_del2             =   1.3959349938033E-02
(PID.TID 0000.0001) %MON dynstat_uvel_max             =   1.4277700078044E-01
(PID.TID 0000.0001) %MON dynstat_uvel_min             =  -3.8630835374029E-01
(PID.TID 0000.0001) %MON dynstat_uvel_mean            =   1.2682981787357E-02
(PID.TID 0000.0001) %MON dynstat_uvel_sd              =   3.8718277951267E-02
(PID.TID 0000.0001) %MON dynstat_uvel_del2            =   6.1853092697917E-04
(PID.TID 0000.0001) %MON dynstat_vvel_max             =   2.3052723963979E-02
(PID.TID 0000.0001) %MON dynstat_vvel_min             =  -2.3052723963946E-02
(PID.TID 0000.0001) %MON dynstat_vvel_mean            =   6.6537630742692E-16
(PID.TID 0000.0001) %MON dynstat_vvel_sd              =   1.5535471288819E-03
(PID.TID 0000.0001) %MON dynstat_vvel_del2            =   7.2848788916657E-05
(PID.TID 0000.0001) %MON dynstat_wvel_max             =   1.2069163743318E-06
(PID.TID 0000.0001) %MON dynstat_wvel_min             =  -1.0021049671249E-06
(PID.TID 0000.0001) %MON dynstat_wvel_mean            =   6.4421915904890E-23
(PID.TID 0000.0001) %MON dynstat_wvel_sd              =   3.0187025891563E-07
(PID.TID 0000.0001) %MON dynstat_wvel_del2            =   3.7055643227130E-08
(PID.TID 0000.0001) %MON dynstat_theta_max            =   2.6659890433132E+01
(PID.TID 0000.0001) %MON dynstat_theta_min            =  -9.3076085592474E-01
(PID.TID 0000.0001) %MON dynstat_theta_mean           =   2.2240026812702E+00
(PID.TID 0000.0001) %MON dynstat_theta_sd             =   3.9267648326667E+00
(PID.TID 0000.0001) %MON dynstat_theta_del2           =   4.1717001423286E-02
(PID.TID 0000.0001) %MON dynstat_salt_max             =   3.4700000000000E+01
(PID.TID 0000.0001) %MON dynstat_salt_min             =   3.4700000000000E+01
(PID.TID 0000.0001) %MON dynstat_salt_mean            =   3.4700000000000E+01
(PID.TID 0000.0001) %MON dynstat_salt_sd              =   7.1054273576010E-15
(PID.TID 0000.0001) %MON dynstat_salt_del2            =   0.0000000000000E+00
(PID.TID 0000.0001) %MON advcfl_uvel_max              =   1.0010566036377E-01
(PID.TID 0000.0001) %MON advcfl_vvel_max              =   5.9716993932785E-03
(PID.TID 0000.0001) %MON advcfl_wvel_max              =   1.8692934821344E-03
(PID.TID 0000.0001) %MON advcfl_W_hf_max              =   5.2138787371134E-03
(PID.TID 0000.0001) %MON pe_b_mean                    =   2.5826321159228E-03
(PID.TID 0000.0001) %MON ke_max                       =   7.4646469596947E-02
(PID.TID 0000.0001) %MON ke_mean                      =   8.3127782973830E-04
(PID.TID 0000.0001) %MON ke_vol                       =   2.1823819113454E+16
(PID.TID 0000.0001) %MON vort_r_min                   =  -1.7697139951585E-07
(PID.TID 0000.0001) %MON vort_r_max                   =   1.7697139951567E-07
(PID.TID 0000.0001) %MON vort_a_mean                  =  -1.6716752733676E-20
(PID.TID 0000.0001) %MON vort_a_sd                    =   8.3264733946863E-05
(PID.TID 0000.0001) %MON vort_p_mean                  =  -1.6820966500911E-20
(PID.TID 0000.0001) %MON vort_p_sd                    =   8.6550958918335E-05
(PID.TID 0000.0001) %MON surfExpan_theta_mean         =  -2.6098170863156E-06
(PID.TID 0000.0001) %MON surfExpan_salt_mean          =   1.5533551455760E-21
(PID.TID 0000.0001) // =======================================================
(PID.TID 0000.0001) // End MONITOR dynamic field statistics
(PID.TID 0000.0001) // =======================================================
 cg2d: Sum(rhs),rhsMax =   1.24344978758018E-14  1.48045270329176E+00
(PID.TID 0000.0001)                    cg2d_init_res =    5.73762727865417E-03
(PID.TID 0000.0001)                       cg2d_iters =    27
(PID.TID 0000.0001)                         cg2d_res =    6.84747072465907E-18
(PID.TID 0000.0001) // =======================================================
(PID.TID 0000.0001) // Begin MONITOR dynamic field statistics
(PID.TID 0000.0001) // =======================================================
(PID.TID 0000.0001) %MON time_tsnumber                =                 36004
(PID.TID 0000.0001) %MON time_secondsf                =   3.1107456000000E+09
(PID.TID 0000.0001) %MON dynstat_eta_max              =   1.6173019778099E+00
(PID.TID 0000.0001) %MON dynstat_eta_min              =  -3.9349817988072E+00
(PID.TID 0000.0001) %MON dynstat_eta_mean             =  -3.7229964002914E-16
(PID.TID 0000.0001) %MON dynstat_eta_sd               =   1.6537014574743E+00
(PID.TID 0000.0001) %MON dynstat_eta_del2             =   1.3952619418186E-02
(PID.TID 0000.0001) %MON dynstat_uvel_max             =   1.4280577114292E-01
(PID.TID 0000.0001) %MON dynstat_uvel_min             =  -3.8630832270373E-01
(PID.TID 0000.0001) %MON dynstat_uvel_mean            =   1.2696952025887E-02
(PID.TID 0000.0001) %MON dynstat_uvel_sd              =   3.8723006944132E-02
(PID.TID 0000.0001) %MON dynstat_uvel_del2            =   6.1859749488926E-04
(PID.TID 0000.0001) %MON dynstat_vvel_max             =   2.3076160991248E-02
(PID.TID 0000.0001) %MON dynstat_vvel_min             =  -2.3076160991214E-02
(PID.TID 0000.0001) %MON dynstat_vvel_mean            =  -8.3909136989285E-17
(PID.TID 0000.0001) %MON dynstat_vvel_sd              =   1.5560977657372E-03
(PID.TID 0000.0001) %MON dynstat_vvel_del2            =   7.2865218961238E-05
(PID.TID 0000.0001) %MON dynstat_wvel_max             =   1.2492739639444E-06
(PID.TID 0000.0001) %MON dynstat_wvel_min             =  -1.0067070773671E-06
(PID.TID 0000.0001) %MON dynstat_wvel_mean            =   7.6134991523961E-23
(PID.TID 0000.0001) %MON dynstat_wvel_sd              =   3.1984813420224E-07
(PID.TID 0000.0001) %MON dynstat_wvel_del2            =   3.7011821798322E-08
(PID.TID 0000.0001) %MON dynstat_theta_max            =   2.6661672293006E+01
(PID.TID 0000.0001) %MON dynstat_theta_min            =  -9.3076150359804E-01
(PID.TID 0000.0001) %MON dynstat_theta_mean           =   2.2240467564827E+00
(PID.TID 0000.0001) %MON dynstat_theta_sd             =   3.9269314787213E+00
(PID.TID 0000.0001) %MON dynstat_theta_del2           =   4.1713256161435E-02
(PID.TID 0000.0001) %MON dynstat_salt_max             =   3.4700000000000E+01
(PID.TID 0000.0001) %MON dynstat_salt_min             =   3.4700000000000E+01
(PID.TID 0000.0001) %MON dynstat_salt_mean            =   3.4700000000000E+01
(PID.TID 0000.0001) %MON dynstat_salt_sd              =   7.1054273576010E-15
(PID.TID 0000.0001) %MON dynstat_salt_del2            =   0.0000000000000E+00
(PID.TID 0000.0001) %MON advcfl_uvel_max              =   1.0010565232114E-01
(PID.TID 0000.0001) %MON advcfl_vvel_max              =   5.9777706446300E-03
(PID.TID 0000.0001) %MON advcfl_wvel_max              =   2.1647515477145E-03
(PID.TID 0000.0001) %MON advcfl_W_hf_max              =   5.3968635242399E-03
(PID.TID 0000.0001) %MON pe_b_mean                    =   2.5795852584173E-03
(PID.TID 0000.0001) %MON ke_max                       =   7.4646486536048E-02
(PID.TID 0000.0001) %MON ke_mean                      =   8.3164221085340E-04
(PID.TID 0000.0001) %MON ke_vol                       =   2.1823819113454E+16
(PID.TID 0000.0001) %MON vort_r_min                   =  -1.7697755973686E-07
(PID.TID 0000.0001) %MON vort_r_max                   =   1.7697755973668E-07
(PID.TID 0000.0001) %MON vort_a_mean                  =  -1.3930627278063E-20
(PID.TID 0000.0001) %MON vort_a_sd                    =   8.3264736745956E-05
(PID.TID 0000.0001) %MON vort_p_mean                  =  -1.4017472084093E-20
(PID.TID 0000.0001) %MON vort_p_sd                    =   8.6550961848724E-05
(PID.TID 0000.0001) %MON surfExpan_theta_mean         =  -3.1825139343976E-06
(PID.TID 0000.0001) %MON surfExpan_salt_mean          =   1.3314472676366E-21
(PID.TID 0000.0001) // =======================================================
(PID.TID 0000.0001) // End MONITOR dynamic field statistics
(PID.TID 0000.0001) // =======================================================
 cg2d: Sum(rhs),rhsMax =   8.88178419700125E-15  1.47975236034848E+00
(PID.TID 0000.0001)                    cg2d_init_res =    6.24851793246987E-03
(PID.TID 0000.0001)                       cg2d_iters =    27
(PID.TID 0000.0001)                         cg2d_res =    2.12299626247636E-17
(PID.TID 0000.0001) // =======================================================
(PID.TID 0000.0001) // Begin MONITOR dynamic field statistics
(PID.TID 0000.0001) // =======================================================
(PID.TID 0000.0001) %MON time_tsnumber                =                 36005
(PID.TID 0000.0001) %MON time_secondsf                =   3.1108320000000E+09
(PID.TID 0000.0001) %MON dynstat_eta_max              =   1.6165311502956E+00
(PID.TID 0000.0001) %MON dynstat_eta_min              =  -3.9332305072820E+00
(PID.TID 0000.0001) %MON dynstat_eta_mean             =  -3.7229964002914E-16
(PID.TID 0000.0001) %MON dynstat_eta_sd               =   1.6526213782983E+00
(PID.TID 0000.0001) %MON dynstat_eta_del2             =   1.3947977123748E-02
(PID.TID 0000.0001) %MON dynstat_uvel_max             =   1.4283770732286E-01
(PID.TID 0000.0001) %MON dynstat_uvel_min             =  -3.8630842568993E-01
(PID.TID 0000.0001) %MON dynstat_uvel_mean            =   1.2713107771199E-02
(PID.TID 0000.0001) %MON dynstat_uvel_sd              =   3.8728426351018E-02
(PID.TID 0000.0001) %MON dynstat_uvel_del2            =   6.1867636659356E-04
(PID.TID 0000.0001) %MON dynstat_vvel_max             =   2.3097810899991E-02
(PID.TID 0000.0001) %MON dynstat_vvel_min             =  -2.3097810899956E-02
(PID.TID 0000.0001) %MON dynstat_vvel_mean            =   1.0586125954300E-16
(PID.TID 0000.0001) %MON dynstat_vvel_sd              =   1.5583006869533E-03
(PID.TID 0000.0001) %MON dynstat_vvel_del2            =   7.2889909726137E-05
(PID.TID 0000.0001) %MON dynstat_wvel_max             =   1.2894083038861E-06
(PID.TID 0000.0001) %MON dynstat_wvel_min             =  -1.0380579487793E-06
(PID.TID 0000.0001) %MON dynstat_wvel_mean            =   1.7569613428606E-23
(PID.TID 0000.0001) %MON dynstat_wvel_sd              =   3.3381759771060E-07
(PID.TID 0000.0001) %MON dynstat_wvel_del2            =   3.6953630104877E-08
(PID.TID 0000.0001) %MON dynstat_theta_max            =   2.6663899222970E+01
(PID.TID 0000.0001) %MON dynstat_theta_min            =  -9.3076215067240E-01
(PID.TID 0000.0001) %MON dynstat_theta_mean           =   2.2240971915720E+00
(PID.TID 0000.0001) %MON dynstat_theta_sd             =   3.9271185960950E+00
(PID.TID 0000.0001) %MON dynstat_theta_del2           =   4.1707302015074E-02
(PID.TID 0000.0001) %MON dynstat_salt_max             =   3.4700000000000E+01
(PID.TID 0000.0001) %MON dynstat_salt_min             =   3.4700000000000E+01
(PID.TID 0000.0001) %MON dynstat_salt_mean            =   3.4700000000000E+01
(PID.TID 0000.0001) %MON dynstat_salt_sd              =   7.1054273576010E-15
(PID.TID 0000.0001) %MON dynstat_salt_del2            =   0.0000000000000E+00
(PID.TID 0000.0001) %MON advcfl_uvel_max              =   1.0010567900838E-01
(PID.TID 0000.0001) %MON advcfl_vvel_max              =   5.9833789513579E-03
(PID.TID 0000.0001) %MON advcfl_wvel_max              =   2.3866649982993E-03
(PID.TID 0000.0001) %MON advcfl_W_hf_max              =   5.5702438727878E-03
(PID.TID 0000.0001) %MON pe_b_mean                    =   2.5762167586811E-03
(PID.TID 0000.0001) %MON ke_max                       =   7.4646548792080E-02
(PID.TID 0000.0001) %MON ke_mean                      =   8.3206080330012E-04
(PID.TID 0000.0001) %MON ke_vol                       =   2.1823819113454E+16
(PID.TID 0000.0001) %MON vort_r_min                   =  -1.7698461869308E-07
(PID.TID 0000.0001) %MON vort_r_max                   =   1.7698461869291E-07
(PID.TID 0000.0001) %MON vort_a_mean                  =   5.5722509112253E-21
(PID.TID 0000.0001) %MON vort_a_sd                    =   8.3264739957465E-05
(PID.TID 0000.0001) %MON vort_p_mean                  =   5.6069888336370E-21
(PID.TID 0000.0001) %MON vort_p_sd                    =   8.6550965278258E-05
(PID.TID 0000.0001) %MON surfExpan_theta_mean         =  -3.5765700131706E-06
(PID.TID 0000.0001) %MON surfExpan_salt_mean          =  -4.4381575587886E-22
(PID.TID 0000.0001) // =======================================================
(PID.TID 0000.0001) // End MONITOR dynamic field statistics
(PID.TID 0000.0001) // =======================================================
 cg2d: Sum(rhs),rhsMax =   1.06581410364015E-14  1.47920868832796E+00
(PID.TID 0000.0001)                    cg2d_init_res =    6.56588843830829E-03
(PID.TID 0000.0001)                       cg2d_iters =    27
(PID.TID 0000.0001)                         cg2d_res =    1.03576074796048E-17
(PID.TID 0000.0001) // =======================================================
(PID.TID 0000.0001) // Begin MONITOR dynamic field statistics
(PID.TID 0000.0001) // =======================================================
(PID.TID 0000.0001) %MON time_tsnumber                =                 36006
(PID.TID 0000.0001) %MON time_secondsf                =   3.1109184000000E+09
(PID.TID 0000.0001) %MON dynstat_eta_max              =   1.6159052844976E+00
(PID.TID 0000.0001) %MON dynstat_eta_min              =  -3.9310347245609E+00
(PID.TID 0000.0001) %MON dynstat_eta_mean             =  -4.4675956803497E-16
(PID.TID 0000.0001) %MON dynstat_eta_sd               =   1.6514928752921E+00
(PID.TID 0000.0001) %MON dynstat_eta_del2             =   1.3945722550399E-02
(PID.TID 0000.0001) %MON dynstat_uvel_max             =   1.4287113565520E-01
(PID.TID 0000.0001) %MON dynstat_uvel_min             =  -3.8630862958452E-01
(PID.TID 0000.0001) %MON dynstat_uvel_mean            =   1.2730706274868E-02
(PID.TID 0000.0001) %MON dynstat_uvel_sd              =   3.8734265498685E-02
(PID.TID 0000.0001) %MON dynstat_uvel_del2            =   6.1876415119459E-04
(PID.TID 0000.0001) %MON dynstat_vvel_max             =   2.3114480541747E-02
(PID.TID 0000.0001) %MON dynstat_vvel_min             =  -2.3114480541712E-02
(PID.TID 0000.0001) %MON dynstat_vvel_mean            =   4.3613198281655E-16
(PID.TID 0000.0001) %MON dynstat_vvel_sd              =   1.5597882947379E-03
(PID.TID 0000.0001) %MON dynstat_vvel_del2            =   7.2926659550891E-05
(PID.TID 0000.0001) %MON dynstat_wvel_max             =   1.2961109557239E-06
(PID.TID 0000.0001) %MON dynstat_wvel_min             =  -1.0765689936740E-06
(PID.TID 0000.0001) %MON dynstat_wvel_mean            =  -5.8565378095355E-24
(PID.TID 0000.0001) %MON dynstat_wvel_sd              =   3.4274284181059E-07
(PID.TID 0000.0001) %MON dynstat_wvel_del2            =   3.6913927390550E-08
(PID.TID 0000.0001) %MON dynstat_theta_max            =   2.6666444454814E+01
(PID.TID 0000.0001) %MON dynstat_theta_min            =  -9.3076279733675E-01
(PID.TID 0000.0001) %MON dynstat_theta_mean           =   2.2241509222879E+00
(PID.TID 0000.0001) %MON dynstat_theta_sd             =   3.9273163528134E+00
(PID.TID 0000.0001) %MON dynstat_theta_del2           =   4.1699784433676E-02
(PID.TID 0000.0001) %MON dynstat_salt_max             =   3.4700000000000E+01
(PID.TID 0000.0001) %MON dynstat_salt_min             =   3.4700000000000E+01
(PID.TID 0000.0001) %MON dynstat_salt_mean            =   3.4700000000000E+01
(PID.TID 0000.0001) %MON dynstat_salt_sd              =   7.1054273576010E-15
(PID.TID 0000.0001) %MON dynstat_salt_del2            =   0.0000000000000E+00
(PID.TID 0000.0001) %MON advcfl_uvel_max              =   1.0010573184441E-01
(PID.TID 0000.0001) %MON advcfl_vvel_max              =   5.9876971434169E-03
(PID.TID 0000.0001) %MON advcfl_wvel_max              =   2.6544119711444E-03
(PID.TID 0000.0001) %MON advcfl_W_hf_max              =   5.5991993287273E-03
(PID.TID 0000.0001) %MON pe_b_mean                    =   2.5726995879949E-03
(PID.TID 0000.0001) %MON ke_max                       =   7.4646640114261E-02
(PID.TID 0000.0001) %MON ke_mean                      =   8.3251320838924E-04
(PID.TID 0000.0001) %MON ke_vol                       =   2.1823819113454E+16
(PID.TID 0000.0001) %MON vort_r_min                   =  -1.7699240396718E-07
(PID.TID 0000.0001) %MON vort_r_max                   =   1.7699240396700E-07
(PID.TID 0000.0001) %MON vort_a_mean                  =   5.5722509112253E-21
(PID.TID 0000.0001) %MON vort_a_sd                    =   8.3264743430745E-05
(PID.TID 0000.0001) %MON vort_p_mean                  =   5.6069888336370E-21
(PID.TID 0000.0001) %MON vort_p_sd                    =   8.6550969064421E-05
(PID.TID 0000.0001) %MON surfExpan_theta_mean         =  -3.7896137381032E-06
(PID.TID 0000.0001) %MON surfExpan_salt_mean          =   8.8763151175772E-22
(PID.TID 0000.0001) // =======================================================
(PID.TID 0000.0001) // End MONITOR dynamic field statistics
(PID.TID 0000.0001) // =======================================================
 cg2d: Sum(rhs),rhsMax =   1.42108547152020E-14  1.47882577942493E+00
(PID.TID 0000.0001)                    cg2d_init_res =    6.66240109260752E-03
(PID.TID 0000.0001)                       cg2d_iters =    27
(PID.TID 0000.0001)                         cg2d_res =    1.36503678119293E-17
(PID.TID 0000.0001) // =======================================================
(PID.TID 0000.0001) // Begin MONITOR dynamic field statistics
(PID.TID 0000.0001) // =======================================================
(PID.TID 0000.0001) %MON time_tsnumber                =                 36007
(PID.TID 0000.0001) %MON time_secondsf                =   3.1110048000000E+09
(PID.TID 0000.0001) %MON dynstat_eta_max              =   1.6154280401295E+00
(PID.TID 0000.0001) %MON dynstat_eta_min              =  -3.9285052875939E+00
(PID.TID 0000.0001) %MON dynstat_eta_mean             =  -4.4675956803497E-16
(PID.TID 0000.0001) %MON dynstat_eta_sd               =   1.6503662523722E+00
(PID.TID 0000.0001) %MON dynstat_eta_del2             =   1.3945496882374E-02
(PID.TID 0000.0001) %MON dynstat_uvel_max             =   1.4290453044415E-01
(PID.TID 0000.0001) %MON dynstat_uvel_min             =  -3.8630889621809E-01
(PID.TID 0000.0001) %MON dynstat_uvel_mean            =   1.2748933619187E-02
(PID.TID 0000.0001) %MON dynstat_uvel_sd              =   3.8740245556610E-02
(PID.TID 0000.0001) %MON dynstat_uvel_del2            =   6.1885721858135E-04
(PID.TID 0000.0001) %MON dynstat_vvel_max             =   2.3124173977517E-02
(PID.TID 0000.0001) %MON dynstat_vvel_min             =  -2.3124173977482E-02
(PID.TID 0000.0001) %MON dynstat_vvel_mean            =   1.0123091805426E-15
(PID.TID 0000.0001) %MON dynstat_vvel_sd              =   1.5603310745041E-03
(PID.TID 0000.0001) %MON dynstat_vvel_del2            =   7.2959886404263E-05
(PID.TID 0000.0001) %MON dynstat_wvel_max             =   1.2757306003338E-06
(PID.TID 0000.0001) %MON dynstat_wvel_min             =  -1.0964716995111E-06
(PID.TID 0000.0001) %MON dynstat_wvel_mean            =  -1.1713075619071E-23
(PID.TID 0000.0001) %MON dynstat_wvel_sd              =   3.4547493685880E-07
(PID.TID 0000.0001) %MON dynstat_wvel_del2            =   3.6893411226791E-08
(PID.TID 0000.0001) %MON dynstat_theta_max            =   2.6669116190754E+01
(PID.TID 0000.0001) %MON dynstat_theta_min            =  -9.3076344388871E-01
(PID.TID 0000.0001) %MON dynstat_theta_mean           =   2.2242049745918E+00
(PID.TID 0000.0001) %MON dynstat_theta_sd             =   3.9275150768442E+00
(PID.TID 0000.0001) %MON dynstat_theta_del2           =   4.1691482538913E-02
(PID.TID 0000.0001) %MON dynstat_salt_max             =   3.4700000000000E+01
(PID.TID 0000.0001) %MON dynstat_salt_min             =   3.4700000000000E+01
(PID.TID 0000.0001) %MON dynstat_salt_mean            =   3.4700000000000E+01
(PID.TID 0000.0001) %MON dynstat_salt_sd              =   7.1054273576010E-15
(PID.TID 0000.0001) %MON dynstat_salt_del2            =   0.0000000000000E+00
(PID.TID 0000.0001) %MON advcfl_uvel_max              =   1.0010580093826E-01
(PID.TID 0000.0001) %MON advcfl_vvel_max              =   5.9902081822251E-03
(PID.TID 0000.0001) %MON advcfl_wvel_max              =   3.0353243645237E-03
(PID.TID 0000.0001) %MON advcfl_W_hf_max              =   5.5111561934420E-03
(PID.TID 0000.0001) %MON pe_b_mean                    =   2.5691906734584E-03
(PID.TID 0000.0001) %MON ke_max                       =   7.4646743571042E-02
(PID.TID 0000.0001) %MON ke_mean                      =   8.3297796856227E-04
(PID.TID 0000.0001) %MON ke_vol                       =   2.1823819113454E+16
(PID.TID 0000.0001) %MON vort_r_min                   =  -1.7700068581788E-07
(PID.TID 0000.0001) %MON vort_r_max                   =   1.7700068581770E-07
(PID.TID 0000.0001) %MON vort_a_mean                  =   2.7861254556126E-21
(PID.TID 0000.0001) %MON vort_a_sd                    =   8.3264747006485E-05
(PID.TID 0000.0001) %MON vort_p_mean                  =   2.8034944168185E-21
(PID.TID 0000.0001) %MON vort_p_sd                    =   8.6550973039863E-05
(PID.TID 0000.0001) %MON surfExpan_theta_mean         =  -3.8259427204121E-06
(PID.TID 0000.0001) %MON surfExpan_salt_mean          =   4.4381575587886E-22
(PID.TID 0000.0001) // =======================================================
(PID.TID 0000.0001) // End MONITOR dynamic field statistics
(PID.TID 0000.0001) // =======================================================
 cg2d: Sum(rhs),rhsMax =   1.24344978758018E-14  1.47856339049751E+00
(PID.TID 0000.0001)                    cg2d_init_res =    6.48788718931614E-03
(PID.TID 0000.0001)                       cg2d_iters =    27
(PID.TID 0000.0001)                         cg2d_res =    6.28941887913907E-18
(PID.TID 0000.0001) // =======================================================
(PID.TID 0000.0001) // Begin MONITOR dynamic field statistics
(PID.TID 0000.0001) // =======================================================
(PID.TID 0000.0001) %MON time_tsnumber                =                 36008
(PID.TID 0000.0001) %MON time_secondsf                =   3.1110912000000E+09
(PID.TID 0000.0001) %MON dynstat_eta_max              =   1.6150658785888E+00
(PID.TID 0000.0001) %MON dynstat_eta_min              =  -3.9258176950602E+00
(PID.TID 0000.0001) %MON dynstat_eta_mean             =  -2.9783971202332E-16
(PID.TID 0000.0001) %MON dynstat_eta_sd               =   1.6492866507541E+00
(PID.TID 0000.0001) %MON dynstat_eta_del2             =   1.3946640354395E-02
(PID.TID 0000.0001) %MON dynstat_uvel_max             =   1.4293655935842E-01
(PID.TID 0000.0001) %MON dynstat_uvel_min             =  -3.8630918398132E-01
(PID.TID 0000.0001) %MON dynstat_uvel_mean            =   1.2766947063474E-02
(PID.TID 0000.0001) %MON dynstat_uvel_sd              =   3.8746092449148E-02
(PID.TID 0000.0001) %MON dynstat_uvel_del2            =   6.1895007507206E-04
(PID.TID 0000.0001) %MON dynstat_vvel_max             =   2.3126209242203E-02
(PID.TID 0000.0001) %MON dynstat_vvel_min             =  -2.3126209242168E-02
(PID.TID 0000.0001) %MON dynstat_vvel_mean            =   1.2564570129783E-15
(PID.TID 0000.0001) %MON dynstat_vvel_sd              =   1.5598732293331E-03
(PID.TID 0000.0001) %MON dynstat_vvel_del2            =   7.2978722555598E-05
(PID.TID 0000.0001) %MON dynstat_wvel_max             =   1.2356041003036E-06
(PID.TID 0000.0001) %MON dynstat_wvel_min             =  -1.0980354032388E-06
(PID.TID 0000.0001) %MON dynstat_wvel_mean            =   1.7569613428606E-23
(PID.TID 0000.0001) %MON dynstat_wvel_sd              =   3.4119219608368E-07
(PID.TID 0000.0001) %MON dynstat_wvel_del2            =   3.6906921152154E-08
(PID.TID 0000.0001) %MON dynstat_theta_max            =   2.6671706194627E+01
(PID.TID 0000.0001) %MON dynstat_theta_min            =  -9.3076409073070E-01
(PID.TID 0000.0001) %MON dynstat_theta_mean           =   2.2242565513708E+00
(PID.TID 0000.0001) %MON dynstat_theta_sd             =   3.9277056571935E+00
(PID.TID 0000.0001) %MON dynstat_theta_del2           =   4.1683148801345E-02
(PID.TID 0000.0001) %MON dynstat_salt_max             =   3.4700000000000E+01
(PID.TID 0000.0001) %MON dynstat_salt_min             =   3.4700000000000E+01
(PID.TID 0000.0001) %MON dynstat_salt_mean            =   3.4700000000000E+01
(PID.TID 0000.0001) %MON dynstat_salt_sd              =   7.1054273576010E-15
(PID.TID 0000.0001) %MON dynstat_salt_del2            =   0.0000000000000E+00
(PID.TID 0000.0001) %MON advcfl_uvel_max              =   1.0010587550752E-01
(PID.TID 0000.0001) %MON advcfl_vvel_max              =   5.9907354079408E-03
(PID.TID 0000.0001) %MON advcfl_wvel_max              =   3.2251110427546E-03
(PID.TID 0000.0001) %MON advcfl_W_hf_max              =   5.3378097133117E-03
(PID.TID 0000.0001) %MON pe_b_mean                    =   2.5658304554661E-03
(PID.TID 0000.0001) %MON ke_max                       =   7.4646842208149E-02
(PID.TID 0000.0001) %MON ke_mean                      =   8.3343365112806E-04
(PID.TID 0000.0001) %MON ke_vol                       =   2.1823819113454E+16
(PID.TID 0000.0001) %MON vort_r_min                   =  -1.7700915834568E-07
(PID.TID 0000.0001) %MON vort_r_max                   =   1.7700915834550E-07
(PID.TID 0000.0001) %MON vort_a_mean                  =   5.5722509112253E-21
(PID.TID 0000.0001) %MON vort_a_sd                    =   8.3264750524362E-05
(PID.TID 0000.0001) %MON vort_p_mean                  =   5.6069888336370E-21
(PID.TID 0000.0001) %MON vort_p_sd                    =   8.6550977019732E-05
(PID.TID 0000.0001) %MON surfExpan_theta_mean         =  -3.6948280329783E-06
(PID.TID 0000.0001) %MON surfExpan_salt_mean          =  -1.3314472676366E-21
(PID.TID 0000.0001) // =======================================================
(PID.TID 0000.0001) // End MONITOR dynamic field statistics
(PID.TID 0000.0001) // =======================================================
 cg2d: Sum(rhs),rhsMax =   7.10542735760100E-15  1.47836480832755E+00
(PID.TID 0000.0001)                    cg2d_init_res =    6.01715738548300E-03
(PID.TID 0000.0001)                       cg2d_iters =    27
(PID.TID 0000.0001)                         cg2d_res =    1.25796902177082E-17
(PID.TID 0000.0001) // =======================================================
(PID.TID 0000.0001) // Begin MONITOR dynamic field statistics
(PID.TID 0000.0001) // =======================================================
(PID.TID 0000.0001) %MON time_tsnumber                =                 36009
(PID.TID 0000.0001) %MON time_secondsf                =   3.1111776000000E+09
(PID.TID 0000.0001) %MON dynstat_eta_max              =   1.6147724283669E+00
(PID.TID 0000.0001) %MON dynstat_eta_min              =  -3.9231843378065E+00
(PID.TID 0000.0001) %MON dynstat_eta_mean             =  -3.7229964002914E-16
(PID.TID 0000.0001) %MON dynstat_eta_sd               =   1.6482944777249E+00
(PID.TID 0000.0001) %MON dynstat_eta_del2             =   1.3948412005978E-02
(PID.TID 0000.0001) %MON dynstat_uvel_max             =   1.4296609125392E-01
(PID.TID 0000.0001) %MON dynstat_uvel_min             =  -3.8630945189456E-01
(PID.TID 0000.0001) %MON dynstat_uvel_mean            =   1.2783921980516E-02
(PID.TID 0000.0001) %MON dynstat_uvel_sd              =   3.8751547733430E-02
(PID.TID 0000.0001) %MON dynstat_uvel_del2            =   6.1903756755272E-04
(PID.TID 0000.0001) %MON dynstat_vvel_max             =   2.3120993467754E-02
(PID.TID 0000.0001) %MON dynstat_vvel_min             =  -2.3120993467719E-02
(PID.TID 0000.0001) %MON dynstat_vvel_mean            =   1.0903861436873E-15
(PID.TID 0000.0001) %MON dynstat_vvel_sd              =   1.5585450801050E-03
(PID.TID 0000.0001) %MON dynstat_vvel_del2            =   7.2978788386344E-05
(PID.TID 0000.0001) %MON dynstat_wvel_max             =   1.1823708759239E-06
(PID.TID 0000.0001) %MON dynstat_wvel_min             =  -1.0682052749334E-06
(PID.TID 0000.0001) %MON dynstat_wvel_mean            =   5.8565378095355E-23
(PID.TID 0000.0001) %MON dynstat_wvel_sd              =   3.3008194943926E-07
(PID.TID 0000.0001) %MON dynstat_wvel_del2            =   3.6904811906283E-08
(PID.TID 0000.0001) %MON dynstat_theta_max            =   2.6674023215751E+01
(PID.TID 0000.0001) %MON dynstat_theta_min            =  -9.3076473829964E-01
(PID.TID 0000.0001) %MON dynstat_theta_mean           =   2.2243030994831E+00
(PID.TID 0000.0001) %MON dynstat_theta_sd             =   3.9278797361061E+00
(PID.TID 0000.0001) %MON dynstat_theta_del2           =   4.1675480555569E-02
(PID.TID 0000.0001) %MON dynstat_salt_max             =   3.4700000000000E+01
(PID.TID 0000.0001) %MON dynstat_salt_min             =   3.4700000000000E+01
(PID.TID 0000.0001) %MON dynstat_salt_mean            =   3.4700000000000E+01
(PID.TID 0000.0001) %MON dynstat_salt_sd              =   7.1054273576010E-15
(PID.TID 0000.0001) %MON dynstat_salt_del2            =   0.0000000000000E+00
(PID.TID 0000.0001) %MON advcfl_uvel_max              =   1.0010594493297E-01
(PID.TID 0000.0001) %MON advcfl_vvel_max              =   5.9893842861747E-03
(PID.TID 0000.0001) %MON advcfl_wvel_max              =   3.1600287043953E-03
(PID.TID 0000.0001) %MON advcfl_W_hf_max              =   5.1078421839912E-03
(PID.TID 0000.0001) %MON pe_b_mean                    =   2.5627442944979E-03
(PID.TID 0000.0001) %MON ke_max                       =   7.4646920734819E-02
(PID.TID 0000.0001) %MON ke_mean                      =   8.3385988601927E-04
(PID.TID 0000.0001) %MON ke_vol                       =   2.1823819113454E+16
(PID.TID 0000.0001) %MON vort_r_min                   =  -1.7701747722498E-07
(PID.TID 0000.0001) %MON vort_r_max                   =   1.7701747722481E-07
(PID.TID 0000.0001) %MON vort_a_mean                  =  -2.7861254556126E-21
(PID.TID 0000.0001) %MON vort_a_sd                    =   8.3264753830664E-05
(PID.TID 0000.0001) %MON vort_p_mean                  =  -2.8034944168185E-21
(PID.TID 0000.0001) %MON vort_p_sd                    =   8.6550980813206E-05
(PID.TID 0000.0001) %MON surfExpan_theta_mean         =  -3.4095392559731E-06
(PID.TID 0000.0001) %MON surfExpan_salt_mean          =   8.8763151175772E-22
(PID.TID 0000.0001) // =======================================================
(PID.TID 0000.0001) // End MONITOR dynamic field statistics
(PID.TID 0000.0001) // =======================================================
 cg2d: Sum(rhs),rhsMax =   1.06581410364015E-14  1.47818331408620E+00
(PID.TID 0000.0001)                    cg2d_init_res =    5.26762114258720E-03
(PID.TID 0000.0001)                       cg2d_iters =    27
(PID.TID 0000.0001)                         cg2d_res =    1.71081781989767E-17
(PID.TID 0000.0001) // =======================================================
(PID.TID 0000.0001) // Begin MONITOR dynamic field statistics
(PID.TID 0000.0001) // =======================================================
(PID.TID 0000.0001) %MON time_tsnumber                =                 36010
(PID.TID 0000.0001) %MON time_secondsf                =   3.1112640000000E+09
(PID.TID 0000.0001) %MON dynstat_eta_max              =   1.6145098704215E+00
(PID.TID 0000.0001) %MON dynstat_eta_min              =  -3.9208191209164E+00
(PID.TID 0000.0001) %MON dynstat_eta_mean             =  -2.2337978401749E-16
(PID.TID 0000.0001) %MON dynstat_eta_sd               =   1.6474257884379E+00
(PID.TID 0000.0001) %MON dynstat_eta_del2             =   1.3950125471208E-02
(PID.TID 0000.0001) %MON dynstat_uvel_max             =   1.4299217519923E-01
(PID.TID 0000.0001) %MON dynstat_uvel_min             =  -3.8630966439984E-01
(PID.TID 0000.0001) %MON dynstat_uvel_mean            =   1.2799098745574E-02
(PID.TID 0000.0001) %MON dynstat_uvel_sd              =   3.8756377643230E-02
(PID.TID 0000.0001) %MON dynstat_uvel_del2            =   6.1911487434731E-04
(PID.TID 0000.0001) %MON dynstat_vvel_max             =   2.3109701235415E-02
(PID.TID 0000.0001) %MON dynstat_vvel_min             =  -2.3109701235382E-02
(PID.TID 0000.0001) %MON dynstat_vvel_mean            =   1.7162772857069E-15
(PID.TID 0000.0001) %MON dynstat_vvel_sd              =   1.5566374823016E-03
(PID.TID 0000.0001) %MON dynstat_vvel_del2            =   7.2959137667771E-05
(PID.TID 0000.0001) %MON dynstat_wvel_max             =   1.1208043884191E-06
(PID.TID 0000.0001) %MON dynstat_wvel_min             =  -1.0202336206971E-06
(PID.TID 0000.0001) %MON dynstat_wvel_mean            =   1.1713075619071E-23
(PID.TID 0000.0001) %MON dynstat_wvel_sd              =   3.1367843677206E-07
(PID.TID 0000.0001) %MON dynstat_wvel_del2            =   3.6881925980516E-08
(PID.TID 0000.0001) %MON dynstat_theta_max            =   2.6675912557892E+01
(PID.TID 0000.0001) %MON dynstat_theta_min            =  -9.3076538692121E-01
(PID.TID 0000.0001) %MON dynstat_theta_mean           =   2.2243423687371E+00
(PID.TID 0000.0001) %MON dynstat_theta_sd             =   3.9280299218648E+00
(PID.TID 0000.0001) %MON dynstat_theta_del2           =   4.1669093712254E-02
(PID.TID 0000.0001) %MON dynstat_salt_max             =   3.4700000000000E+01
(PID.TID 0000.0001) %MON dynstat_salt_min             =   3.4700000000000E+01
(PID.TID 0000.0001) %MON dynstat_salt_mean            =   3.4700000000000E+01
(PID.TID 0000.0001) %MON dynstat_salt_sd              =   7.1054273576010E-15
(PID.TID 0000.0001) %MON dynstat_salt_del2            =   0.0000000000000E+00
(PID.TID 0000.0001) %MON advcfl_uvel_max              =   1.0010600000033E-01
(PID.TID 0000.0001) %MON advcfl_vvel_max              =   5.9864590866577E-03
(PID.TID 0000.0001) %MON advcfl_wvel_max              =   2.8382602719637E-03
(PID.TID 0000.0001) %MON advcfl_W_hf_max              =   4.8418749579703E-03
(PID.TID 0000.0001) %MON pe_b_mean                    =   2.5600437553562E-03
(PID.TID 0000.0001) %MON ke_max                       =   7.4646967204033E-02
(PID.TID 0000.0001) %MON ke_mean                      =   8.3423828321376E-04
(PID.TID 0000.0001) %MON ke_vol                       =   2.1823819113454E+16
(PID.TID 0000.0001) %MON vort_r_min                   =  -1.7702531049712E-07
(PID.TID 0000.0001) %MON vort_r_max                   =   1.7702531049694E-07
(PID.TID 0000.0001) %MON vort_a_mean                  =   5.5722509112253E-21
(PID.TID 0000.0001) %MON vort_a_sd                    =   8.3264756785460E-05
(PID.TID 0000.0001) %MON vort_p_mean                  =   5.6069888336370E-21
(PID.TID 0000.0001) %MON vort_p_sd                    =   8.6550984237528E-05
(PID.TID 0000.0001) %MON surfExpan_theta_mean         =  -2.9870279242270E-06
(PID.TID 0000.0001) %MON surfExpan_salt_mean          =   4.4381575587886E-22
(PID.TID 0000.0001) // =======================================================
(PID.TID 0000.0001) // End MONITOR dynamic field statistics
(PID.TID 0000.0001) // =======================================================
 Computing Diagnostic # 238  ETAN         Counter:    1      Parms: SM      M1      
 Computing Diagnostic # 239  ETANSQ       Counter:    1      Parms: SM      M1      
 Computing Diagnostic # 240  DETADT2      Counter:    1      Parms: SM      M1      
 Computing Diagnostic # 269  PHIBOT       Counter:    1      Parms: SM      M1      
 Computing Diagnostic # 270  PHIBOTSQ     Counter:    1      Parms: SM      M1      
 Computing Diagnostic # 271  DRHODR       Counter:   10      Parms: SM      LR      
 cg2d: Sum(rhs),rhsMax =   1.59872115546023E-14  1.47799637950121E+00
(PID.TID 0000.0001)                    cg2d_init_res =    4.29195825194219E-03
(PID.TID 0000.0001)                       cg2d_iters =    27
(PID.TID 0000.0001)                         cg2d_res =    7.91344218110952E-18
(PID.TID 0000.0001) // =======================================================
(PID.TID 0000.0001) // Begin MONITOR dynamic field statistics
(PID.TID 0000.0001) // =======================================================
(PID.TID 0000.0001) %MON time_tsnumber                =                 36011
(PID.TID 0000.0001) %MON time_secondsf                =   3.1113504000000E+09
(PID.TID 0000.0001) %MON dynstat_eta_max              =   1.6142605791673E+00
(PID.TID 0000.0001) %MON dynstat_eta_min              =  -3.9189040052124E+00
(PID.TID 0000.0001) %MON dynstat_eta_mean             =  -4.4675956803497E-16
(PID.TID 0000.0001) %MON dynstat_eta_sd               =   1.6467121893097E+00
(PID.TID 0000.0001) %MON dynstat_eta_del2             =   1.3951260587969E-02
(PID.TID 0000.0001) %MON dynstat_uvel_max             =   1.4301400804496E-01
(PID.TID 0000.0001) %MON dynstat_uvel_min             =  -3.8630979497832E-01
(PID.TID 0000.0001) %MON dynstat_uvel_mean            =   1.2811824875289E-02
(PID.TID 0000.0001) %MON dynstat_uvel_sd              =   3.8760380790154E-02
(PID.TID 0000.0001) %MON dynstat_uvel_del2            =   6.1917801889719E-04
(PID.TID 0000.0001) %MON dynstat_vvel_max             =   2.3093947847528E-02
(PID.TID 0000.0001) %MON dynstat_vvel_min             =  -2.3093947847496E-02
(PID.TID 0000.0001) %MON dynstat_vvel_mean            =   2.2873021680038E-15
(PID.TID 0000.0001) %MON dynstat_vvel_sd              =   1.5545395383974E-03
(PID.TID 0000.0001) %MON dynstat_vvel_del2            =   7.2927124733141E-05
(PID.TID 0000.0001) %MON dynstat_wvel_max             =   1.0533740918454E-06
(PID.TID 0000.0001) %MON dynstat_wvel_min             =  -9.5770525082499E-07
(PID.TID 0000.0001) %MON dynstat_wvel_mean            =   5.8565378095355E-24
(PID.TID 0000.0001) %MON dynstat_wvel_sd              =   2.9472377868331E-07
(PID.TID 0000.0001) %MON dynstat_wvel_del2            =   3.6852264414678E-08
(PID.TID 0000.0001) %MON dynstat_theta_max            =   2.6677265793339E+01
(PID.TID 0000.0001) %MON dynstat_theta_min            =  -9.3076603684823E-01
(PID.TID 0000.0001) %MON dynstat_theta_mean           =   2.2243724700740E+00
(PID.TID 0000.0001) %MON dynstat_theta_sd             =   3.9281501226675E+00
(PID.TID 0000.0001) %MON dynstat_theta_del2           =   4.1664407220347E-02
(PID.TID 0000.0001) %MON dynstat_salt_max             =   3.4700000000000E+01
(PID.TID 0000.0001) %MON dynstat_salt_min             =   3.4700000000000E+01
(PID.TID 0000.0001) %MON dynstat_salt_mean            =   3.4700000000000E+01
(PID.TID 0000.0001) %MON dynstat_salt_sd              =   7.1054273576010E-15
(PID.TID 0000.0001) %MON dynstat_salt_del2            =   0.0000000000000E+00
(PID.TID 0000.0001) %MON advcfl_uvel_max              =   1.0010603383767E-01
(PID.TID 0000.0001) %MON advcfl_vvel_max              =   5.9823782458410E-03
(PID.TID 0000.0001) %MON advcfl_wvel_max              =   2.2981388499384E-03
(PID.TID 0000.0001) %MON advcfl_W_hf_max              =   4.5505760767723E-03
(PID.TID 0000.0001) %MON pe_b_mean                    =   2.5578264180453E-03
(PID.TID 0000.0001) %MON ke_max                       =   7.4646973998253E-02
(PID.TID 0000.0001) %MON ke_mean                      =   8.3455318975097E-04
(PID.TID 0000.0001) %MON ke_vol                       =   2.1823819113454E+16
(PID.TID 0000.0001) %MON vort_r_min                   =  -1.7703237600108E-07
(PID.TID 0000.0001) %MON vort_r_max                   =   1.7703237600090E-07
(PID.TID 0000.0001) %MON vort_a_mean                  =  -8.3583763668379E-21
(PID.TID 0000.0001) %MON vort_a_sd                    =   8.3264759268904E-05
(PID.TID 0000.0001) %MON vort_p_mean                  =  -8.4104832504555E-21
(PID.TID 0000.0001) %MON vort_p_sd                    =   8.6550987131953E-05
(PID.TID 0000.0001) %MON surfExpan_theta_mean         =  -2.4479996563740E-06
(PID.TID 0000.0001) %MON surfExpan_salt_mean          =   6.6572363381829E-22
(PID.TID 0000.0001) // =======================================================
(PID.TID 0000.0001) // End MONITOR dynamic field statistics
(PID.TID 0000.0001) // =======================================================
 cg2d: Sum(rhs),rhsMax =   1.24344978758018E-14  1.47780677396420E+00
(PID.TID 0000.0001)                    cg2d_init_res =    3.16118962687735E-03
(PID.TID 0000.0001)                       cg2d_iters =    27
(PID.TID 0000.0001)                         cg2d_res =    5.34444004109507E-18
(PID.TID 0000.0001) // =======================================================
(PID.TID 0000.0001) // Begin MONITOR dynamic field statistics
(PID.TID 0000.0001) // =======================================================
(PID.TID 0000.0001) %MON time_tsnumber                =                 36012
(PID.TID 0000.0001) %MON time_secondsf                =   3.1114368000000E+09
(PID.TID 0000.0001) %MON dynstat_eta_max              =   1.6140286345283E+00
(PID.TID 0000.0001) %MON dynstat_eta_min              =  -3.9175648793008E+00
(PID.TID 0000.0001) %MON dynstat_eta_mean             =  -3.7229964002914E-16
(PID.TID 0000.0001) %MON dynstat_eta_sd               =   1.6461800957864E+00
(PID.TID 0000.0001) %MON dynstat_eta_del2             =   1.3951549158078E-02
(PID.TID 0000.0001) %MON dynstat_uvel_max             =   1.4303091105300E-01
(PID.TID 0000.0001) %MON dynstat_uvel_min             =  -3.8630982778410E-01
(PID.TID 0000.0001) %MON dynstat_uvel_mean            =   1.2821588557606E-02
(PID.TID 0000.0001) %MON dynstat_uvel_sd              =   3.8763394954962E-02
(PID.TID 0000.0001) %MON dynstat_uvel_del2            =   6.1922420536369E-04
(PID.TID 0000.0001) %MON dynstat_vvel_max             =   2.3075491681642E-02
(PID.TID 0000.0001) %MON dynstat_vvel_min             =  -2.3075491681613E-02
(PID.TID 0000.0001) %MON dynstat_vvel_mean            =   2.3891966503461E-15
(PID.TID 0000.0001) %MON dynstat_vvel_sd              =   1.5526561792380E-03
(PID.TID 0000.0001) %MON dynstat_vvel_del2            =   7.2910575976170E-05
(PID.TID 0000.0001) %MON dynstat_wvel_max             =   1.1258615683281E-06
(PID.TID 0000.0001) %MON dynstat_wvel_min             =  -8.8431011331247E-07
(PID.TID 0000.0001) %MON dynstat_wvel_mean            =  -2.9282689047677E-24
(PID.TID 0000.0001) %MON dynstat_wvel_sd              =   2.7665249029016E-07
(PID.TID 0000.0001) %MON dynstat_wvel_del2            =   3.6833231420031E-08
(PID.TID 0000.0001) %MON dynstat_theta_max            =   2.6678023086797E+01
(PID.TID 0000.0001) %MON dynstat_theta_min            =  -9.3076668818280E-01
(PID.TID 0000.0001) %MON dynstat_theta_mean           =   2.2243919344328E+00
(PID.TID 0000.0001) %MON dynstat_theta_sd             =   3.9282357465802E+00
(PID.TID 0000.0001) %MON dynstat_theta_del2           =   4.1661616777978E-02
(PID.TID 0000.0001) %MON dynstat_salt_max             =   3.4700000000000E+01
(PID.TID 0000.0001) %MON dynstat_salt_min             =   3.4700000000000E+01
(PID.TID 0000.0001) %MON dynstat_salt_mean            =   3.4700000000000E+01
(PID.TID 0000.0001) %MON dynstat_salt_sd              =   7.1054273576010E-15
(PID.TID 0000.0001) %MON dynstat_salt_del2            =   0.0000000000000E+00
(PID.TID 0000.0001) %MON advcfl_uvel_max              =   1.0010604233876E-01
(PID.TID 0000.0001) %MON advcfl_vvel_max              =   5.9775972631339E-03
(PID.TID 0000.0001) %MON advcfl_wvel_max              =   1.6212406583924E-03
(PID.TID 0000.0001) %MON advcfl_W_hf_max              =   4.8637219751773E-03
(PID.TID 0000.0001) %MON pe_b_mean                    =   2.5561736908807E-03
(PID.TID 0000.0001) %MON ke_max                       =   7.4646937964791E-02
(PID.TID 0000.0001) %MON ke_mean                      =   8.3479227718351E-04
(PID.TID 0000.0001) %MON ke_vol                       =   2.1823819113454E+16
(PID.TID 0000.0001) %MON vort_r_min                   =  -1.7703846088563E-07
(PID.TID 0000.0001) %MON vort_r_max                   =   1.7703846088546E-07
(PID.TID 0000.0001) %MON vort_a_mean                  =   2.7861254556126E-21
(PID.TID 0000.0001) %MON vort_a_sd                    =   8.3264761186337E-05
(PID.TID 0000.0001) %MON vort_p_mean                  =   2.8034944168185E-21
(PID.TID 0000.0001) %MON vort_p_sd                    =   8.6550989369290E-05
(PID.TID 0000.0001) %MON surfExpan_theta_mean         =  -1.8170245161970E-06
(PID.TID 0000.0001) %MON surfExpan_salt_mean          =   4.4381575587886E-22
(PID.TID 0000.0001) // =======================================================
(PID.TID 0000.0001) // End MONITOR dynamic field statistics
(PID.TID 0000.0001) // =======================================================
 cg2d: Sum(rhs),rhsMax =   1.24344978758018E-14  1.47763550217758E+00
(PID.TID 0000.0001)                    cg2d_init_res =    1.95188493903223E-03
(PID.TID 0000.0001)                       cg2d_iters =    27
(PID.TID 0000.0001)                         cg2d_res =    9.58787035934365E-18
(PID.TID 0000.0001) // =======================================================
(PID.TID 0000.0001) // Begin MONITOR dynamic field statistics
(PID.TID 0000.0001) // =======================================================
(PID.TID 0000.0001) %MON time_tsnumber                =                 36013
(PID.TID 0000.0001) %MON time_secondsf                =   3.1115232000000E+09
(PID.TID 0000.0001) %MON dynstat_eta_max              =   1.6138344336469E+00
(PID.TID 0000.0001) %MON dynstat_eta_min              =  -3.9168605244877E+00
(PID.TID 0000.0001) %MON dynstat_eta_mean             =  -4.4675956803497E-16
(PID.TID 0000.0001) %MON dynstat_eta_sd               =   1.6458494399045E+00
(PID.TID 0000.0001) %MON dynstat_eta_del2             =   1.3951003886872E-02
(PID.TID 0000.0001) %MON dynstat_uvel_max             =   1.4304233068585E-01
(PID.TID 0000.0001) %MON dynstat_uvel_min             =  -3.8630975735651E-01
(PID.TID 0000.0001) %MON dynstat_uvel_mean            =   1.2828041132313E-02
(PID.TID 0000.0001) %MON dynstat_uvel_sd              =   3.8765303095156E-02
(PID.TID 0000.0001) %MON dynstat_uvel_del2            =   6.1925194566673E-04
(PID.TID 0000.0001) %MON dynstat_vvel_max             =   2.3055992627005E-02
(PID.TID 0000.0001) %MON dynstat_vvel_min             =  -2.3055992626977E-02
(PID.TID 0000.0001) %MON dynstat_vvel_mean            =   2.2918027183405E-15
(PID.TID 0000.0001) %MON dynstat_vvel_sd              =   1.5513279075072E-03
(PID.TID 0000.0001) %MON dynstat_vvel_del2            =   7.2917490931424E-05
(PID.TID 0000.0001) %MON dynstat_wvel_max             =   1.2291243207742E-06
(PID.TID 0000.0001) %MON dynstat_wvel_min             =  -8.4391852063122E-07
(PID.TID 0000.0001) %MON dynstat_wvel_mean            =   2.9282689047677E-24
(PID.TID 0000.0001) %MON dynstat_wvel_sd              =   2.6282478502082E-07
(PID.TID 0000.0001) %MON dynstat_wvel_del2            =   3.6835776304072E-08
(PID.TID 0000.0001) %MON dynstat_theta_max            =   2.6678169802349E+01
(PID.TID 0000.0001) %MON dynstat_theta_min            =  -9.3076734085935E-01
(PID.TID 0000.0001) %MON dynstat_theta_mean           =   2.2243997686559E+00
(PID.TID 0000.0001) %MON dynstat_theta_sd             =   3.9282838927436E+00
(PID.TID 0000.0001) %MON dynstat_theta_del2           =   4.1660705375676E-02
(PID.TID 0000.0001) %MON dynstat_salt_max             =   3.4700000000000E+01
(PID.TID 0000.0001) %MON dynstat_salt_min             =   3.4700000000000E+01
(PID.TID 0000.0001) %MON dynstat_salt_mean            =   3.4700000000000E+01
(PID.TID 0000.0001) %MON dynstat_salt_sd              =   7.1054273576010E-15
(PID.TID 0000.0001) %MON dynstat_salt_del2            =   0.0000000000000E+00
(PID.TID 0000.0001) %MON advcfl_uvel_max              =   1.0010602408857E-01
(PID.TID 0000.0001) %MON advcfl_vvel_max              =   5.9725461250155E-03
(PID.TID 0000.0001) %MON advcfl_wvel_max              =   1.7699390219149E-03
(PID.TID 0000.0001) %MON advcfl_W_hf_max              =   5.3098170657447E-03
(PID.TID 0000.0001) %MON pe_b_mean                    =   2.5551469150347E-03
(PID.TID 0000.0001) %MON ke_max                       =   7.4646859865423E-02
(PID.TID 0000.0001) %MON ke_mean                      =   8.3494696352746E-04
(PID.TID 0000.0001) %MON ke_vol                       =   2.1823819113454E+16
(PID.TID 0000.0001) %MON vort_r_min                   =  -1.7704342807829E-07
(PID.TID 0000.0001) %MON vort_r_max                   =   1.7704342807812E-07
(PID.TID 0000.0001) %MON vort_a_mean                  =  -2.2289003644901E-20
(PID.TID 0000.0001) %MON vort_a_sd                    =   8.3264762471957E-05
(PID.TID 0000.0001) %MON vort_p_mean                  =  -2.2427955334548E-20
(PID.TID 0000.0001) %MON vort_p_sd                    =   8.6550990863512E-05
(PID.TID 0000.0001) %MON surfExpan_theta_mean         =  -1.1223731832030E-06
(PID.TID 0000.0001) %MON surfExpan_salt_mean          =   4.4381575587886E-22
(PID.TID 0000.0001) // =======================================================
(PID.TID 0000.0001) // End MONITOR dynamic field statistics
(PID.TID 0000.0001) // =======================================================
 cg2d: Sum(rhs),rhsMax =   1.24344978758018E-14  1.47751203235925E+00
(PID.TID 0000.0001)                    cg2d_init_res =    7.74648567519848E-04
(PID.TID 0000.0001)                       cg2d_iters =    27
(PID.TID 0000.0001)                         cg2d_res =    4.53575872056547E-18
(PID.TID 0000.0001) // =======================================================
(PID.TID 0000.0001) // Begin MONITOR dynamic field statistics
(PID.TID 0000.0001) // =======================================================
(PID.TID 0000.0001) %MON time_tsnumber                =                 36014
(PID.TID 0000.0001) %MON time_secondsf                =   3.1116096000000E+09
(PID.TID 0000.0001) %MON dynstat_eta_max              =   1.6137062400500E+00
(PID.TID 0000.0001) %MON dynstat_eta_min              =  -3.9167847329026E+00
(PID.TID 0000.0001) %MON dynstat_eta_mean             =  -3.7229964002914E-16
(PID.TID 0000.0001) %MON dynstat_eta_sd               =   1.6457321219948E+00
(PID.TID 0000.0001) %MON dynstat_eta_del2             =   1.3949878339604E-02
(PID.TID 0000.0001) %MON dynstat_uvel_max             =   1.4304786671802E-01
(PID.TID 0000.0001) %MON dynstat_uvel_min             =  -3.8630958693783E-01
(PID.TID 0000.0001) %MON dynstat_uvel_mean            =   1.2831007681477E-02
(PID.TID 0000.0001) %MON dynstat_uvel_sd              =   3.8766038309299E-02
(PID.TID 0000.0001) %MON dynstat_uvel_del2            =   6.1926101437688E-04
(PID.TID 0000.0001) %MON dynstat_vvel_max             =   2.3036852868141E-02
(PID.TID 0000.0001) %MON dynstat_vvel_min             =  -2.3036852868116E-02
(PID.TID 0000.0001) %MON dynstat_vvel_mean            =   2.4273259617545E-15
(PID.TID 0000.0001) %MON dynstat_vvel_sd              =   1.5507709821104E-03
(PID.TID 0000.0001) %MON dynstat_vvel_del2            =   7.2930940861011E-05
(PID.TID 0000.0001) %MON dynstat_wvel_max             =   1.3298288328179E-06
(PID.TID 0000.0001) %MON dynstat_wvel_min             =  -8.3937160834969E-07
(PID.TID 0000.0001) %MON dynstat_wvel_mean            =   4.3924033571516E-24
(PID.TID 0000.0001) %MON dynstat_wvel_sd              =   2.5564812542260E-07
(PID.TID 0000.0001) %MON dynstat_wvel_del2            =   3.6865541468342E-08
(PID.TID 0000.0001) %MON dynstat_theta_max            =   2.6677729228352E+01
(PID.TID 0000.0001) %MON dynstat_theta_min            =  -9.3076799468080E-01
(PID.TID 0000.0001) %MON dynstat_theta_mean           =   2.2243955017623E+00
(PID.TID 0000.0001) %MON dynstat_theta_sd             =   3.9282934259287E+00
(PID.TID 0000.0001) %MON dynstat_theta_del2           =   4.1661474039734E-02
(PID.TID 0000.0001) %MON dynstat_salt_max             =   3.4700000000000E+01
(PID.TID 0000.0001) %MON dynstat_salt_min             =   3.4700000000000E+01
(PID.TID 0000.0001) %MON dynstat_salt_mean            =   3.4700000000000E+01
(PID.TID 0000.0001) %MON dynstat_salt_sd              =   7.1054273576010E-15
(PID.TID 0000.0001) %MON dynstat_salt_del2            =   0.0000000000000E+00
(PID.TID 0000.0001) %MON advcfl_uvel_max              =   1.0010597992728E-01
(PID.TID 0000.0001) %MON advcfl_vvel_max              =   5.9675880607724E-03
(PID.TID 0000.0001) %MON advcfl_wvel_max              =   1.9149535192578E-03
(PID.TID 0000.0001) %MON advcfl_W_hf_max              =   5.7448605577734E-03
(PID.TID 0000.0001) %MON pe_b_mean                    =   2.5547826608035E-03
(PID.TID 0000.0001) %MON ke_max                       =   7.4646743426493E-02
(PID.TID 0000.0001) %MON ke_mean                      =   8.3501267157598E-04
(PID.TID 0000.0001) %MON ke_vol                       =   2.1823819113454E+16
(PID.TID 0000.0001) %MON vort_r_min                   =  -1.7704721468478E-07
(PID.TID 0000.0001) %MON vort_r_max                   =   1.7704721468460E-07
(PID.TID 0000.0001) %MON vort_a_mean                  =   5.5722509112253E-21
(PID.TID 0000.0001) %MON vort_a_sd                    =   8.3264763090909E-05
(PID.TID 0000.0001) %MON vort_p_mean                  =   5.6069888336370E-21
(PID.TID 0000.0001) %MON vort_p_sd                    =   8.6550991572916E-05
(PID.TID 0000.0001) %MON surfExpan_theta_mean         =  -3.9538154992264E-07
(PID.TID 0000.0001) %MON surfExpan_salt_mean          =   0.0000000000000E+00
(PID.TID 0000.0001) // =======================================================
(PID.TID 0000.0001) // End MONITOR dynamic field statistics
(PID.TID 0000.0001) // =======================================================
 cg2d: Sum(rhs),rhsMax =   1.06581410364015E-14  1.47746519083333E+00
(PID.TID 0000.0001)                    cg2d_init_res =    7.12562502817830E-04
(PID.TID 0000.0001)                       cg2d_iters =    27
(PID.TID 0000.0001)                         cg2d_res =    2.24798432552196E-17
(PID.TID 0000.0001) // =======================================================
(PID.TID 0000.0001) // Begin MONITOR dynamic field statistics
(PID.TID 0000.0001) // =======================================================
(PID.TID 0000.0001) %MON time_tsnumber                =                 36015
(PID.TID 0000.0001) %MON time_secondsf                =   3.1116960000000E+09
(PID.TID 0000.0001) %MON dynstat_eta_max              =   1.6136715922242E+00
(PID.TID 0000.0001) %MON dynstat_eta_min              =  -3.9172787412729E+00
(PID.TID 0000.0001) %MON dynstat_eta_mean             =  -3.7229964002914E-16
(PID.TID 0000.0001) %MON dynstat_eta_sd               =   1.6458305966901E+00
(PID.TID 0000.0001) %MON dynstat_eta_del2             =   1.3948571558825E-02
(PID.TID 0000.0001) %MON dynstat_uvel_max             =   1.4304731866748E-01
(PID.TID 0000.0001) %MON dynstat_uvel_min             =  -3.8630932608726E-01
(PID.TID 0000.0001) %MON dynstat_uvel_mean            =   1.2830486332878E-02
(PID.TID 0000.0001) %MON dynstat_uvel_sd              =   3.8765587195026E-02
(PID.TID 0000.0001) %MON dynstat_uvel_del2            =   6.1925229058965E-04
(PID.TID 0000.0001) %MON dynstat_vvel_max             =   2.3019144782221E-02
(PID.TID 0000.0001) %MON dynstat_vvel_min             =  -2.3019144782197E-02
(PID.TID 0000.0001) %MON dynstat_vvel_mean            =   2.5545104045836E-15
(PID.TID 0000.0001) %MON dynstat_vvel_sd              =   1.5510473277003E-03
(PID.TID 0000.0001) %MON dynstat_vvel_del2            =   7.2945839353627E-05
(PID.TID 0000.0001) %MON dynstat_wvel_max             =   1.4227472533071E-06
(PID.TID 0000.0001) %MON dynstat_wvel_min             =  -8.2731729306501E-07
(PID.TID 0000.0001) %MON dynstat_wvel_mean            =   1.2079109232167E-23
(PID.TID 0000.0001) %MON dynstat_wvel_sd              =   2.5588336566378E-07
(PID.TID 0000.0001) %MON dynstat_wvel_del2            =   3.6901009113412E-08
(PID.TID 0000.0001) %MON dynstat_theta_max            =   2.6676753458581E+01
(PID.TID 0000.0001) %MON dynstat_theta_min            =  -9.3076864936543E-01
(PID.TID 0000.0001) %MON dynstat_theta_mean           =   2.2243792129955E+00
(PID.TID 0000.0001) %MON dynstat_theta_sd             =   3.9282650097487E+00
(PID.TID 0000.0001) %MON dynstat_theta_del2           =   4.1663619032131E-02
(PID.TID 0000.0001) %MON dynstat_salt_max             =   3.4700000000000E+01
(PID.TID 0000.0001) %MON dynstat_salt_min             =   3.4700000000000E+01
(PID.TID 0000.0001) %MON dynstat_salt_mean            =   3.4700000000000E+01
(PID.TID 0000.0001) %MON dynstat_salt_sd              =   7.1054273576010E-15
(PID.TID 0000.0001) %MON dynstat_salt_del2            =   0.0000000000000E+00
(PID.TID 0000.0001) %MON advcfl_uvel_max              =   1.0010591233201E-01
(PID.TID 0000.0001) %MON advcfl_vvel_max              =   5.9630008646513E-03
(PID.TID 0000.0001) %MON advcfl_wvel_max              =   2.0487560447622E-03
(PID.TID 0000.0001) %MON advcfl_W_hf_max              =   6.1462681342866E-03
(PID.TID 0000.0001) %MON pe_b_mean                    =   2.5550884079752E-03
(PID.TID 0000.0001) %MON ke_max                       =   7.4646594273990E-02
(PID.TID 0000.0001) %MON ke_mean                      =   8.3498891842241E-04
(PID.TID 0000.0001) %MON ke_vol                       =   2.1823819113454E+16
(PID.TID 0000.0001) %MON vort_r_min                   =  -1.7704982515346E-07
(PID.TID 0000.0001) %MON vort_r_max                   =   1.7704982515328E-07
(PID.TID 0000.0001) %MON vort_a_mean                  =  -1.1144501822451E-20
(PID.TID 0000.0001) %MON vort_a_sd                    =   8.3264763039776E-05
(PID.TID 0000.0001) %MON vort_p_mean                  =  -1.1213977667274E-20
(PID.TID 0000.0001) %MON vort_p_sd                    =   8.6550991499132E-05
(PID.TID 0000.0001) %MON surfExpan_theta_mean         =   3.3071111592624E-07
(PID.TID 0000.0001) %MON surfExpan_salt_mean          =   3.0512333216672E-22
(PID.TID 0000.0001) // =======================================================
(PID.TID 0000.0001) // End MONITOR dynamic field statistics
(PID.TID 0000.0001) // =======================================================
 cg2d: Sum(rhs),rhsMax =   1.42108547152020E-14  1.47751620116501E+00
(PID.TID 0000.0001)                    cg2d_init_res =    1.78914070879250E-03
(PID.TID 0000.0001)                       cg2d_iters =    27
(PID.TID 0000.0001)                         cg2d_res =    1.16653514487762E-17
(PID.TID 0000.0001) // =======================================================
(PID.TID 0000.0001) // Begin MONITOR dynamic field statistics
(PID.TID 0000.0001) // =======================================================
(PID.TID 0000.0001) %MON time_tsnumber                =                 36016
(PID.TID 0000.0001) %MON time_secondsf                =   3.1117824000000E+09
(PID.TID 0000.0001) %MON dynstat_eta_max              =   1.6137503272747E+00
(PID.TID 0000.0001) %MON dynstat_eta_min              =  -3.9182494434483E+00
(PID.TID 0000.0001) %MON dynstat_eta_mean             =  -2.9783971202332E-16
(PID.TID 0000.0001) %MON dynstat_eta_sd               =   1.6461369680002E+00
(PID.TID 0000.0001) %MON dynstat_eta_del2             =   1.3947502177952E-02
(PID.TID 0000.0001) %MON dynstat_uvel_max             =   1.4304073434083E-01
(PID.TID 0000.0001) %MON dynstat_uvel_min             =  -3.8630898824418E-01
(PID.TID 0000.0001) %MON dynstat_uvel_mean            =   1.2826637930047E-02
(PID.TID 0000.0001) %MON dynstat_uvel_sd              =   3.8763990921587E-02
(PID.TID 0000.0001) %MON dynstat_uvel_del2            =   6.1922754424870E-04
(PID.TID 0000.0001) %MON dynstat_vvel_max             =   2.3003603626554E-02
(PID.TID 0000.0001) %MON dynstat_vvel_min             =  -2.3003603626531E-02
(PID.TID 0000.0001) %MON dynstat_vvel_mean            =   2.0252883868375E-15
(PID.TID 0000.0001) %MON dynstat_vvel_sd              =   1.5520650542026E-03
(PID.TID 0000.0001) %MON dynstat_vvel_del2            =   7.2964908936726E-05
(PID.TID 0000.0001) %MON dynstat_wvel_max             =   1.5045614675670E-06
(PID.TID 0000.0001) %MON dynstat_wvel_min             =  -8.0897021684713E-07
(PID.TID 0000.0001) %MON dynstat_wvel_mean            =   1.4641344523839E-24
(PID.TID 0000.0001) %MON dynstat_wvel_sd              =   2.6253671372083E-07
(PID.TID 0000.0001) %MON dynstat_wvel_del2            =   3.6919546621929E-08
(PID.TID 0000.0001) %MON dynstat_theta_max            =   2.6675314246972E+01
(PID.TID 0000.0001) %MON dynstat_theta_min            =  -9.3076930457675E-01
(PID.TID 0000.0001) %MON dynstat_theta_mean           =   2.2243515324986E+00
(PID.TID 0000.0001) %MON dynstat_theta_sd             =   3.9282010151551E+00
(PID.TID 0000.0001) %MON dynstat_theta_del2           =   4.1666840740177E-02
(PID.TID 0000.0001) %MON dynstat_salt_max             =   3.4700000000000E+01
(PID.TID 0000.0001) %MON dynstat_salt_min             =   3.4700000000000E+01
(PID.TID 0000.0001) %MON dynstat_salt_mean            =   3.4700000000000E+01
(PID.TID 0000.0001) %MON dynstat_salt_sd              =   7.1054273576010E-15
(PID.TID 0000.0001) %MON dynstat_salt_del2            =   0.0000000000000E+00
(PID.TID 0000.0001) %MON advcfl_uvel_max              =   1.0010582478535E-01
(PID.TID 0000.0001) %MON advcfl_vvel_max              =   5.9589750015901E-03
(PID.TID 0000.0001) %MON advcfl_wvel_max              =   2.1665685132964E-03
(PID.TID 0000.0001) %MON advcfl_W_hf_max              =   6.4997055398893E-03
(PID.TID 0000.0001) %MON pe_b_mean                    =   2.5560397557558E-03
(PID.TID 0000.0001) %MON ke_max                       =   7.4646418986003E-02
(PID.TID 0000.0001) %MON ke_mean                      =   8.3487922918684E-04
(PID.TID 0000.0001) %MON ke_vol                       =   2.1823819113454E+16
(PID.TID 0000.0001) %MON vort_r_min                   =  -1.7705132243308E-07
(PID.TID 0000.0001) %MON vort_r_max                   =   1.7705132243290E-07
(PID.TID 0000.0001) %MON vort_a_mean                  =   0.0000000000000E+00
(PID.TID 0000.0001) %MON vort_a_sd                    =   8.3264762345548E-05
(PID.TID 0000.0001) %MON vort_p_mean                  =   0.0000000000000E+00
(PID.TID 0000.0001) %MON vort_p_sd                    =   8.6550990682869E-05
(PID.TID 0000.0001) %MON surfExpan_theta_mean         =   1.0223721318681E-06
(PID.TID 0000.0001) %MON surfExpan_salt_mean          =   1.1095393896971E-22
(PID.TID 0000.0001) // =======================================================
(PID.TID 0000.0001) // End MONITOR dynamic field statistics
(PID.TID 0000.0001) // =======================================================
 cg2d: Sum(rhs),rhsMax =   1.42108547152020E-14  1.47767446319627E+00
(PID.TID 0000.0001)                    cg2d_init_res =    2.82283681891650E-03
(PID.TID 0000.0001)                       cg2d_iters =    27
(PID.TID 0000.0001)                         cg2d_res =    4.64158776450376E-18
(PID.TID 0000.0001) // =======================================================
(PID.TID 0000.0001) // Begin MONITOR dynamic field statistics
(PID.TID 0000.0001) // =======================================================
(PID.TID 0000.0001) %MON time_tsnumber                =                 36017
(PID.TID 0000.0001) %MON time_secondsf                =   3.1118688000000E+09
(PID.TID 0000.0001) %MON dynstat_eta_max              =   1.6139501378665E+00
(PID.TID 0000.0001) %MON dynstat_eta_min              =  -3.9195884522769E+00
(PID.TID 0000.0001) %MON dynstat_eta_mean             =  -4.4675956803497E-16
(PID.TID 0000.0001) %MON dynstat_eta_sd               =   1.6466328635899E+00
(PID.TID 0000.0001) %MON dynstat_eta_del2             =   1.3947003102413E-02
(PID.TID 0000.0001) %MON dynstat_uvel_max             =   1.4302844346102E-01
(PID.TID 0000.0001) %MON dynstat_uvel_min             =  -3.8630858868308E-01
(PID.TID 0000.0001) %MON dynstat_uvel_mean            =   1.2819768274522E-02
(PID.TID 0000.0001) %MON dynstat_uvel_sd              =   3.8761343442508E-02
(PID.TID 0000.0001) %MON dynstat_uvel_del2            =   6.1918920320325E-04
(PID.TID 0000.0001) %MON dynstat_vvel_max             =   2.2990681847653E-02
(PID.TID 0000.0001) %MON dynstat_vvel_min             =  -2.2990681847630E-02
(PID.TID 0000.0001) %MON dynstat_vvel_mean            =   1.5998220340792E-15
(PID.TID 0000.0001) %MON dynstat_vvel_sd              =   1.5536055035562E-03
(PID.TID 0000.0001) %MON dynstat_vvel_del2            =   7.2980770157373E-05
(PID.TID 0000.0001) %MON dynstat_wvel_max             =   1.5735048198101E-06
(PID.TID 0000.0001) %MON dynstat_wvel_min             =  -8.1250379815842E-07
(PID.TID 0000.0001) %MON dynstat_wvel_mean            =  -4.3924033571516E-24
(PID.TID 0000.0001) %MON dynstat_wvel_sd              =   2.7340462958700E-07
(PID.TID 0000.0001) %MON dynstat_wvel_del2            =   3.6918533633526E-08
(PID.TID 0000.0001) %MON dynstat_theta_max            =   2.6673495164254E+01
(PID.TID 0000.0001) %MON dynstat_theta_min            =  -9.3076995998047E-01
(PID.TID 0000.0001) %MON dynstat_theta_mean           =   2.2243136130662E+00
(PID.TID 0000.0001) %MON dynstat_theta_sd             =   3.9281053369742E+00
(PID.TID 0000.0001) %MON dynstat_theta_del2           =   4.1670852861505E-02
(PID.TID 0000.0001) %MON dynstat_salt_max             =   3.4700000000000E+01
(PID.TID 0000.0001) %MON dynstat_salt_min             =   3.4700000000000E+01
(PID.TID 0000.0001) %MON dynstat_salt_mean            =   3.4700000000000E+01
(PID.TID 0000.0001) %MON dynstat_salt_sd              =   7.1054273576010E-15
(PID.TID 0000.0001) %MON dynstat_salt_del2            =   0.0000000000000E+00
(PID.TID 0000.0001) %MON advcfl_uvel_max              =   1.0010572124546E-01
(PID.TID 0000.0001) %MON advcfl_vvel_max              =   5.9556276757235E-03
(PID.TID 0000.0001) %MON advcfl_wvel_max              =   2.2658469405265E-03
(PID.TID 0000.0001) %MON advcfl_W_hf_max              =   6.7975408215795E-03
(PID.TID 0000.0001) %MON pe_b_mean                    =   2.5575799918199E-03
(PID.TID 0000.0001) %MON ke_max                       =   7.4646224388457E-02
(PID.TID 0000.0001) %MON ke_mean                      =   8.3469087465996E-04
(PID.TID 0000.0001) %MON ke_vol                       =   2.1823819113454E+16
(PID.TID 0000.0001) %MON vort_r_min                   =  -1.7705181728604E-07
(PID.TID 0000.0001) %MON vort_r_max                   =   1.7705181728586E-07
(PID.TID 0000.0001) %MON vort_a_mean                  =   0.0000000000000E+00
(PID.TID 0000.0001) %MON vort_a_sd                    =   8.3264761063214E-05
(PID.TID 0000.0001) %MON vort_p_mean                  =   0.0000000000000E+00
(PID.TID 0000.0001) %MON vort_p_sd                    =   8.6550989197585E-05
(PID.TID 0000.0001) %MON surfExpan_theta_mean         =   1.6476522439466E-06
(PID.TID 0000.0001) %MON surfExpan_salt_mean          =  -4.4381575587886E-22
(PID.TID 0000.0001) // =======================================================
(PID.TID 0000.0001) // End MONITOR dynamic field statistics
(PID.TID 0000.0001) // =======================================================
 cg2d: Sum(rhs),rhsMax =   1.77635683940025E-14  1.47793608442149E+00
(PID.TID 0000.0001)                    cg2d_init_res =    3.71584662337048E-03
(PID.TID 0000.0001)                       cg2d_iters =    27
(PID.TID 0000.0001)                         cg2d_res =    5.48161240693990E-18
(PID.TID 0000.0001) // =======================================================
(PID.TID 0000.0001) // Begin MONITOR dynamic field statistics
(PID.TID 0000.0001) // =======================================================
(PID.TID 0000.0001) %MON time_tsnumber                =                 36018
(PID.TID 0000.0001) %MON time_secondsf                =   3.1119552000000E+09
(PID.TID 0000.0001) %MON dynstat_eta_max              =   1.6142649297388E+00
(PID.TID 0000.0001) %MON dynstat_eta_min              =  -3.9211878739116E+00
(PID.TID 0000.0001) %MON dynstat_eta_mean             =  -3.7229964002914E-16
(PID.TID 0000.0001) %MON dynstat_eta_sd               =   1.6472902027021E+00
(PID.TID 0000.0001) %MON dynstat_eta_del2             =   1.3947251920263E-02
(PID.TID 0000.0001) %MON dynstat_uvel_max             =   1.4301106480260E-01
(PID.TID 0000.0001) %MON dynstat_uvel_min             =  -3.8630814308865E-01
(PID.TID 0000.0001) %MON dynstat_uvel_mean            =   1.2810305217505E-02
(PID.TID 0000.0001) %MON dynstat_uvel_sd              =   3.8757786573840E-02
(PID.TID 0000.0001) %MON dynstat_uvel_del2            =   6.1914012919425E-04
(PID.TID 0000.0001) %MON dynstat_vvel_max             =   2.2980628451395E-02
(PID.TID 0000.0001) %MON dynstat_vvel_min             =  -2.2980628451372E-02
(PID.TID 0000.0001) %MON dynstat_vvel_mean            =   1.3703192508977E-15
(PID.TID 0000.0001) %MON dynstat_vvel_sd              =   1.5553697621034E-03
(PID.TID 0000.0001) %MON dynstat_vvel_del2            =   7.2995146708547E-05
(PID.TID 0000.0001) %MON dynstat_wvel_max             =   1.6288564019008E-06
(PID.TID 0000.0001) %MON dynstat_wvel_min             =  -8.1371742069901E-07
(PID.TID 0000.0001) %MON dynstat_wvel_mean            =  -1.7569613428606E-23
(PID.TID 0000.0001) %MON dynstat_wvel_sd              =   2.8585382963822E-07
(PID.TID 0000.0001) %MON dynstat_wvel_del2            =   3.6913851499407E-08
(PID.TID 0000.0001) %MON dynstat_theta_max            =   2.6671385807992E+01
(PID.TID 0000.0001) %MON dynstat_theta_min            =  -9.3077061527446E-01
(PID.TID 0000.0001) %MON dynstat_theta_mean           =   2.2242670708433E+00
(PID.TID 0000.0001) %MON dynstat_theta_sd             =   3.9279832026826E+00
(PID.TID 0000.0001) %MON dynstat_theta_del2           =   4.1675411476522E-02
(PID.TID 0000.0001) %MON dynstat_salt_max             =   3.4700000000000E+01
(PID.TID 0000.0001) %MON dynstat_salt_min             =   3.4700000000000E+01
(PID.TID 0000.0001) %MON dynstat_salt_mean            =   3.4700000000000E+01
(PID.TID 0000.0001) %MON dynstat_salt_sd              =   7.1054273576010E-15
(PID.TID 0000.0001) %MON dynstat_salt_del2            =   0.0000000000000E+00
(PID.TID 0000.0001) %MON advcfl_uvel_max              =   1.0010560577675E-01
(PID.TID 0000.0001) %MON advcfl_vvel_max              =   5.9530233908491E-03
(PID.TID 0000.0001) %MON advcfl_wvel_max              =   2.3455532187371E-03
(PID.TID 0000.0001) %MON advcfl_W_hf_max              =   7.0366596562113E-03
(PID.TID 0000.0001) %MON pe_b_mean                    =   2.5596223814345E-03
(PID.TID 0000.0001) %MON ke_max                       =   7.4646017132380E-02
(PID.TID 0000.0001) %MON ke_mean                      =   8.3443444347043E-04
(PID.TID 0000.0001) %MON ke_vol                       =   2.1823819113454E+16
(PID.TID 0000.0001) %MON vort_r_min                   =  -1.7705145747008E-07
(PID.TID 0000.0001) %MON vort_r_max                   =   1.7705145746990E-07
(PID.TID 0000.0001) %MON vort_a_mean                  =  -2.7861254556126E-21
(PID.TID 0000.0001) %MON vort_a_sd                    =   8.3264759272168E-05
(PID.TID 0000.0001) %MON vort_p_mean                  =  -2.8034944168185E-21
(PID.TID 0000.0001) %MON vort_p_sd                    =   8.6550987142284E-05
(PID.TID 0000.0001) %MON surfExpan_theta_mean         =   2.1781013538711E-06
(PID.TID 0000.0001) %MON surfExpan_salt_mean          =   0.0000000000000E+00
(PID.TID 0000.0001) // =======================================================
(PID.TID 0000.0001) // End MONITOR dynamic field statistics
(PID.TID 0000.0001) // =======================================================
 cg2d: Sum(rhs),rhsMax =   1.06581410364015E-14  1.47828481918087E+00
(PID.TID 0000.0001)                    cg2d_init_res =    4.42236993203569E-03
(PID.TID 0000.0001)                       cg2d_iters =    27
(PID.TID 0000.0001)                         cg2d_res =    5.30672080674398E-18
(PID.TID 0000.0001) // =======================================================
(PID.TID 0000.0001) // Begin MONITOR dynamic field statistics
(PID.TID 0000.0001) // =======================================================
(PID.TID 0000.0001) %MON time_tsnumber                =                 36019
(PID.TID 0000.0001) %MON time_secondsf                =   3.1120416000000E+09
(PID.TID 0000.0001) %MON dynstat_eta_max              =   1.6146757692139E+00
(PID.TID 0000.0001) %MON dynstat_eta_min              =  -3.9229502925800E+00
(PID.TID 0000.0001) %MON dynstat_eta_mean             =  -5.2121949604080E-16
(PID.TID 0000.0001) %MON dynstat_eta_sd               =   1.6480728107751E+00
(PID.TID 0000.0001) %MON dynstat_eta_del2             =   1.3948250268553E-02
(PID.TID 0000.0001) %MON dynstat_uvel_max             =   1.4298948211092E-01
(PID.TID 0000.0001) %MON dynstat_uvel_min             =  -3.8630766678600E-01
(PID.TID 0000.0001) %MON dynstat_uvel_mean            =   1.2798772591399E-02
(PID.TID 0000.0001) %MON dynstat_uvel_sd              =   3.8753502066346E-02
(PID.TID 0000.0001) %MON dynstat_uvel_del2            =   6.1908342026282E-04
(PID.TID 0000.0001) %MON dynstat_vvel_max             =   2.2973569470687E-02
(PID.TID 0000.0001) %MON dynstat_vvel_min             =  -2.2973569470663E-02
(PID.TID 0000.0001) %MON dynstat_vvel_mean            =   1.1154425784270E-15
(PID.TID 0000.0001) %MON dynstat_vvel_sd              =   1.5570358683919E-03
(PID.TID 0000.0001) %MON dynstat_vvel_del2            =   7.3007189155070E-05
(PID.TID 0000.0001) %MON dynstat_wvel_max             =   1.6704463528545E-06
(PID.TID 0000.0001) %MON dynstat_wvel_min             =  -8.2031234164802E-07
(PID.TID 0000.0001) %MON dynstat_wvel_mean            =  -1.1713075619071E-23
(PID.TID 0000.0001) %MON dynstat_wvel_sd              =   2.9742518288562E-07
(PID.TID 0000.0001) %MON dynstat_wvel_del2            =   3.6913860424975E-08
(PID.TID 0000.0001) %MON dynstat_theta_max            =   2.6669078055897E+01
(PID.TID 0000.0001) %MON dynstat_theta_min            =  -9.3077127022015E-01
(PID.TID 0000.0001) %MON dynstat_theta_mean           =   2.2242138980985E+00
(PID.TID 0000.0001) %MON dynstat_theta_sd             =   3.9278408976581E+00
(PID.TID 0000.0001) %MON dynstat_theta_del2           =   4.1680307391407E-02
(PID.TID 0000.0001) %MON dynstat_salt_max             =   3.4700000000000E+01
(PID.TID 0000.0001) %MON dynstat_salt_min             =   3.4700000000000E+01
(PID.TID 0000.0001) %MON dynstat_salt_mean            =   3.4700000000000E+01
(PID.TID 0000.0001) %MON dynstat_salt_sd              =   7.1054273576010E-15
(PID.TID 0000.0001) %MON dynstat_salt_del2            =   0.0000000000000E+00
(PID.TID 0000.0001) %MON advcfl_uvel_max              =   1.0010548235050E-01
(PID.TID 0000.0001) %MON advcfl_vvel_max              =   5.9511947951969E-03
(PID.TID 0000.0001) %MON advcfl_wvel_max              =   2.4054427481105E-03
(PID.TID 0000.0001) %MON advcfl_W_hf_max              =   7.2163282443315E-03
(PID.TID 0000.0001) %MON pe_b_mean                    =   2.5620550517438E-03
(PID.TID 0000.0001) %MON ke_max                       =   7.4645803523974E-02
(PID.TID 0000.0001) %MON ke_mean                      =   8.3412327027872E-04
(PID.TID 0000.0001) %MON ke_vol                       =   2.1823819113454E+16
(PID.TID 0000.0001) %MON vort_r_min                   =  -1.7705041777370E-07
(PID.TID 0000.0001) %MON vort_r_max                   =   1.7705041777352E-07
(PID.TID 0000.0001) %MON vort_a_mean                  =   2.5075129100514E-20
(PID.TID 0000.0001) %MON vort_a_sd                    =   8.3264757071678E-05
(PID.TID 0000.0001) %MON vort_p_mean                  =   2.5231449751367E-20
(PID.TID 0000.0001) %MON vort_p_sd                    =   8.6550984634384E-05
(PID.TID 0000.0001) %MON surfExpan_theta_mean         =   2.5904928198470E-06
(PID.TID 0000.0001) %MON surfExpan_salt_mean          =   1.1095393896971E-21
(PID.TID 0000.0001) // =======================================================
(PID.TID 0000.0001) // End MONITOR dynamic field statistics
(PID.TID 0000.0001) // =======================================================
 cg2d: Sum(rhs),rhsMax =   1.06581410364015E-14  1.47869500989179E+00
(PID.TID 0000.0001)                    cg2d_init_res =    4.90872426026282E-03
(PID.TID 0000.0001)                       cg2d_iters =    27
(PID.TID 0000.0001)                         cg2d_res =    8.52051276928900E-18
(PID.TID 0000.0001) // =======================================================
(PID.TID 0000.0001) // Begin MONITOR dynamic field statistics
(PID.TID 0000.0001) // =======================================================
(PID.TID 0000.0001) %MON time_tsnumber                =                 36020
(PID.TID 0000.0001) %MON time_secondsf                =   3.1121280000000E+09
(PID.TID 0000.0001) %MON dynstat_eta_max              =   1.6151538730270E+00
(PID.TID 0000.0001) %MON dynstat_eta_min              =  -3.9247924316382E+00
(PID.TID 0000.0001) %MON dynstat_eta_mean             =  -3.7229964002914E-16
(PID.TID 0000.0001) %MON dynstat_eta_sd               =   1.6489387001938E+00
(PID.TID 0000.0001) %MON dynstat_eta_del2             =   1.3949846098811E-02
(PID.TID 0000.0001) %MON dynstat_uvel_max             =   1.4296479159693E-01
(PID.TID 0000.0001) %MON dynstat_uvel_min             =  -3.8630717450090E-01
(PID.TID 0000.0001) %MON dynstat_uvel_mean            =   1.2785762503347E-02
(PID.TID 0000.0001) %MON dynstat_uvel_sd              =   3.8748701211276E-02
(PID.TID 0000.0001) %MON dynstat_uvel_del2            =   6.1902224809644E-04
(PID.TID 0000.0001) %MON dynstat_vvel_max             =   2.2969570536771E-02
(PID.TID 0000.0001) %MON dynstat_vvel_min             =  -2.2969570536746E-02
(PID.TID 0000.0001) %MON dynstat_vvel_mean            =   1.1972587628565E-15
(PID.TID 0000.0001) %MON dynstat_vvel_sd              =   1.5583167373779E-03
(PID.TID 0000.0001) %MON dynstat_vvel_del2            =   7.3013943066479E-05
(PID.TID 0000.0001) %MON dynstat_wvel_max             =   1.6982783594854E-06
(PID.TID 0000.0001) %MON dynstat_wvel_min             =  -8.2752779636110E-07
(PID.TID 0000.0001) %MON dynstat_wvel_mean            =  -1.4641344523839E-23
(PID.TID 0000.0001) %MON dynstat_wvel_sd              =   3.0617323483013E-07
(PID.TID 0000.0001) %MON dynstat_wvel_del2            =   3.6913784324622E-08
(PID.TID 0000.0001) %MON dynstat_theta_max            =   2.6666663937898E+01
(PID.TID 0000.0001) %MON dynstat_theta_min            =  -9.3077192462642E-01
(PID.TID 0000.0001) %MON dynstat_theta_mean           =   2.2241563541312E+00
(PID.TID 0000.0001) %MON dynstat_theta_sd             =   3.9276854599466E+00
(PID.TID 0000.0001) %MON dynstat_theta_del2           =   4.1685350116699E-02
(PID.TID 0000.0001) %MON dynstat_salt_max             =   3.4700000000000E+01
(PID.TID 0000.0001) %MON dynstat_salt_min             =   3.4700000000000E+01
(PID.TID 0000.0001) %MON dynstat_salt_mean            =   3.4700000000000E+01
(PID.TID 0000.0001) %MON dynstat_salt_sd              =   7.1054273576010E-15
(PID.TID 0000.0001) %MON dynstat_salt_del2            =   0.0000000000000E+00
(PID.TID 0000.0001) %MON advcfl_uvel_max              =   1.0010535478266E-01
(PID.TID 0000.0001) %MON advcfl_vvel_max              =   5.9501588902307E-03
(PID.TID 0000.0001) %MON advcfl_wvel_max              =   2.4455208376590E-03
(PID.TID 0000.0001) %MON advcfl_W_hf_max              =   7.3365625129771E-03
(PID.TID 0000.0001) %MON pe_b_mean                    =   2.5647479414365E-03
(PID.TID 0000.0001) %MON ke_max                       =   7.4645589526600E-02
(PID.TID 0000.0001) %MON ke_mean                      =   8.3377274951313E-04
(PID.TID 0000.0001) %MON ke_vol                       =   2.1823819113454E+16
(PID.TID 0000.0001) %MON vort_r_min                   =  -1.7704889120245E-07
(PID.TID 0000.0001) %MON vort_r_max                   =   1.7704889120227E-07
(PID.TID 0000.0001) %MON vort_a_mean                  =   5.5722509112253E-21
(PID.TID 0000.0001) %MON vort_a_sd                    =   8.3264754575650E-05
(PID.TID 0000.0001) %MON vort_p_mean                  =   5.6069888336370E-21
(PID.TID 0000.0001) %MON vort_p_sd                    =   8.6550981803266E-05
(PID.TID 0000.0001) %MON surfExpan_theta_mean         =   2.8681647002546E-06
(PID.TID 0000.0001) %MON surfExpan_salt_mean          =   0.0000000000000E+00
(PID.TID 0000.0001) // =======================================================
(PID.TID 0000.0001) // End MONITOR dynamic field statistics
(PID.TID 0000.0001) // =======================================================
 Computing Diagnostic # 238  ETAN         Counter:    1      Parms: SM      M1      
 Computing Diagnostic # 239  ETANSQ       Counter:    1      Parms: SM      M1      
 Computing Diagnostic # 240  DETADT2      Counter:    1      Parms: SM      M1      
 Computing Diagnostic # 269  PHIBOT       Counter:    1      Parms: SM      M1      
 Computing Diagnostic # 270  PHIBOTSQ     Counter:    1      Parms: SM      M1      
 Computing Diagnostic # 243  UVEL         Counter:   20      Parms: UU   244MR      
           Vector  Mate for  UVEL         Diagnostic # 244  VVEL     exists 
 Computing Diagnostic # 244  VVEL         Counter:   20      Parms: VV   243MR      
           Vector  Mate for  VVEL         Diagnostic # 243  UVEL     exists 
 Computing Diagnostic # 245  WVEL         Counter:   20      Parms: WM      LR      
 Computing Diagnostic # 268  PHIHYD       Counter:   20      Parms: SM      MR      
 Computing Diagnostic # 252  UVELMASS     Counter:   20      Parms: UU   253MR      
           Vector  Mate for  UVELMASS     Diagnostic # 253  VVELMASS exists 
 Computing Diagnostic # 253  VVELMASS     Counter:   20      Parms: VV   252MR      
           Vector  Mate for  VVELMASS     Diagnostic # 252  UVELMASS exists 
 Computing Diagnostic # 248  UVELSQ       Counter:   20      Parms: UU   249MR      
           Vector  Mate for  UVELSQ       Diagnostic # 249  VVELSQ   exists 
 Computing Diagnostic # 249  VVELSQ       Counter:   20      Parms: VV   248MR      
           Vector  Mate for  VVELSQ       Diagnostic # 248  UVELSQ   exists 
 Computing Diagnostic # 251  UVELVVEL     Counter:   20      Parms: UZ   251MR      
           Vector  Mate for  UVELVVEL     Diagnostic # 251  UVELVVEL exists 
 Computing Diagnostic # 246  THETASQ      Counter:   20      Parms: SM      MR      
 Computing Diagnostic # 241  THETA        Counter:   20      Parms: SM      MR      
 Computing Diagnostic # 255  UTHMASS      Counter:   20      Parms: UU   256MR      
           Vector  Mate for  UTHMASS      Diagnostic # 256  VTHMASS  exists 
 Computing Diagnostic # 256  VTHMASS      Counter:   20      Parms: VV   255MR      
           Vector  Mate for  VTHMASS      Diagnostic # 255  UTHMASS  exists 
 Computing Diagnostic # 263  WVELTH       Counter:   20      Parms: WM      MR      
 Computing Diagnostic # 271  DRHODR       Counter:   10      Parms: SM      LR      
 Computing Diagnostic # 282  ADVx_TH      Counter:   20      Parms: UU   283MR      
           Vector  Mate for  ADVx_TH      Diagnostic # 283  ADVy_TH  exists 
 Computing Diagnostic # 283  ADVy_TH      Counter:   20      Parms: VV   282MR      
           Vector  Mate for  ADVy_TH      Diagnostic # 282  ADVx_TH  exists 
 Computing Diagnostic # 281  ADVr_TH      Counter:   20      Parms: WM      LR      
 Computing Diagnostic # 285  DIFx_TH      Counter:   20      Parms: UU   286MR      
           Vector  Mate for  DIFx_TH      Diagnostic # 286  DIFy_TH  exists 
 Computing Diagnostic # 286  DIFy_TH      Counter:   20      Parms: VV   285MR      
           Vector  Mate for  DIFy_TH      Diagnostic # 285  DIFx_TH  exists 
 Computing Diagnostic # 284  DFrE_TH      Counter:   20      Parms: WM      LR      
 Computing Diagnostic # 287  DFrI_TH      Counter:   20      Parms: WM      LR      
(PID.TID 0000.0001) %CHECKPOINT     36020 ckptA
(PID.TID 0000.0001)   Seconds in section "ALL                    [THE_MODEL_MAIN]":
(PID.TID 0000.0001)           User time:  1.34000003
(PID.TID 0000.0001)         System time:  0.180000007
(PID.TID 0000.0001)     Wall clock time:  1.6197691
(PID.TID 0000.0001)          No. starts: 1
(PID.TID 0000.0001)           No. stops: 1
(PID.TID 0000.0001)   Seconds in section "INITIALISE_FIXED       [THE_MODEL_MAIN]":
(PID.TID 0000.0001)           User time:  0.0500000007
(PID.TID 0000.0001)         System time:  0.0399999991
(PID.TID 0000.0001)     Wall clock time:  0.128140211
(PID.TID 0000.0001)          No. starts: 1
(PID.TID 0000.0001)           No. stops: 1
(PID.TID 0000.0001)   Seconds in section "THE_MAIN_LOOP          [THE_MODEL_MAIN]":
(PID.TID 0000.0001)           User time:  1.28000004
(PID.TID 0000.0001)         System time:  0.110000007
(PID.TID 0000.0001)     Wall clock time:  1.44048905
(PID.TID 0000.0001)          No. starts: 1
(PID.TID 0000.0001)           No. stops: 1
(PID.TID 0000.0001)   Seconds in section "INITIALISE_VARIA    [THE_MAIN_LOOP]":
(PID.TID 0000.0001)           User time:  0.0400000028
(PID.TID 0000.0001)         System time:  0.0100000016
(PID.TID 0000.0001)     Wall clock time:  0.070278883
(PID.TID 0000.0001)          No. starts: 1
(PID.TID 0000.0001)           No. stops: 1
(PID.TID 0000.0001)   Seconds in section "MONITOR             [THE_MAIN_LOOP]":
(PID.TID 0000.0001)           User time:  0.00999999791
(PID.TID 0000.0001)         System time:  0.
(PID.TID 0000.0001)     Wall clock time:  0.00322508812
(PID.TID 0000.0001)          No. starts: 1
(PID.TID 0000.0001)           No. stops: 1
(PID.TID 0000.0001)   Seconds in section "DO_THE_MODEL_IO     [THE_MAIN_LOOP]":
(PID.TID 0000.0001)           User time:  0.
(PID.TID 0000.0001)         System time:  0.00999999791
(PID.TID 0000.0001)     Wall clock time:  0.0257110596
(PID.TID 0000.0001)          No. starts: 1
(PID.TID 0000.0001)           No. stops: 1
(PID.TID 0000.0001)   Seconds in section "MAIN LOOP           [THE_MAIN_LOOP]":
(PID.TID 0000.0001)           User time:  1.23000004
(PID.TID 0000.0001)         System time:  0.0900000073
(PID.TID 0000.0001)     Wall clock time:  1.34112287
(PID.TID 0000.0001)          No. starts: 1
(PID.TID 0000.0001)           No. stops: 1
(PID.TID 0000.0001)   Seconds in section "FORWARD_STEP        [THE_MAIN_LOOP]":
(PID.TID 0000.0001)           User time:  1.23000004
(PID.TID 0000.0001)         System time:  0.0900000073
(PID.TID 0000.0001)     Wall clock time:  1.34051394
(PID.TID 0000.0001)          No. starts: 20
(PID.TID 0000.0001)           No. stops: 20
(PID.TID 0000.0001)   Seconds in section "EXTERNAL_FIELDS_LOAD[FORWARD_STEP]":
(PID.TID 0000.0001)           User time:  0.
(PID.TID 0000.0001)         System time:  0.
(PID.TID 0000.0001)     Wall clock time:  0.000578165054
(PID.TID 0000.0001)          No. starts: 20
(PID.TID 0000.0001)           No. stops: 20
(PID.TID 0000.0001)   Seconds in section "DO_ATMOSPHERIC_PHYS [FORWARD_STEP]":
(PID.TID 0000.0001)           User time:  0.
(PID.TID 0000.0001)         System time:  0.
(PID.TID 0000.0001)     Wall clock time:  0.000575065613
(PID.TID 0000.0001)          No. starts: 20
(PID.TID 0000.0001)           No. stops: 20
(PID.TID 0000.0001)   Seconds in section "DO_OCEANIC_PHYS     [FORWARD_STEP]":
(PID.TID 0000.0001)           User time:  0.220000125
(PID.TID 0000.0001)         System time:  0.
(PID.TID 0000.0001)     Wall clock time:  0.238958836
(PID.TID 0000.0001)          No. starts: 20
(PID.TID 0000.0001)           No. stops: 20
(PID.TID 0000.0001)   Seconds in section "DYNAMICS            [FORWARD_STEP]":
(PID.TID 0000.0001)           User time:  0.340000257
(PID.TID 0000.0001)         System time:  0.
(PID.TID 0000.0001)     Wall clock time:  0.297632456
(PID.TID 0000.0001)          No. starts: 20
(PID.TID 0000.0001)           No. stops: 20
(PID.TID 0000.0001)   Seconds in section "SOLVE_FOR_PRESSURE  [FORWARD_STEP]":
(PID.TID 0000.0001)           User time:  0.0399999619
(PID.TID 0000.0001)         System time:  0.
(PID.TID 0000.0001)     Wall clock time:  0.0639276505
(PID.TID 0000.0001)          No. starts: 20
(PID.TID 0000.0001)           No. stops: 20
(PID.TID 0000.0001)   Seconds in section "UV_CORRECTION_STEP  [FORWARD_STEP]":
(PID.TID 0000.0001)           User time:  0.
(PID.TID 0000.0001)         System time:  0.
(PID.TID 0000.0001)     Wall clock time:  0.0177710056
(PID.TID 0000.0001)          No. starts: 20
(PID.TID 0000.0001)           No. stops: 20
(PID.TID 0000.0001)   Seconds in section "UPDATE_ETAH        [FORWARD_STEP]":
(PID.TID 0000.0001)           User time:  0.
(PID.TID 0000.0001)         System time:  0.
(PID.TID 0000.0001)     Wall clock time:  0.000945568085
(PID.TID 0000.0001)          No. starts: 20
(PID.TID 0000.0001)           No. stops: 20
(PID.TID 0000.0001)   Seconds in section "BLOCKING_EXCHANGES  [FORWARD_STEP]":
(PID.TID 0000.0001)           User time:  0.0799999386
(PID.TID 0000.0001)         System time:  0.
(PID.TID 0000.0001)     Wall clock time:  0.0762267113
(PID.TID 0000.0001)          No. starts: 40
(PID.TID 0000.0001)           No. stops: 40
(PID.TID 0000.0001)   Seconds in section "THERMODYNAMICS      [FORWARD_STEP]":
(PID.TID 0000.0001)           User time:  0.359999746
(PID.TID 0000.0001)         System time:  0.
(PID.TID 0000.0001)     Wall clock time:  0.349950552
(PID.TID 0000.0001)          No. starts: 20
(PID.TID 0000.0001)           No. stops: 20
(PID.TID 0000.0001)   Seconds in section "TS_CORRECTION_STEP  [FORWARD_STEP]":
(PID.TID 0000.0001)           User time:  0.
(PID.TID 0000.0001)         System time:  0.
(PID.TID 0000.0001)     Wall clock time:  0.00428247452
(PID.TID 0000.0001)          No. starts: 20
(PID.TID 0000.0001)           No. stops: 20
(PID.TID 0000.0001)   Seconds in section "DO_STATEVARS_DIAGS  [FORWARD_STEP]":
(PID.TID 0000.0001)           User time:  0.0799999684
(PID.TID 0000.0001)         System time:  0.
(PID.TID 0000.0001)     Wall clock time:  0.0609331131
(PID.TID 0000.0001)          No. starts: 20
(PID.TID 0000.0001)           No. stops: 20
(PID.TID 0000.0001)   Seconds in section "MONITOR             [FORWARD_STEP]":
(PID.TID 0000.0001)           User time:  0.0799999535
(PID.TID 0000.0001)         System time:  0.
(PID.TID 0000.0001)     Wall clock time:  0.063429594
(PID.TID 0000.0001)          No. starts: 20
(PID.TID 0000.0001)           No. stops: 20
(PID.TID 0000.0001)   Seconds in section "DO_THE_MODEL_IO     [FORWARD_STEP]":
(PID.TID 0000.0001)           User time:  0.0300000906
(PID.TID 0000.0001)         System time:  0.0900000073
(PID.TID 0000.0001)     Wall clock time:  0.155261993
(PID.TID 0000.0001)          No. starts: 20
(PID.TID 0000.0001)           No. stops: 20
(PID.TID 0000.0001)   Seconds in section "WRITE_CHECKPOINT    [FORWARD_STEP]":
(PID.TID 0000.0001)           User time:  0.
(PID.TID 0000.0001)         System time:  0.
(PID.TID 0000.0001)     Wall clock time:  0.000594854355
(PID.TID 0000.0001)          No. starts: 20
(PID.TID 0000.0001)           No. stops: 20
(PID.TID 0000.0001)   Seconds in section "WRITE_CHECKPOINT       [THE_MODEL_MAIN]":
(PID.TID 0000.0001)           User time:  0.00999999046
(PID.TID 0000.0001)         System time:  0.0300000012
(PID.TID 0000.0001)     Wall clock time:  0.0510017872
(PID.TID 0000.0001)          No. starts: 1
(PID.TID 0000.0001)           No. stops: 1
(PID.TID 0000.0001) // ======================================================
(PID.TID 0000.0001) // Tile <-> Tile communication statistics
(PID.TID 0000.0001) // ======================================================
(PID.TID 0000.0001) // o Tile number: 000001
(PID.TID 0000.0001) //         No. X exchanges =              0
(PID.TID 0000.0001) //            Max. X spins =              0
(PID.TID 0000.0001) //            Min. X spins =     1000000000
(PID.TID 0000.0001) //          Total. X spins =              0
(PID.TID 0000.0001) //            Avg. X spins =       0.00E+00
(PID.TID 0000.0001) //         No. Y exchanges =              0
(PID.TID 0000.0001) //            Max. Y spins =              0
(PID.TID 0000.0001) //            Min. Y spins =     1000000000
(PID.TID 0000.0001) //          Total. Y spins =              0
(PID.TID 0000.0001) //            Avg. Y spins =       0.00E+00
(PID.TID 0000.0001) // o Tile number: 000002
(PID.TID 0000.0001) //         No. X exchanges =              0
(PID.TID 0000.0001) //            Max. X spins =              0
(PID.TID 0000.0001) //            Min. X spins =     1000000000
(PID.TID 0000.0001) //          Total. X spins =              0
(PID.TID 0000.0001) //            Avg. X spins =       0.00E+00
(PID.TID 0000.0001) //         No. Y exchanges =              0
(PID.TID 0000.0001) //            Max. Y spins =              0
(PID.TID 0000.0001) //            Min. Y spins =     1000000000
(PID.TID 0000.0001) //          Total. Y spins =              0
(PID.TID 0000.0001) //            Avg. Y spins =       0.00E+00
(PID.TID 0000.0001) // o Tile number: 000003
(PID.TID 0000.0001) //         No. X exchanges =              0
(PID.TID 0000.0001) //            Max. X spins =              0
(PID.TID 0000.0001) //            Min. X spins =     1000000000
(PID.TID 0000.0001) //          Total. X spins =              0
(PID.TID 0000.0001) //            Avg. X spins =       0.00E+00
(PID.TID 0000.0001) //         No. Y exchanges =              0
(PID.TID 0000.0001) //            Max. Y spins =              0
(PID.TID 0000.0001) //            Min. Y spins =     1000000000
(PID.TID 0000.0001) //          Total. Y spins =              0
(PID.TID 0000.0001) //            Avg. Y spins =       0.00E+00
(PID.TID 0000.0001) // o Tile number: 000004
(PID.TID 0000.0001) //         No. X exchanges =              0
(PID.TID 0000.0001) //            Max. X spins =              0
(PID.TID 0000.0001) //            Min. X spins =     1000000000
(PID.TID 0000.0001) //          Total. X spins =              0
(PID.TID 0000.0001) //            Avg. X spins =       0.00E+00
(PID.TID 0000.0001) //         No. Y exchanges =              0
(PID.TID 0000.0001) //            Max. Y spins =              0
(PID.TID 0000.0001) //            Min. Y spins =     1000000000
(PID.TID 0000.0001) //          Total. Y spins =              0
(PID.TID 0000.0001) //            Avg. Y spins =       0.00E+00
(PID.TID 0000.0001) // o Thread number: 000001
(PID.TID 0000.0001) //            No. barriers =          13186
(PID.TID 0000.0001) //      Max. barrier spins =              1
(PID.TID 0000.0001) //      Min. barrier spins =              1
(PID.TID 0000.0001) //     Total barrier spins =          13186
(PID.TID 0000.0001) //      Avg. barrier spins =       1.00E+00
