(PID.TID 0000.0001) 
(PID.TID 0000.0001) // ======================================================
(PID.TID 0000.0001) //                      MITgcm UV
(PID.TID 0000.0001) //                      =========
(PID.TID 0000.0001) // ======================================================
(PID.TID 0000.0001) // execution environment starting up...
(PID.TID 0000.0001) // Run starting Wed Apr  1 14:19:48 1998
(PID.TID 0000.0001) // on melville.lcs.mit.edu
(PID.TID 0000.0001) // account cnh
(PID.TID 0000.0001) // MITgcm UV Release: $Name:  $
(PID.TID 0000.0001) 
(PID.TID 0000.0001) // =======================================================
(PID.TID 0000.0001) // Execution Environment parameter file "eedata"
(PID.TID 0000.0001) // =======================================================
(PID.TID 0000.0001) ># Example "eedata" file
(PID.TID 0000.0001) ># Lines beginning "#" are comments
(PID.TID 0000.0001) ># nTx - No. threads per process in X
(PID.TID 0000.0001) ># nTy - No. threads per process in Y
(PID.TID 0000.0001) > &EEPARMS
(PID.TID 0000.0001) > nTx=1,nTy=1
(PID.TID 0000.0001) > &
(PID.TID 0000.0001) ># Note: Some systems use & as the
(PID.TID 0000.0001) ># namelist terminator. Other systems
(PID.TID 0000.0001) ># use a / character (as shown here).
(PID.TID 0000.0001) 
(PID.TID 0000.0001) // =======================================================
(PID.TID 0000.0001) // Computational Grid Specification ( see files "SIZE.h" )
(PID.TID 0000.0001) //                                  ( and "eedata"       )
(PID.TID 0000.0001) // =======================================================
(PID.TID 0000.0001)      nPx =    1 ; /* No. processes in X */
(PID.TID 0000.0001)      nPy =    1 ; /* No. processes in Y */
(PID.TID 0000.0001)      nSx =    1 ; /* No. tiles in X per process */
(PID.TID 0000.0001)      nSy =    4 ; /* No. tiles in Y per process */
(PID.TID 0000.0001)      sNx =    1 ; /* Tile size in X */
(PID.TID 0000.0001)      sNy =   14 ; /* Tile size in Y */
(PID.TID 0000.0001)      OLx =    3 ; /* Tile overlap distance in X */
(PID.TID 0000.0001)      OLy =    3 ; /* Tile overlap distance in Y */
(PID.TID 0000.0001)      nTx =    1 ; /* No. threads in X per process */
(PID.TID 0000.0001)      nTy =    1 ; /* No. threads in Y per process */
(PID.TID 0000.0001)       Nr =   15 ; /* No. levels in the vertical   */
(PID.TID 0000.0001)       nX =    1 ; /* Total domain size in X ( = nPx*nSx*sNx ) */
(PID.TID 0000.0001)       nY =   56 ; /* Total domain size in Y ( = nPy*nSy*sNy ) */
(PID.TID 0000.0001)   nTiles =    4 ; /* Total no. tiles per process ( = nSx*nSy ) */
(PID.TID 0000.0001)   nProcs =    1 ; /* Total no. processes ( = nPx*nPy ) */
(PID.TID 0000.0001) nThreads =    1 ; /* Total no. threads per process ( = nTx*nTy ) */
(PID.TID 0000.0001) usingMPI =    F ; /* Flag used to control whether MPI is in use */
(PID.TID 0000.0001)                   /*  note: To execute a program with MPI calls */
(PID.TID 0000.0001)                   /*  it must be launched appropriately e.g     */
(PID.TID 0000.0001)                   /*  "mpirun -np 64 ......"                    */
(PID.TID 0000.0001) useCoupler=   F ; /* Flag used to control communications with */
(PID.TID 0000.0001)                   /*  other model components, through a coupler */
(PID.TID 0000.0001) 
(PID.TID 0000.0001) // ======================================================
(PID.TID 0000.0001) // Mapping of tiles to threads
(PID.TID 0000.0001) // ======================================================
(PID.TID 0000.0001) // -o- Thread   1, tiles (   1:   1,   1:   4)
(PID.TID 0000.0001) 
(PID.TID 0000.0001) // ======================================================
(PID.TID 0000.0001) // Tile <-> Tile connectvity table
(PID.TID 0000.0001) // ======================================================
(PID.TID 0000.0001) // Tile number: 000001 (process no. = 000001)
(PID.TID 0000.0001) //        WEST: Tile = 000001, Process = 000001, Comm = put
(PID.TID 0000.0001) //                bi = 000001, bj = 000001
(PID.TID 0000.0001) //        EAST: Tile = 000001, Process = 000001, Comm = put
(PID.TID 0000.0001) //                bi = 000001, bj = 000001
(PID.TID 0000.0001) //       SOUTH: Tile = 000004, Process = 000001, Comm = put
(PID.TID 0000.0001) //                bi = 000001, bj = 000004
(PID.TID 0000.0001) //       NORTH: Tile = 000002, Process = 000001, Comm = put
(PID.TID 0000.0001) //                bi = 000001, bj = 000002
(PID.TID 0000.0001) // Tile number: 000002 (process no. = 000001)
(PID.TID 0000.0001) //        WEST: Tile = 000002, Process = 000001, Comm = put
(PID.TID 0000.0001) //                bi = 000001, bj = 000002
(PID.TID 0000.0001) //        EAST: Tile = 000002, Process = 000001, Comm = put
(PID.TID 0000.0001) //                bi = 000001, bj = 000002
(PID.TID 0000.0001) //       SOUTH: Tile = 000001, Process = 000001, Comm = put
(PID.TID 0000.0001) //                bi = 000001, bj = 000001
(PID.TID 0000.0001) //       NORTH: Tile = 000003, Process = 000001, Comm = put
(PID.TID 0000.0001) //                bi = 000001, bj = 000003
(PID.TID 0000.0001) // Tile number: 000003 (process no. = 000001)
(PID.TID 0000.0001) //        WEST: Tile = 000003, Process = 000001, Comm = put
(PID.TID 0000.0001) //                bi = 000001, bj = 000003
(PID.TID 0000.0001) //        EAST: Tile = 000003, Process = 000001, Comm = put
(PID.TID 0000.0001) //                bi = 000001, bj = 000003
(PID.TID 0000.0001) //       SOUTH: Tile = 000002, Process = 000001, Comm = put
(PID.TID 0000.0001) //                bi = 000001, bj = 000002
(PID.TID 0000.0001) //       NORTH: Tile = 000004, Process = 000001, Comm = put
(PID.TID 0000.0001) //                bi = 000001, bj = 000004
(PID.TID 0000.0001) // Tile number: 000004 (process no. = 000001)
(PID.TID 0000.0001) //        WEST: Tile = 000004, Process = 000001, Comm = put
(PID.TID 0000.0001) //                bi = 000001, bj = 000004
(PID.TID 0000.0001) //        EAST: Tile = 000004, Process = 000001, Comm = put
(PID.TID 0000.0001) //                bi = 000001, bj = 000004
(PID.TID 0000.0001) //       SOUTH: Tile = 000003, Process = 000001, Comm = put
(PID.TID 0000.0001) //                bi = 000001, bj = 000003
(PID.TID 0000.0001) //       NORTH: Tile = 000001, Process = 000001, Comm = put
(PID.TID 0000.0001) //                bi = 000001, bj = 000001
(PID.TID 0000.0001) 
(PID.TID 0000.0001) // =======================================================
(PID.TID 0000.0001) // Model parameter file "data"
(PID.TID 0000.0001) // =======================================================
(PID.TID 0000.0001) ># ====================
(PID.TID 0000.0001) ># | Model parameters |
(PID.TID 0000.0001) ># ====================
(PID.TID 0000.0001) >#
(PID.TID 0000.0001) ># Continuous equation parameters
(PID.TID 0000.0001) > &PARM01
(PID.TID 0000.0001) > tRef= 18.8, 16.3, 13.1, 10.4, 8.1, 6.0, 4.5,
(PID.TID 0000.0001) >      3.4, 2.7, 2.2, 1.8, 1.5, 1.2, 1.0, 0.9,
(PID.TID 0000.0001) > sRef= 15*34.7,
(PID.TID 0000.0001) > cosPower=1.,
(PID.TID 0000.0001) > viscAr=1.E-3,
(PID.TID 0000.0001) > viscAh=12.E5,
(PID.TID 0000.0001) > no_slip_sides=.FALSE.,
(PID.TID 0000.0001) > no_slip_bottom=.TRUE.,
(PID.TID 0000.0001) > bottomDragLinear=1.E-3,
(PID.TID 0000.0001) >#diffK4T=2.E12,
(PID.TID 0000.0001) > diffKhT=0.E3,
(PID.TID 0000.0001) > diffKrT=1.E-5,
(PID.TID 0000.0001) > ivdc_kappa=100.,
(PID.TID 0000.0001) > implicitDiffusion=.TRUE.,
(PID.TID 0000.0001) > eosType='LINEAR',
(PID.TID 0000.0001) > tAlpha=2.E-4,
(PID.TID 0000.0001) > sBeta =0.E-4,
(PID.TID 0000.0001) > saltStepping=.FALSE.,
(PID.TID 0000.0001) > gravity=9.81,
(PID.TID 0000.0001) > rhonil=1035.,
(PID.TID 0000.0001) > implicitFreeSurface=.TRUE.,
(PID.TID 0000.0001) > exactConserv=.TRUE.,
(PID.TID 0000.0001) > staggerTimeStep=.TRUE.,
(PID.TID 0000.0001) > useCDscheme=.TRUE.,
(PID.TID 0000.0001) > readBinaryPrec=64,
(PID.TID 0000.0001) > tempAdvScheme=77,
(PID.TID 0000.0001) > usePickupBeforeC54=.TRUE.,
(PID.TID 0000.0001) > &
(PID.TID 0000.0001) >
(PID.TID 0000.0001) ># Elliptic solver parameters
(PID.TID 0000.0001) > &PARM02
(PID.TID 0000.0001) > cg2dMaxIters=1000,
(PID.TID 0000.0001) >#cg2dTargetResidual=1.E-13,
(PID.TID 0000.0001) > cg2dTargetResWunit=1.E-17,
(PID.TID 0000.0001) > &
(PID.TID 0000.0001) >
(PID.TID 0000.0001) ># Time stepping parameters
(PID.TID 0000.0001) > &PARM03
(PID.TID 0000.0001) > niter0=36000,
(PID.TID 0000.0001) > nTimeSteps=20,
(PID.TID 0000.0001) >#endTime=3110400000.,
(PID.TID 0000.0001) > deltaTmom=1200.0,
(PID.TID 0000.0001) > deltaTfreesurf=3600.0,
(PID.TID 0000.0001) > deltaTtracer=86400.0,
(PID.TID 0000.0001) > deltaTClock =86400.0,
(PID.TID 0000.0001) > abEps=0.1,
(PID.TID 0000.0001) > tauCD=321428.,
(PID.TID 0000.0001) > tauThetaClimRelax=2592000.0,
(PID.TID 0000.0001) > chkptFreq=0.0,
(PID.TID 0000.0001) > pChkptFreq=3110400000.0,
(PID.TID 0000.0001) > taveFreq=1555200000.0,
(PID.TID 0000.0001) > dumpFreq=1555200000.0,
(PID.TID 0000.0001) > diagFreq=1555200000.0,
(PID.TID 0000.0001) >#monitorFreq=31104000.0,
(PID.TID 0000.0001) > monitorFreq=1.0,
(PID.TID 0000.0001) > &
(PID.TID 0000.0001) >
(PID.TID 0000.0001) ># Gridding parameters
(PID.TID 0000.0001) > &PARM04
(PID.TID 0000.0001) > usingCartesianGrid=.FALSE.,
(PID.TID 0000.0001) > usingSphericalPolarGrid=.TRUE.,
(PID.TID 0000.0001) > delRc= 20.,  60.,  85., 120., 165., 215., 265., 315.,
(PID.TID 0000.0001) >       365., 415., 465., 515., 565., 615., 665., 350.,
(PID.TID 0000.0001) > phiMin=-84.,
(PID.TID 0000.0001) > delY=56*3,
(PID.TID 0000.0001) > delX=1*3,
(PID.TID 0000.0001) > &
(PID.TID 0000.0001) >
(PID.TID 0000.0001) ># Input datasets
(PID.TID 0000.0001) > &PARM05
(PID.TID 0000.0001) > bathyFile='topo_sl.bin',
(PID.TID 0000.0001) > zonalWindFile='taux_sl.bin',
(PID.TID 0000.0001) > thetaClimFile='sst_sl.bin',
(PID.TID 0000.0001) > &
(PID.TID 0000.0001) 
(PID.TID 0000.0001) S/R INI_PARMS ; read PARM01 : OK
(PID.TID 0000.0001) S/R INI_PARMS ; read PARM02 : OK
(PID.TID 0000.0001) S/R INI_PARMS ; read PARM03 : OK
(PID.TID 0000.0001) S/R INI_PARMS ; read PARM04 : OK
(PID.TID 0000.0001) S/R INI_PARMS ; read PARM05 : OK
(PID.TID 0000.0001)  MDSREADFIELD: opening global file: topo_sl.bin
(PID.TID 0000.0001) // =======================================================
(PID.TID 0000.0001) // Field Model R_low (ini_masks_etc) at iteration          1
(PID.TID 0000.0001) // CMIN =         -5.200000000000000E+03
(PID.TID 0000.0001) // CMAX =         -5.200000000000000E+03
(PID.TID 0000.0001) // CINT =          0.000000000000000E+00
(PID.TID 0000.0001) // SYMBOLS (CMIN->CMAX): -abcdefghijklmnopqrstuvwxyz+
(PID.TID 0000.0001) //                  0.0: .
(PID.TID 0000.0001) // RANGE I (Lo:Hi:Step):(  -2:   4:   1)
(PID.TID 0000.0001) // RANGE J (Lo:Hi:Step):(  59:  -2:  -1)
(PID.TID 0000.0001) // RANGE K (Lo:Hi:Step):(   1:   1:   1)
(PID.TID 0000.0001) // =======================================================
(PID.TID 0000.0001) // =======================================================
(PID.TID 0000.0001) // END OF FIELD                                          =
(PID.TID 0000.0001) // =======================================================
(PID.TID 0000.0001) 
(PID.TID 0000.0001) // =======================================================
(PID.TID 0000.0001) // Field Model Ro_surf (ini_masks_etc) at iteration          1
(PID.TID 0000.0001) // CMIN =          1.000000000000000E+32
(PID.TID 0000.0001) // CMAX =         -1.000000000000000E+32
(PID.TID 0000.0001) // CINT =          0.000000000000000E+00
(PID.TID 0000.0001) // SYMBOLS (CMIN->CMAX): -abcdefghijklmnopqrstuvwxyz+
(PID.TID 0000.0001) //                  0.0: .
(PID.TID 0000.0001) // RANGE I (Lo:Hi:Step):(  -2:   4:   1)
(PID.TID 0000.0001) // RANGE J (Lo:Hi:Step):(  59:  -2:  -1)
(PID.TID 0000.0001) // RANGE K (Lo:Hi:Step):(   1:   1:   1)
(PID.TID 0000.0001) // =======================================================
(PID.TID 0000.0001) // =======================================================
(PID.TID 0000.0001) // END OF FIELD                                          =
(PID.TID 0000.0001) // =======================================================
(PID.TID 0000.0001) 
(PID.TID 0000.0001) // =======================================================
(PID.TID 0000.0001) // Field hFacC at iteration          1
(PID.TID 0000.0001) // CMIN =          1.000000000000000E+00
(PID.TID 0000.0001) // CMAX =          1.000000000000000E+00
(PID.TID 0000.0001) // CINT =          0.000000000000000E+00
(PID.TID 0000.0001) // SYMBOLS (CMIN->CMAX): -abcdefghijklmnopqrstuvwxyz+
(PID.TID 0000.0001) //                  0.0: .
(PID.TID 0000.0001) // RANGE I (Lo:Hi:Step):(  -2:   4:   1)
(PID.TID 0000.0001) // RANGE J (Lo:Hi:Step):(  59:  -2:  -1)
(PID.TID 0000.0001) // RANGE K (Lo:Hi:Step):(   1:   1:   1)
(PID.TID 0000.0001) // =======================================================
(PID.TID 0000.0001) // =======================================================
(PID.TID 0000.0001) // END OF FIELD                                          =
(PID.TID 0000.0001) // =======================================================
(PID.TID 0000.0001) 
(PID.TID 0000.0001) // =======================================================
(PID.TID 0000.0001) // Field hFacW at iteration          1
(PID.TID 0000.0001) // CMIN =          1.000000000000000E+00
(PID.TID 0000.0001) // CMAX =          1.000000000000000E+00
(PID.TID 0000.0001) // CINT =          0.000000000000000E+00
(PID.TID 0000.0001) // SYMBOLS (CMIN->CMAX): -abcdefghijklmnopqrstuvwxyz+
(PID.TID 0000.0001) //                  0.0: .
(PID.TID 0000.0001) // RANGE I (Lo:Hi:Step):(  -2:   4:   1)
(PID.TID 0000.0001) // RANGE J (Lo:Hi:Step):(  59:  -2:  -1)
(PID.TID 0000.0001) // RANGE K (Lo:Hi:Step):(   1:   1:   1)
(PID.TID 0000.0001) // =======================================================
(PID.TID 0000.0001) // =======================================================
(PID.TID 0000.0001) // END OF FIELD                                          =
(PID.TID 0000.0001) // =======================================================
(PID.TID 0000.0001) 
(PID.TID 0000.0001) // =======================================================
(PID.TID 0000.0001) // Field hFacS at iteration          1
(PID.TID 0000.0001) // CMIN =          1.000000000000000E+00
(PID.TID 0000.0001) // CMAX =          1.000000000000000E+00
(PID.TID 0000.0001) // CINT =          0.000000000000000E+00
(PID.TID 0000.0001) // SYMBOLS (CMIN->CMAX): -abcdefghijklmnopqrstuvwxyz+
(PID.TID 0000.0001) //                  0.0: .
(PID.TID 0000.0001) // RANGE I (Lo:Hi:Step):(  -2:   4:   1)
(PID.TID 0000.0001) // RANGE J (Lo:Hi:Step):(  59:  -2:  -1)
(PID.TID 0000.0001) // RANGE K (Lo:Hi:Step):(   1:   1:   1)
(PID.TID 0000.0001) // =======================================================
(PID.TID 0000.0001) // =======================================================
(PID.TID 0000.0001) // END OF FIELD                                          =
(PID.TID 0000.0001) // =======================================================
(PID.TID 0000.0001) 
(PID.TID 0000.0001)  PACKAGES_BOOT: opening data.pkg
(PID.TID 0000.0001)  OPEN_COPY_DATA_FILE: opening file data.pkg
(PID.TID 0000.0001) // =======================================================
(PID.TID 0000.0001) // Parameter file "data.pkg"
(PID.TID 0000.0001) // =======================================================
(PID.TID 0000.0001) ># Packages
(PID.TID 0000.0001) > &PACKAGES
(PID.TID 0000.0001) > useGMRedi=.TRUE.,
(PID.TID 0000.0001) > &
(PID.TID 0000.0001) >
(PID.TID 0000.0001) 
(PID.TID 0000.0001)  PACKAGES_BOOT: finished reading data.pkg
(PID.TID 0000.0001)  GM_READPARMS: opening data.gmredi
(PID.TID 0000.0001)  OPEN_COPY_DATA_FILE: opening file data.gmredi
(PID.TID 0000.0001) // =======================================================
(PID.TID 0000.0001) // Parameter file "data.gmredi"
(PID.TID 0000.0001) // =======================================================
(PID.TID 0000.0001) ># from MOM
(PID.TID 0000.0001) ># GM_background_K: 	isopycnal diffusion coefficien
(PID.TID 0000.0001) ># GM_maxSlope:		max slope of isopycnals
(PID.TID 0000.0001) ># GM_Scrit:		transition for scaling diffusion coefficient
(PID.TID 0000.0001) ># GM_Sd:		half width scaling for diffusion coefficient
(PID.TID 0000.0001) ># real background diff:	horizontal diffusion
(PID.TID 0000.0001) >
(PID.TID 0000.0001) ># ifdef GM_VISBECK_VARIABLE_K, include following in GM_PARM01
(PID.TID 0000.0001) ># GM_Visbeck_alpha   = 0.,
(PID.TID 0000.0001) ># GM_Visbeck_length  = 2.e+5,
(PID.TID 0000.0001) ># GM_Visbeck_depth   = 1.e+3,
(PID.TID 0000.0001) ># GM_Visbeck_maxval_K= 2.5e+3,
(PID.TID 0000.0001) >
(PID.TID 0000.0001) > &GM_PARM01
(PID.TID 0000.0001) >  GM_AdvForm=.TRUE.,
(PID.TID 0000.0001) ># GM_AdvSeparate=.TRUE.,
(PID.TID 0000.0001) ># GM_background_K=1000.,
(PID.TID 0000.0001) >  GM_background_K=10.,
(PID.TID 0000.0001) ># GM_isopycK=1000.,
(PID.TID 0000.0001) ># GM_taper_scheme    = 'clipping',
(PID.TID 0000.0001) >  GM_taper_scheme    = 'linear',
(PID.TID 0000.0001) ># GM_taper_scheme    = 'gkw91',
(PID.TID 0000.0001) ># GM_taper_scheme    = 'ldd97',
(PID.TID 0000.0001) >  GM_maxSlope        = 1.e-2,
(PID.TID 0000.0001) >  GM_Scrit           = 4.e-3,
(PID.TID 0000.0001) >  GM_Sd              = 1.e-3,
(PID.TID 0000.0001) >  GM_Visbeck_alpha   = 1.e-2,
(PID.TID 0000.0001) >  GM_Visbeck_length  = 2.e+5,
(PID.TID 0000.0001) >  GM_Visbeck_depth   = 1.e+3,
(PID.TID 0000.0001) >  GM_Visbeck_maxval_K= 2.5e+3,
(PID.TID 0000.0001) > &end
(PID.TID 0000.0001) >
(PID.TID 0000.0001) >
(PID.TID 0000.0001) 
(PID.TID 0000.0001)  GM_READPARMS: finished reading data.gmredi
(PID.TID 0000.0001) 
(PID.TID 0000.0001) // ===================================
(PID.TID 0000.0001) // GAD parameters :
(PID.TID 0000.0001) // ===================================
(PID.TID 0000.0001) tempAdvScheme =   /* Temp. Horiz.Advection scheme selector */
(PID.TID 0000.0001)                      77
(PID.TID 0000.0001)     ;
(PID.TID 0000.0001) tempVertAdvScheme =   /* Temp. Vert. Advection scheme selector */
(PID.TID 0000.0001)                      77
(PID.TID 0000.0001)     ;
(PID.TID 0000.0001) tempMultiDimAdvec =   /* use Muti-Dim Advec method for Temp */
(PID.TID 0000.0001)                   T
(PID.TID 0000.0001)     ;
(PID.TID 0000.0001) tempAdamsBashforth =   /* use Adams-Bashforth time-stepping for Temp */
(PID.TID 0000.0001)                   F
(PID.TID 0000.0001)     ;
(PID.TID 0000.0001) saltAdvScheme =   /* Salt. Horiz.advection scheme selector */
(PID.TID 0000.0001)                       2
(PID.TID 0000.0001)     ;
(PID.TID 0000.0001) saltVertAdvScheme =   /* Salt. Vert. Advection scheme selector */
(PID.TID 0000.0001)                       2
(PID.TID 0000.0001)     ;
(PID.TID 0000.0001) saltMultiDimAdvec =   /* use Muti-Dim Advec method for Salt */
(PID.TID 0000.0001)                   F
(PID.TID 0000.0001)     ;
(PID.TID 0000.0001) saltAdamsBashforth =   /* use Adams-Bashforth time-stepping for Salt */
(PID.TID 0000.0001)                   T
(PID.TID 0000.0001)     ;
(PID.TID 0000.0001) // ===================================
(PID.TID 0000.0001) GMREDI_CHECK: #define GMREDI
(PID.TID 0000.0001) GM_AdvForm =  /* if FALSE => use SkewFlux Form */
(PID.TID 0000.0001)                   T
(PID.TID 0000.0001)     ;
(PID.TID 0000.0001) GM_AdvSeparate = /* Calc Bolus & Euler Adv. separately */
(PID.TID 0000.0001)                   F
(PID.TID 0000.0001)     ;
(PID.TID 0000.0001) GM_ExtraDiag =  /* Tensor Extra Diag (line 1&2) non 0 */
(PID.TID 0000.0001)                   T
(PID.TID 0000.0001)     ;
(PID.TID 0000.0001) GM_isopycK =   /* Background Isopyc. Diffusivity ( m^2/s ) */
(PID.TID 0000.0001)                 1.000000000000000E+01
(PID.TID 0000.0001)     ;
(PID.TID 0000.0001)  GM_skewflx*K =   /* Background GM_SkewFlx Diffusivity ( m^2/s ) */
(PID.TID 0000.0001)                 0.000000000000000E+00
(PID.TID 0000.0001)     ;
(PID.TID 0000.0001)  GM_advec*K =   /* Backg. GM-Advec(=Bolus) Diffusivity ( m^2/s ) */
(PID.TID 0000.0001)                 1.000000000000000E+01
(PID.TID 0000.0001)     ;
(PID.TID 0000.0001)  GM_Visbeck_alpha =   /* Visbeck alpha coeff. ( ) */
(PID.TID 0000.0001)                 1.000000000000000E-02
(PID.TID 0000.0001)     ;
(PID.TID 0000.0001)  Tapering/Cliping : linear
(PID.TID 0000.0001)  GM_Small_Number =  /* epsilon used in slope calc */
(PID.TID 0000.0001)                 1.000000000000000E-12
(PID.TID 0000.0001)     ;
(PID.TID 0000.0001)  GM_slopeSqCutoff =  /* Slope^2 cut-off value */
(PID.TID 0000.0001)                 1.000000000000000E+48
(PID.TID 0000.0001)     ;
(PID.TID 0000.0001) %MON fCori_max                    =   1.4419980985793E-04
(PID.TID 0000.0001) %MON fCori_min                    =  -1.4419980985793E-04
(PID.TID 0000.0001) %MON fCori_mean                   =   7.7443012320393E-21
(PID.TID 0000.0001) %MON fCori_sd                     =   9.9129524406610E-05
(PID.TID 0000.0001) %MON fCoriG_max                   =   1.4365344605787E-04
(PID.TID 0000.0001) %MON fCoriG_min                   =  -1.4464734631126E-04
(PID.TID 0000.0001) %MON fCoriG_mean                  =  -2.6299517511138E-06
(PID.TID 0000.0001) %MON fCoriG_sd                    =   9.9997297738060E-05
(PID.TID 0000.0001) %MON fCoriCos_max                 =   1.4539426427085E-04
(PID.TID 0000.0001) %MON fCoriCos_min                 =   1.8984265119424E-05
(PID.TID 0000.0001) %MON fCoriCos_mean                =   9.8674157759248E-05
(PID.TID 0000.0001) %MON fCoriCos_sd                  =   3.9884025205722E-05
(PID.TID 0000.0001) // CG2D normalisation factor =          0.3504529336387451438029547E-04
(PID.TID 0000.0001) 
 ini_cg2d: sumArea,cg2dTolerance =  4.19688829104880E+12  1.22567651146013E-12
(PID.TID 0000.0001) CONFIG_CHECK: OK
(PID.TID 0000.0001) // =======================================================
(PID.TID 0000.0001) // Model configuration
(PID.TID 0000.0001) // =======================================================
(PID.TID 0000.0001) //
(PID.TID 0000.0001) // "Physical" paramters ( PARM01 in namelist )
(PID.TID 0000.0001) //
(PID.TID 0000.0001) buoyancyRelation = OCEANIC
(PID.TID 0000.0001) tRef =   /* Reference temperature profile ( oC or oK ) */
(PID.TID 0000.0001)                 1.880000000000000E+01,      /* K =  1 */
(PID.TID 0000.0001)                 1.630000000000000E+01,      /* K =  2 */
(PID.TID 0000.0001)                 1.310000000000000E+01,      /* K =  3 */
(PID.TID 0000.0001)                 1.040000000000000E+01,      /* K =  4 */
(PID.TID 0000.0001)                 8.100000000000000E+00,      /* K =  5 */
(PID.TID 0000.0001)                 6.000000000000000E+00,      /* K =  6 */
(PID.TID 0000.0001)                 4.500000000000000E+00,      /* K =  7 */
(PID.TID 0000.0001)                 3.400000000000000E+00,      /* K =  8 */
(PID.TID 0000.0001)                 2.700000000000000E+00,      /* K =  9 */
(PID.TID 0000.0001)                 2.200000000000000E+00,      /* K = 10 */
(PID.TID 0000.0001)                 1.800000000000000E+00,      /* K = 11 */
(PID.TID 0000.0001)                 1.500000000000000E+00,      /* K = 12 */
(PID.TID 0000.0001)                 1.200000000000000E+00,      /* K = 13 */
(PID.TID 0000.0001)                 1.000000000000000E+00,      /* K = 14 */
(PID.TID 0000.0001)                 9.000000000000000E-01       /* K = 15 */
(PID.TID 0000.0001)     ;
(PID.TID 0000.0001) sRef =   /* Reference salinity profile ( ppt ) */
(PID.TID 0000.0001)    15 @  3.470000000000000E+01              /* K =  1: 15 */
(PID.TID 0000.0001)     ;
(PID.TID 0000.0001) viscAh =   /* Lateral eddy viscosity ( m^2/s ) */
(PID.TID 0000.0001)                 1.200000000000000E+06
(PID.TID 0000.0001)     ;
(PID.TID 0000.0001) viscAhMax =   /* Maximum lateral eddy viscosity ( m^2/s ) */
(PID.TID 0000.0001)                 1.000000000000000E+21
(PID.TID 0000.0001)     ;
(PID.TID 0000.0001) viscAhGrid =   /* Grid dependent lateral eddy viscosity ( non-dim. ) */
(PID.TID 0000.0001)                 0.000000000000000E+00
(PID.TID 0000.0001)     ;
(PID.TID 0000.0001) viscC2leith =   /* Leith harmonic viscosity factor ( non-dom. ) */
(PID.TID 0000.0001)                 0.000000000000000E+00
(PID.TID 0000.0001)     ;
(PID.TID 0000.0001) viscA4 =   /* Lateral biharmonic viscosity ( m^4/s ) */
(PID.TID 0000.0001)                 0.000000000000000E+00
(PID.TID 0000.0001)     ;
(PID.TID 0000.0001) viscA4Max =   /* Maximum biharmonic viscosity ( m^2/s ) */
(PID.TID 0000.0001)                 1.000000000000000E+21
(PID.TID 0000.0001)     ;
(PID.TID 0000.0001) viscA4Grid =   /* Grid dependent biharmonic viscosity ( non-dim. ) */
(PID.TID 0000.0001)                 0.000000000000000E+00
(PID.TID 0000.0001)     ;
(PID.TID 0000.0001) viscC4leith =   /* Leith biharmonic viscosity factor ( non-dom. ) */
(PID.TID 0000.0001)                 0.000000000000000E+00
(PID.TID 0000.0001)     ;
(PID.TID 0000.0001) no_slip_sides =  /* Viscous BCs: No-slip sides */
(PID.TID 0000.0001)                   F
(PID.TID 0000.0001)     ;
(PID.TID 0000.0001) viscAr =   /* Vertical eddy viscosity ( units of r^2/s ) */
(PID.TID 0000.0001)                 1.000000000000000E-03
(PID.TID 0000.0001)     ;
(PID.TID 0000.0001) diffKhT =   /* Laplacian diffusion of heat laterally ( m^2/s ) */
(PID.TID 0000.0001)                 0.000000000000000E+00
(PID.TID 0000.0001)     ;
(PID.TID 0000.0001) diffK4T =   /* Bihaarmonic diffusion of heat laterally ( m^4/s ) */
(PID.TID 0000.0001)                 0.000000000000000E+00
(PID.TID 0000.0001)     ;
(PID.TID 0000.0001) diffKrT =   /* Laplacian diffusion of heat vertically ( m^2/s ) */
(PID.TID 0000.0001)                 1.000000000000000E-05
(PID.TID 0000.0001)     ;
(PID.TID 0000.0001) diffKhS =   /* Laplacian diffusion of salt laterally ( m^2/s ) */
(PID.TID 0000.0001)                 0.000000000000000E+00
(PID.TID 0000.0001)     ;
(PID.TID 0000.0001) diffK4S =   /* Bihaarmonic diffusion of salt laterally ( m^4/s ) */
(PID.TID 0000.0001)                 0.000000000000000E+00
(PID.TID 0000.0001)     ;
(PID.TID 0000.0001) diffKrS =   /* Laplacian diffusion of salt vertically ( m^2/s ) */
(PID.TID 0000.0001)                 0.000000000000000E+00
(PID.TID 0000.0001)     ;
(PID.TID 0000.0001) diffKrBL79surf =   /* Surface diffusion for Bryan and Lewis 1979 ( m^2/s ) */
(PID.TID 0000.0001)                 0.000000000000000E+00
(PID.TID 0000.0001)     ;
(PID.TID 0000.0001) diffKrBL79deep =   /* Deep diffusion for Bryan and Lewis 1979 ( m^2/s ) */
(PID.TID 0000.0001)                 0.000000000000000E+00
(PID.TID 0000.0001)     ;
(PID.TID 0000.0001) diffKrBL79scl =   /* Depth scale for Bryan and Lewis 1979 ( m ) */
(PID.TID 0000.0001)                 2.000000000000000E+02
(PID.TID 0000.0001)     ;
(PID.TID 0000.0001) diffKrBL79Ho =   /* Turning depth for Bryan and Lewis 1979 ( m ) */
(PID.TID 0000.0001)                -2.000000000000000E+03
(PID.TID 0000.0001)     ;
(PID.TID 0000.0001)  Equation of State : eosType = LINEAR
(PID.TID 0000.0001) tAlpha =   /* Linear EOS thermal expansion coefficient ( 1/degree ) */
(PID.TID 0000.0001)                 2.000000000000000E-04
(PID.TID 0000.0001)     ;
(PID.TID 0000.0001) sBeta =   /* Linear EOS haline contraction coefficient ( 1/ppt ) */
(PID.TID 0000.0001)                 0.000000000000000E+00
(PID.TID 0000.0001)     ;
(PID.TID 0000.0001) rhonil =   /* Reference density ( kg/m^3 ) */
(PID.TID 0000.0001)                 1.035000000000000E+03
(PID.TID 0000.0001)     ;
(PID.TID 0000.0001) rhoConst =   /* Reference density ( kg/m^3 ) */
(PID.TID 0000.0001)                 1.035000000000000E+03
(PID.TID 0000.0001)     ;
(PID.TID 0000.0001) rhoConstFresh =   /* Reference density ( kg/m^3 ) */
(PID.TID 0000.0001)                 1.035000000000000E+03
(PID.TID 0000.0001)     ;
(PID.TID 0000.0001) gravity =   /* Gravitational acceleration ( m/s^2 ) */
(PID.TID 0000.0001)                 9.810000000000000E+00
(PID.TID 0000.0001)     ;
(PID.TID 0000.0001) gBaro =   /* Barotropic gravity ( m/s^2 ) */
(PID.TID 0000.0001)                 9.810000000000000E+00
(PID.TID 0000.0001)     ;
(PID.TID 0000.0001) rotationPeriod =   /* Rotation Period ( s ) */
(PID.TID 0000.0001)                 8.640000000000000E+04
(PID.TID 0000.0001)     ;
(PID.TID 0000.0001) omega =   /* Angular velocity ( rad/s ) */
(PID.TID 0000.0001)                 7.272205216643040E-05
(PID.TID 0000.0001)     ;
(PID.TID 0000.0001) f0 =   /* Reference coriolis parameter ( 1/s ) */
(PID.TID 0000.0001)                 1.000000000000000E-04
(PID.TID 0000.0001)     ;
(PID.TID 0000.0001) beta =   /* Beta ( 1/(m.s) ) */
(PID.TID 0000.0001)                 9.999999999999999E-12
(PID.TID 0000.0001)     ;
(PID.TID 0000.0001) freeSurfFac =   /* Implicit free surface factor */
(PID.TID 0000.0001)                 1.000000000000000E+00
(PID.TID 0000.0001)     ;
(PID.TID 0000.0001) implicitFreeSurface =   /* Implicit free surface on/off flag */
(PID.TID 0000.0001)                   T
(PID.TID 0000.0001)     ;
(PID.TID 0000.0001) rigidLid =   /* Rigid lid on/off flag */
(PID.TID 0000.0001)                   F
(PID.TID 0000.0001)     ;
(PID.TID 0000.0001) implicSurfPress =   /* Surface Pressure implicit factor (0-1)*/
(PID.TID 0000.0001)                 1.000000000000000E+00
(PID.TID 0000.0001)     ;
(PID.TID 0000.0001) implicDiv2Dflow =   /* Barot. Flow Div. implicit factor (0-1)*/
(PID.TID 0000.0001)                 1.000000000000000E+00
(PID.TID 0000.0001)     ;
(PID.TID 0000.0001) exactConserv =   /* Exact Volume Conservation on/off flag*/
(PID.TID 0000.0001)                   T
(PID.TID 0000.0001)     ;
(PID.TID 0000.0001) uniformLin_PhiSurf =   /* use uniform Bo_surf on/off flag*/
(PID.TID 0000.0001)                   T
(PID.TID 0000.0001)     ;
(PID.TID 0000.0001) nonlinFreeSurf =   /* Non-linear Free Surf. options (-1,0,1,2,3)*/
(PID.TID 0000.0001)                       0
(PID.TID 0000.0001)     ;
(PID.TID 0000.0001)      -1,0= Off ; 1,2,3= On, 2=+rescale gU,gV, 3=+update cg2d solv.
(PID.TID 0000.0001) hFacInf =   /* lower threshold for hFac (nonlinFreeSurf only)*/
(PID.TID 0000.0001)                 2.000000000000000E-01
(PID.TID 0000.0001)     ;
(PID.TID 0000.0001) hFacSup =   /* upper threshold for hFac (nonlinFreeSurf only)*/
(PID.TID 0000.0001)                 2.000000000000000E+00
(PID.TID 0000.0001)     ;
(PID.TID 0000.0001) select_rStar =   /* r* Coordinate options (not yet implemented)*/
(PID.TID 0000.0001)                       0
(PID.TID 0000.0001)     ;
(PID.TID 0000.0001) useRealFreshWaterFlux =   /* Real Fresh Water Flux on/off flag*/
(PID.TID 0000.0001)                   F
(PID.TID 0000.0001)     ;
(PID.TID 0000.0001) convertFW2Salt = /* convert F.W. Flux to Salt Flux (-1=use local S)(ppt)*/
(PID.TID 0000.0001)                 3.500000000000000E+01
(PID.TID 0000.0001)     ;
(PID.TID 0000.0001) nonHydrostatic =  /* Non-Hydrostatic on/off flag */
(PID.TID 0000.0001)                   F
(PID.TID 0000.0001)     ;
(PID.TID 0000.0001) momStepping =  /* Momentum equation on/off flag */
(PID.TID 0000.0001)                   T
(PID.TID 0000.0001)     ;
(PID.TID 0000.0001) momAdvection =  /* Momentum advection on/off flag */
(PID.TID 0000.0001)                   T
(PID.TID 0000.0001)     ;
(PID.TID 0000.0001) momViscosity =  /* Momentum viscosity on/off flag */
(PID.TID 0000.0001)                   T
(PID.TID 0000.0001)     ;
(PID.TID 0000.0001) momImplVertAdv =/* Momentum implicit vert. advection on/off*/
(PID.TID 0000.0001)                   F
(PID.TID 0000.0001)     ;
(PID.TID 0000.0001) implicitViscosity = /* Implicit viscosity on/off flag */
(PID.TID 0000.0001)                   F
(PID.TID 0000.0001)     ;
(PID.TID 0000.0001) useCoriolis =  /* Coriolis on/off flag */
(PID.TID 0000.0001)                   T
(PID.TID 0000.0001)     ;
(PID.TID 0000.0001) useCDscheme =  /* CD scheme on/off flag */
(PID.TID 0000.0001)                   T
(PID.TID 0000.0001)     ;
(PID.TID 0000.0001) useJamartWetPoints= /* Coriolis WetPoints method flag */
(PID.TID 0000.0001)                   F
(PID.TID 0000.0001)     ;
(PID.TID 0000.0001) useJamartMomAdv= /* V.I. Non-linear terms Jamart flag */
(PID.TID 0000.0001)                   F
(PID.TID 0000.0001)     ;
(PID.TID 0000.0001) SadournyCoriolis= /* Sadourny Coriolis discr. flag */
(PID.TID 0000.0001)                   F
(PID.TID 0000.0001)     ;
(PID.TID 0000.0001) upwindVorticity= /* Upwind bias vorticity flag */
(PID.TID 0000.0001)                   F
(PID.TID 0000.0001)     ;
(PID.TID 0000.0001) useAbsVorticity= /* Work with f+zeta in Coriolis */
(PID.TID 0000.0001)                   F
(PID.TID 0000.0001)     ;
(PID.TID 0000.0001) highOrderVorticity= /* High order interp. of vort. flag */
(PID.TID 0000.0001)                   F
(PID.TID 0000.0001)     ;
(PID.TID 0000.0001) momForcing =  /* Momentum forcing on/off flag */
(PID.TID 0000.0001)                   T
(PID.TID 0000.0001)     ;
(PID.TID 0000.0001) momPressureForcing =  /* Momentum pressure term on/off flag */
(PID.TID 0000.0001)                   T
(PID.TID 0000.0001)     ;
(PID.TID 0000.0001) staggerTimeStep =   /* Stagger time stepping on/off flag */
(PID.TID 0000.0001)                   T
(PID.TID 0000.0001)     ;
(PID.TID 0000.0001) multiDimAdvection =   /* enable/disable Multi-Dim Advection */
(PID.TID 0000.0001)                   T
(PID.TID 0000.0001)     ;
(PID.TID 0000.0001) implicitDiffusion =/* Implicit Diffusion on/off flag */
(PID.TID 0000.0001)                   T
(PID.TID 0000.0001)     ;
(PID.TID 0000.0001) tempStepping =  /* Temperature equation on/off flag */
(PID.TID 0000.0001)                   T
(PID.TID 0000.0001)     ;
(PID.TID 0000.0001) tempAdvection=  /* Temperature advection on/off flag */
(PID.TID 0000.0001)                   T
(PID.TID 0000.0001)     ;
(PID.TID 0000.0001) tempImplVertAdv =/* Temp. implicit vert. advection on/off */
(PID.TID 0000.0001)                   F
(PID.TID 0000.0001)     ;
(PID.TID 0000.0001) tempForcing  =  /* Temperature forcing on/off flag */
(PID.TID 0000.0001)                   T
(PID.TID 0000.0001)     ;
(PID.TID 0000.0001) saltStepping =  /* Salinity equation on/off flag */
(PID.TID 0000.0001)                   F
(PID.TID 0000.0001)     ;
(PID.TID 0000.0001) saltAdvection=  /* Salinity advection on/off flag */
(PID.TID 0000.0001)                   F
(PID.TID 0000.0001)     ;
(PID.TID 0000.0001) saltImplVertAdv =/* Sali. implicit vert. advection on/off */
(PID.TID 0000.0001)                   F
(PID.TID 0000.0001)     ;
(PID.TID 0000.0001) saltForcing  =  /* Salinity forcing on/off flag */
(PID.TID 0000.0001)                   F
(PID.TID 0000.0001)     ;
(PID.TID 0000.0001) //
(PID.TID 0000.0001) // Elliptic solver(s) paramters ( PARM02 in namelist )
(PID.TID 0000.0001) //
(PID.TID 0000.0001) cg2dMaxIters =   /* Upper limit on 2d con. grad iterations  */
(PID.TID 0000.0001)                    1000
(PID.TID 0000.0001)     ;
(PID.TID 0000.0001) cg2dChkResFreq =   /* 2d con. grad convergence test frequency */
(PID.TID 0000.0001)                       1
(PID.TID 0000.0001)     ;
(PID.TID 0000.0001) cg2dTargetResidual =   /* 2d con. grad target residual  */
(PID.TID 0000.0001)                 1.000000000000000E-07
(PID.TID 0000.0001)     ;
(PID.TID 0000.0001) //
(PID.TID 0000.0001) // Time stepping paramters ( PARM03 in namelist )
(PID.TID 0000.0001) //
(PID.TID 0000.0001) nIter0 =   /* Base timestep number  */
(PID.TID 0000.0001)                   36000
(PID.TID 0000.0001)     ;
(PID.TID 0000.0001) nTimeSteps =   /* Number of timesteps */
(PID.TID 0000.0001)                      20
(PID.TID 0000.0001)     ;
(PID.TID 0000.0001) deltatTmom =   /* Momentum equation timestep ( s ) */
(PID.TID 0000.0001)                 1.200000000000000E+03
(PID.TID 0000.0001)     ;
(PID.TID 0000.0001) deltaTfreesurf =   /* FreeSurface equation timestep ( s ) */
(PID.TID 0000.0001)                 3.600000000000000E+03
(PID.TID 0000.0001)     ;
(PID.TID 0000.0001) deltatTtracer =   /* Tracer equation timestep ( s ) */
(PID.TID 0000.0001)                 8.640000000000000E+04
(PID.TID 0000.0001)     ;
(PID.TID 0000.0001) deltatTClock  =   /* Model clock timestep ( s ) */
(PID.TID 0000.0001)                 8.640000000000000E+04
(PID.TID 0000.0001)     ;
(PID.TID 0000.0001) cAdjFreq =   /* Convective adjustment interval ( s ) */
(PID.TID 0000.0001)                 0.000000000000000E+00
(PID.TID 0000.0001)     ;
(PID.TID 0000.0001) forcing_In_AB =   /* put T,S Forcing in Adams-Bash. stepping */
(PID.TID 0000.0001)                   T
(PID.TID 0000.0001)     ;
(PID.TID 0000.0001) abeps =   /* Adams-Bashforth stabilizing weight */
(PID.TID 0000.0001)                 1.000000000000000E-01
(PID.TID 0000.0001)     ;
(PID.TID 0000.0001) tauCD =   /* CD coupling time-scale ( s ) */
(PID.TID 0000.0001)                 3.214280000000000E+05
(PID.TID 0000.0001)     ;
(PID.TID 0000.0001) rCD =   /* Normalised CD coupling parameter */
(PID.TID 0000.0001)                 9.962666600296178E-01
(PID.TID 0000.0001)     ;
(PID.TID 0000.0001) startTime =   /* Run start time ( s ). */
(PID.TID 0000.0001)                 3.110400000000000E+09
(PID.TID 0000.0001)     ;
(PID.TID 0000.0001) endTime =   /* Integration ending time ( s ). */
(PID.TID 0000.0001)                 3.112128000000000E+09
(PID.TID 0000.0001)     ;
(PID.TID 0000.0001) pChkPtFreq =   /* Permanent restart/checkpoint file interval ( s ). */
(PID.TID 0000.0001)                 3.110400000000000E+09
(PID.TID 0000.0001)     ;
(PID.TID 0000.0001) chkPtFreq =   /* Rolling restart/checkpoint file interval ( s ). */
(PID.TID 0000.0001)                 0.000000000000000E+00
(PID.TID 0000.0001)     ;
(PID.TID 0000.0001) dumpFreq =   /* Model state write out interval ( s ). */
(PID.TID 0000.0001)                 1.555200000000000E+09
(PID.TID 0000.0001)     ;
(PID.TID 0000.0001) externForcingPeriod =   /* forcing period (s) */
(PID.TID 0000.0001)                 0.000000000000000E+00
(PID.TID 0000.0001)     ;
(PID.TID 0000.0001) externForcingCycle =   /* period of the cyle (s). */
(PID.TID 0000.0001)                 0.000000000000000E+00
(PID.TID 0000.0001)     ;
(PID.TID 0000.0001) tauThetaClimRelax =   /* relaxation time scale (s) */
(PID.TID 0000.0001)                 2.592000000000000E+06
(PID.TID 0000.0001)     ;
(PID.TID 0000.0001) tauSaltClimRelax =   /* relaxation time scale (s) */
(PID.TID 0000.0001)                 0.000000000000000E+00
(PID.TID 0000.0001)     ;
(PID.TID 0000.0001) latBandClimRelax =   /* max. Lat. where relaxation */
(PID.TID 0000.0001)                 1.800000000000000E+02
(PID.TID 0000.0001)     ;
(PID.TID 0000.0001) //
(PID.TID 0000.0001) // Gridding paramters ( PARM04 in namelist )
(PID.TID 0000.0001) //
(PID.TID 0000.0001) usingCartesianGrid =   /* Cartesian coordinates flag ( True / False ) */
(PID.TID 0000.0001)                   F
(PID.TID 0000.0001)     ;
(PID.TID 0000.0001) usingSphericalPolarGrid =   /* Spherical coordinates flag ( True / False ) */
(PID.TID 0000.0001)                   T
(PID.TID 0000.0001)     ;
(PID.TID 0000.0001) usingCylindricalGrid =   /* Spherical coordinates flag ( True / False ) */
(PID.TID 0000.0001)                   F
(PID.TID 0000.0001)     ;
(PID.TID 0000.0001) groundAtK1 =   /* Lower Boundary (ground) at the surface(k=1) ( T / F ) */
(PID.TID 0000.0001)                   F
(PID.TID 0000.0001)     ;
(PID.TID 0000.0001) Ro_SeaLevel =   /* r(1) ( units of r ) */
(PID.TID 0000.0001)                 0.000000000000000E+00
(PID.TID 0000.0001)     ;
(PID.TID 0000.0001) rkFac =   /* minus Vertical index orientation  */
(PID.TID 0000.0001)                 1.000000000000000E+00
(PID.TID 0000.0001)     ;
(PID.TID 0000.0001) horiVertRatio =   /* Ratio on units : Horiz - Vertical */
(PID.TID 0000.0001)                 1.000000000000000E+00
(PID.TID 0000.0001)     ;
(PID.TID 0000.0001) drC =   /* C spacing ( units of r ) */
(PID.TID 0000.0001)                 2.000000000000000E+01,      /* K =  1 */
(PID.TID 0000.0001)                 6.000000000000000E+01,      /* K =  2 */
(PID.TID 0000.0001)                 8.500000000000000E+01,      /* K =  3 */
(PID.TID 0000.0001)                 1.200000000000000E+02,      /* K =  4 */
(PID.TID 0000.0001)                 1.650000000000000E+02,      /* K =  5 */
(PID.TID 0000.0001)                 2.150000000000000E+02,      /* K =  6 */
(PID.TID 0000.0001)                 2.650000000000000E+02,      /* K =  7 */
(PID.TID 0000.0001)                 3.150000000000000E+02,      /* K =  8 */
(PID.TID 0000.0001)                 3.650000000000000E+02,      /* K =  9 */
(PID.TID 0000.0001)                 4.150000000000000E+02,      /* K = 10 */
(PID.TID 0000.0001)                 4.650000000000000E+02,      /* K = 11 */
(PID.TID 0000.0001)                 5.150000000000000E+02,      /* K = 12 */
(PID.TID 0000.0001)                 5.650000000000000E+02,      /* K = 13 */
(PID.TID 0000.0001)                 6.150000000000000E+02,      /* K = 14 */
(PID.TID 0000.0001)                 6.650000000000000E+02       /* K = 15 */
(PID.TID 0000.0001)     ;
(PID.TID 0000.0001) drF =   /* W spacing ( units of r ) */
(PID.TID 0000.0001)                 5.000000000000000E+01,      /* K =  1 */
(PID.TID 0000.0001)                 7.250000000000000E+01,      /* K =  2 */
(PID.TID 0000.0001)                 1.025000000000000E+02,      /* K =  3 */
(PID.TID 0000.0001)                 1.425000000000000E+02,      /* K =  4 */
(PID.TID 0000.0001)                 1.900000000000000E+02,      /* K =  5 */
(PID.TID 0000.0001)                 2.400000000000000E+02,      /* K =  6 */
(PID.TID 0000.0001)                 2.900000000000000E+02,      /* K =  7 */
(PID.TID 0000.0001)                 3.400000000000000E+02,      /* K =  8 */
(PID.TID 0000.0001)                 3.900000000000000E+02,      /* K =  9 */
(PID.TID 0000.0001)                 4.400000000000000E+02,      /* K = 10 */
(PID.TID 0000.0001)                 4.900000000000000E+02,      /* K = 11 */
(PID.TID 0000.0001)                 5.400000000000000E+02,      /* K = 12 */
(PID.TID 0000.0001)                 5.900000000000000E+02,      /* K = 13 */
(PID.TID 0000.0001)                 6.400000000000000E+02,      /* K = 14 */
(PID.TID 0000.0001)                 6.825000000000000E+02       /* K = 15 */
(PID.TID 0000.0001)     ;
(PID.TID 0000.0001) delX =   /* U spacing ( m - cartesian, degrees - spherical ) */
(PID.TID 0000.0001)                 3.000000000000000E+00       /* I =  1 */
(PID.TID 0000.0001)     ;
(PID.TID 0000.0001) delY =   /* V spacing ( m - cartesian, degrees - spherical ) */
(PID.TID 0000.0001)    56 @  3.000000000000000E+00              /* J =  1: 56 */
(PID.TID 0000.0001)     ;
(PID.TID 0000.0001) phiMin =    /* South edge (ignored - cartesian, degrees - spherical ) */
(PID.TID 0000.0001)                -8.400000000000000E+01
(PID.TID 0000.0001)     ;
(PID.TID 0000.0001) thetaMin =    /* West edge ( ignored - cartesian, degrees - spherical ) */
(PID.TID 0000.0001)                 0.000000000000000E+00
(PID.TID 0000.0001)     ;
(PID.TID 0000.0001) rSphere =    /* Radius ( ignored - cartesian, m - spherical ) */
(PID.TID 0000.0001)                 6.370000000000000E+06
(PID.TID 0000.0001)     ;
(PID.TID 0000.0001) xcoord =   /* P-point X coord ( m - cartesian, degrees - spherical ) */
(PID.TID 0000.0001)                 1.500000000000000E+00       /* I =  1 */
(PID.TID 0000.0001)     ;
(PID.TID 0000.0001) ycoord =   /* P-point Y coord ( m - cartesian, degrees - spherical ) */
(PID.TID 0000.0001)                -8.250000000000000E+01,      /* J =  1 */
(PID.TID 0000.0001)                -7.950000000000000E+01,      /* J =  2 */
(PID.TID 0000.0001)                -7.650000000000000E+01,      /* J =  3 */
(PID.TID 0000.0001)                -7.350000000000000E+01,      /* J =  4 */
(PID.TID 0000.0001)                -7.050000000000000E+01,      /* J =  5 */
(PID.TID 0000.0001)                -6.750000000000000E+01,      /* J =  6 */
(PID.TID 0000.0001)                -6.450000000000000E+01,      /* J =  7 */
(PID.TID 0000.0001)                -6.150000000000000E+01,      /* J =  8 */
(PID.TID 0000.0001)                -5.850000000000000E+01,      /* J =  9 */
(PID.TID 0000.0001)                -5.550000000000000E+01,      /* J = 10 */
(PID.TID 0000.0001)                -5.250000000000000E+01,      /* J = 11 */
(PID.TID 0000.0001)                -4.950000000000000E+01,      /* J = 12 */
(PID.TID 0000.0001)                -4.650000000000000E+01,      /* J = 13 */
(PID.TID 0000.0001)                -4.350000000000000E+01,      /* J = 14 */
(PID.TID 0000.0001)                -4.050000000000000E+01,      /* J = 15 */
(PID.TID 0000.0001)                -3.750000000000000E+01,      /* J = 16 */
(PID.TID 0000.0001)                -3.450000000000000E+01,      /* J = 17 */
(PID.TID 0000.0001)                -3.150000000000000E+01,      /* J = 18 */
(PID.TID 0000.0001)                -2.850000000000000E+01,      /* J = 19 */
(PID.TID 0000.0001)                -2.550000000000000E+01,      /* J = 20 */
(PID.TID 0000.0001)                -2.250000000000000E+01,      /* J = 21 */
(PID.TID 0000.0001)                -1.950000000000000E+01,      /* J = 22 */
(PID.TID 0000.0001)                -1.650000000000000E+01,      /* J = 23 */
(PID.TID 0000.0001)                -1.350000000000000E+01,      /* J = 24 */
(PID.TID 0000.0001)                -1.050000000000000E+01,      /* J = 25 */
(PID.TID 0000.0001)                -7.500000000000000E+00,      /* J = 26 */
(PID.TID 0000.0001)                -4.500000000000000E+00,      /* J = 27 */
(PID.TID 0000.0001)                -1.500000000000000E+00,      /* J = 28 */
(PID.TID 0000.0001)                 1.500000000000000E+00,      /* J = 29 */
(PID.TID 0000.0001)                 4.500000000000000E+00,      /* J = 30 */
(PID.TID 0000.0001)                 7.500000000000000E+00,      /* J = 31 */
(PID.TID 0000.0001)                 1.050000000000000E+01,      /* J = 32 */
(PID.TID 0000.0001)                 1.350000000000000E+01,      /* J = 33 */
(PID.TID 0000.0001)                 1.650000000000000E+01,      /* J = 34 */
(PID.TID 0000.0001)                 1.950000000000000E+01,      /* J = 35 */
(PID.TID 0000.0001)                 2.250000000000000E+01,      /* J = 36 */
(PID.TID 0000.0001)                 2.550000000000000E+01,      /* J = 37 */
(PID.TID 0000.0001)                 2.850000000000000E+01,      /* J = 38 */
(PID.TID 0000.0001)                 3.150000000000000E+01,      /* J = 39 */
(PID.TID 0000.0001)                 3.450000000000000E+01,      /* J = 40 */
(PID.TID 0000.0001)                 3.750000000000000E+01,      /* J = 41 */
(PID.TID 0000.0001)                 4.050000000000000E+01,      /* J = 42 */
(PID.TID 0000.0001)                 4.350000000000000E+01,      /* J = 43 */
(PID.TID 0000.0001)                 4.650000000000000E+01,      /* J = 44 */
(PID.TID 0000.0001)                 4.950000000000000E+01,      /* J = 45 */
(PID.TID 0000.0001)                 5.250000000000000E+01,      /* J = 46 */
(PID.TID 0000.0001)                 5.550000000000000E+01,      /* J = 47 */
(PID.TID 0000.0001)                 5.850000000000000E+01,      /* J = 48 */
(PID.TID 0000.0001)                 6.150000000000000E+01,      /* J = 49 */
(PID.TID 0000.0001)                 6.450000000000000E+01,      /* J = 50 */
(PID.TID 0000.0001)                 6.750000000000000E+01,      /* J = 51 */
(PID.TID 0000.0001)                 7.050000000000000E+01,      /* J = 52 */
(PID.TID 0000.0001)                 7.350000000000000E+01,      /* J = 53 */
(PID.TID 0000.0001)                 7.650000000000000E+01,      /* J = 54 */
(PID.TID 0000.0001)                 7.950000000000000E+01,      /* J = 55 */
(PID.TID 0000.0001)                 8.250000000000000E+01       /* J = 56 */
(PID.TID 0000.0001)     ;
(PID.TID 0000.0001) rcoord =   /* P-point R coordinate (  units of r ) */
(PID.TID 0000.0001)                -2.000000000000000E+01,      /* K =  1 */
(PID.TID 0000.0001)                -8.000000000000000E+01,      /* K =  2 */
(PID.TID 0000.0001)                -1.650000000000000E+02,      /* K =  3 */
(PID.TID 0000.0001)                -2.850000000000000E+02,      /* K =  4 */
(PID.TID 0000.0001)                -4.500000000000000E+02,      /* K =  5 */
(PID.TID 0000.0001)                -6.650000000000000E+02,      /* K =  6 */
(PID.TID 0000.0001)                -9.300000000000000E+02,      /* K =  7 */
(PID.TID 0000.0001)                -1.245000000000000E+03,      /* K =  8 */
(PID.TID 0000.0001)                -1.610000000000000E+03,      /* K =  9 */
(PID.TID 0000.0001)                -2.025000000000000E+03,      /* K = 10 */
(PID.TID 0000.0001)                -2.490000000000000E+03,      /* K = 11 */
(PID.TID 0000.0001)                -3.005000000000000E+03,      /* K = 12 */
(PID.TID 0000.0001)                -3.570000000000000E+03,      /* K = 13 */
(PID.TID 0000.0001)                -4.185000000000000E+03,      /* K = 14 */
(PID.TID 0000.0001)                -4.850000000000000E+03       /* K = 15 */
(PID.TID 0000.0001)     ;
(PID.TID 0000.0001) rF =   /* W-Interf. R coordinate (  units of r ) */
(PID.TID 0000.0001)                 0.000000000000000E+00,      /* K =  1 */
(PID.TID 0000.0001)                -5.000000000000000E+01,      /* K =  2 */
(PID.TID 0000.0001)                -1.225000000000000E+02,      /* K =  3 */
(PID.TID 0000.0001)                -2.250000000000000E+02,      /* K =  4 */
(PID.TID 0000.0001)                -3.675000000000000E+02,      /* K =  5 */
(PID.TID 0000.0001)                -5.575000000000000E+02,      /* K =  6 */
(PID.TID 0000.0001)                -7.975000000000000E+02,      /* K =  7 */
(PID.TID 0000.0001)                -1.087500000000000E+03,      /* K =  8 */
(PID.TID 0000.0001)                -1.427500000000000E+03,      /* K =  9 */
(PID.TID 0000.0001)                -1.817500000000000E+03,      /* K = 10 */
(PID.TID 0000.0001)                -2.257500000000000E+03,      /* K = 11 */
(PID.TID 0000.0001)                -2.747500000000000E+03,      /* K = 12 */
(PID.TID 0000.0001)                -3.287500000000000E+03,      /* K = 13 */
(PID.TID 0000.0001)                -3.877500000000000E+03,      /* K = 14 */
(PID.TID 0000.0001)                -4.517500000000000E+03,      /* K = 15 */
(PID.TID 0000.0001)                -5.200000000000000E+03       /* K = 16 */
(PID.TID 0000.0001)     ;
(PID.TID 0000.0001) dxF =  /* dxF(:,1,:,1) ( m - cartesian, degrees - spherical ) */
(PID.TID 0000.0001)                 4.353471677186368E+04       /* I =  1 */
(PID.TID 0000.0001)     ;
(PID.TID 0000.0001) dxF =  /* dxF(1,:,1,:) ( m - cartesian, degrees - spherical ) */
(PID.TID 0000.0001)                 4.353471677186368E+04,      /* J =  1 */
(PID.TID 0000.0001)                 6.078145583759403E+04,      /* J =  2 */
(PID.TID 0000.0001)                 7.786159715774079E+04,      /* J =  3 */
(PID.TID 0000.0001)                 9.472832525217145E+04,      /* J =  4 */
(PID.TID 0000.0001)                 1.113354095915710E+05,      /* J =  5 */
(PID.TID 0000.0001)                 1.276373313121095E+05,      /* J =  6 */
(PID.TID 0000.0001)                 1.435894079794837E+05,      /* J =  7 */
(PID.TID 0000.0001)                 1.591479160603634E+05,      /* J =  8 */
(PID.TID 0000.0001)                 1.742702107655578E+05,      /* J =  9 */
(PID.TID 0000.0001)                 1.889148429364175E+05,      /* J = 10 */
(PID.TID 0000.0001)                 2.030416726540983E+05,      /* J = 11 */
(PID.TID 0000.0001)                 2.166119792602878E+05,      /* J = 12 */
(PID.TID 0000.0001)                 2.295885674878389E+05,      /* J = 13 */
(PID.TID 0000.0001)                 2.419358694104115E+05,      /* J = 14 */
(PID.TID 0000.0001)                 2.536200419316863E+05,      /* J = 15 */
(PID.TID 0000.0001)                 2.646090595469393E+05,      /* J = 16 */
(PID.TID 0000.0001)                 2.748728021227244E+05,      /* J = 17 */
(PID.TID 0000.0001)                 2.843831374540652E+05,      /* J = 18 */
(PID.TID 0000.0001)                 2.931139983728740E+05,      /* J = 19 */
(PID.TID 0000.0001)                 3.010414541962469E+05,      /* J = 20 */
(PID.TID 0000.0001)                 3.081437763188029E+05,      /* J = 21 */
(PID.TID 0000.0001)                 3.144014977692803E+05,      /* J = 22 */
(PID.TID 0000.0001)                 3.197974665681523E+05,      /* J = 23 */
(PID.TID 0000.0001)                 3.243168927400103E+05,      /* J = 24 */
(PID.TID 0000.0001)                 3.279473888518588E+05,      /* J = 25 */
(PID.TID 0000.0001)                 3.306790039662078E+05,      /* J = 26 */
(PID.TID 0000.0001)                 3.325042509159012E+05,      /* J = 27 */
(PID.TID 0000.0001)     2 @  3.334181268259212E+05,             /* J = 28: 29 */
(PID.TID 0000.0001)                 3.325042509159012E+05,      /* J = 30 */
(PID.TID 0000.0001)                 3.306790039662078E+05,      /* J = 31 */
(PID.TID 0000.0001)                 3.279473888518588E+05,      /* J = 32 */
(PID.TID 0000.0001)                 3.243168927400103E+05,      /* J = 33 */
(PID.TID 0000.0001)                 3.197974665681523E+05,      /* J = 34 */
(PID.TID 0000.0001)                 3.144014977692803E+05,      /* J = 35 */
(PID.TID 0000.0001)                 3.081437763188029E+05,      /* J = 36 */
(PID.TID 0000.0001)                 3.010414541962469E+05,      /* J = 37 */
(PID.TID 0000.0001)                 2.931139983728740E+05,      /* J = 38 */
(PID.TID 0000.0001)                 2.843831374540652E+05,      /* J = 39 */
(PID.TID 0000.0001)                 2.748728021227244E+05,      /* J = 40 */
(PID.TID 0000.0001)                 2.646090595469393E+05,      /* J = 41 */
(PID.TID 0000.0001)                 2.536200419316863E+05,      /* J = 42 */
(PID.TID 0000.0001)                 2.419358694104115E+05,      /* J = 43 */
(PID.TID 0000.0001)                 2.295885674878389E+05,      /* J = 44 */
(PID.TID 0000.0001)                 2.166119792602878E+05,      /* J = 45 */
(PID.TID 0000.0001)                 2.030416726540983E+05,      /* J = 46 */
(PID.TID 0000.0001)                 1.889148429364175E+05,      /* J = 47 */
(PID.TID 0000.0001)                 1.742702107655578E+05,      /* J = 48 */
(PID.TID 0000.0001)                 1.591479160603634E+05,      /* J = 49 */
(PID.TID 0000.0001)                 1.435894079794837E+05,      /* J = 50 */
(PID.TID 0000.0001)                 1.276373313121095E+05,      /* J = 51 */
(PID.TID 0000.0001)                 1.113354095915710E+05,      /* J = 52 */
(PID.TID 0000.0001)                 9.472832525217145E+04,      /* J = 53 */
(PID.TID 0000.0001)                 7.786159715774079E+04,      /* J = 54 */
(PID.TID 0000.0001)                 6.078145583759403E+04,      /* J = 55 */
(PID.TID 0000.0001)                 4.353471677186368E+04       /* J = 56 */
(PID.TID 0000.0001)     ;
(PID.TID 0000.0001) dyF =  /* dyF(:,1,:,1) ( m - cartesian, degrees - spherical ) */
(PID.TID 0000.0001)                 3.335324200561164E+05       /* I =  1 */
(PID.TID 0000.0001)     ;
(PID.TID 0000.0001) dyF =  /* dyF(1,:,1,:) ( m - cartesian, degrees - spherical ) */
(PID.TID 0000.0001)    56 @  3.335324200561164E+05              /* J =  1: 56 */
(PID.TID 0000.0001)     ;
(PID.TID 0000.0001) dxG =  /* dxG(:,1,:,1) ( m - cartesian, degrees - spherical ) */
(PID.TID 0000.0001)                 3.486363131840732E+04       /* I =  1 */
(PID.TID 0000.0001)     ;
(PID.TID 0000.0001) dxG =  /* dxG(1,:,1,:) ( m - cartesian, degrees - spherical ) */
(PID.TID 0000.0001)                 3.486363131840732E+04,      /* J =  1 */
(PID.TID 0000.0001)                 5.217596570505215E+04,      /* J =  2 */
(PID.TID 0000.0001)                 6.934528939640634E+04,      /* J =  3 */
(PID.TID 0000.0001)                 8.632454246965688E+04,      /* J =  4 */
(PID.TID 0000.0001)                 1.030671859723435E+05,      /* J =  5 */
(PID.TID 0000.0001)                 1.195273294823922E+05,      /* J =  6 */
(PID.TID 0000.0001)                 1.356598568905725E+05,      /* J =  7 */
(PID.TID 0000.0001)                 1.514205500606167E+05,      /* J =  8 */
(PID.TID 0000.0001)                 1.667662100280582E+05,      /* J =  9 */
(PID.TID 0000.0001)                 1.816547754055899E+05,      /* J = 10 */
(PID.TID 0000.0001)                 1.960454376704035E+05,      /* J = 11 */
(PID.TID 0000.0001)                 2.098987530175138E+05,      /* J = 12 */
(PID.TID 0000.0001)                 2.231767504724865E+05,      /* J = 13 */
(PID.TID 0000.0001)                 2.358430359672399E+05,      /* J = 14 */
(PID.TID 0000.0001)                 2.478628920936555E+05,      /* J = 15 */
(PID.TID 0000.0001)                 2.592033732615809E+05,      /* J = 16 */
(PID.TID 0000.0001)                 2.698333960004017E+05,      /* J = 17 */
(PID.TID 0000.0001)                 2.797238241566748E+05,      /* J = 18 */
(PID.TID 0000.0001)                 2.888475487542992E+05,      /* J = 19 */
(PID.TID 0000.0001)                 2.971795622983349E+05,      /* J = 20 */
(PID.TID 0000.0001)                 3.046970273188090E+05,      /* J = 21 */
(PID.TID 0000.0001)                 3.113793389666330E+05,      /* J = 22 */
(PID.TID 0000.0001)                 3.172081814900619E+05,      /* J = 23 */
(PID.TID 0000.0001)                 3.221675784368968E+05,      /* J = 24 */
(PID.TID 0000.0001)                 3.262439364448301E+05,      /* J = 25 */
(PID.TID 0000.0001)                 3.294260824999060E+05,      /* J = 26 */
(PID.TID 0000.0001)                 3.317052945609760E+05,      /* J = 27 */
(PID.TID 0000.0001)                 3.330753254662066E+05,      /* J = 28 */
(PID.TID 0000.0001)                 3.335324200561164E+05,      /* J = 29 */
(PID.TID 0000.0001)                 3.330753254662066E+05,      /* J = 30 */
(PID.TID 0000.0001)                 3.317052945609760E+05,      /* J = 31 */
(PID.TID 0000.0001)                 3.294260824999060E+05,      /* J = 32 */
(PID.TID 0000.0001)                 3.262439364448301E+05,      /* J = 33 */
(PID.TID 0000.0001)                 3.221675784368968E+05,      /* J = 34 */
(PID.TID 0000.0001)                 3.172081814900619E+05,      /* J = 35 */
(PID.TID 0000.0001)                 3.113793389666330E+05,      /* J = 36 */
(PID.TID 0000.0001)                 3.046970273188090E+05,      /* J = 37 */
(PID.TID 0000.0001)                 2.971795622983349E+05,      /* J = 38 */
(PID.TID 0000.0001)                 2.888475487542992E+05,      /* J = 39 */
(PID.TID 0000.0001)                 2.797238241566748E+05,      /* J = 40 */
(PID.TID 0000.0001)                 2.698333960004017E+05,      /* J = 41 */
(PID.TID 0000.0001)                 2.592033732615809E+05,      /* J = 42 */
(PID.TID 0000.0001)                 2.478628920936555E+05,      /* J = 43 */
(PID.TID 0000.0001)                 2.358430359672399E+05,      /* J = 44 */
(PID.TID 0000.0001)                 2.231767504724865E+05,      /* J = 45 */
(PID.TID 0000.0001)                 2.098987530175138E+05,      /* J = 46 */
(PID.TID 0000.0001)                 1.960454376704035E+05,      /* J = 47 */
(PID.TID 0000.0001)                 1.816547754055899E+05,      /* J = 48 */
(PID.TID 0000.0001)                 1.667662100280582E+05,      /* J = 49 */
(PID.TID 0000.0001)                 1.514205500606167E+05,      /* J = 50 */
(PID.TID 0000.0001)                 1.356598568905725E+05,      /* J = 51 */
(PID.TID 0000.0001)                 1.195273294823922E+05,      /* J = 52 */
(PID.TID 0000.0001)                 1.030671859723435E+05,      /* J = 53 */
(PID.TID 0000.0001)                 8.632454246965688E+04,      /* J = 54 */
(PID.TID 0000.0001)                 6.934528939640634E+04,      /* J = 55 */
(PID.TID 0000.0001)                 5.217596570505215E+04       /* J = 56 */
(PID.TID 0000.0001)     ;
(PID.TID 0000.0001) dyG =  /* dyG(:,1,:,1) ( m - cartesian, degrees - spherical ) */
(PID.TID 0000.0001)                 3.335324200561164E+05       /* I =  1 */
(PID.TID 0000.0001)     ;
(PID.TID 0000.0001) dyG =  /* dyG(1,:,1,:) ( m - cartesian, degrees - spherical ) */
(PID.TID 0000.0001)    56 @  3.335324200561164E+05              /* J =  1: 56 */
(PID.TID 0000.0001)     ;
(PID.TID 0000.0001) dxC =  /* dxC(:,1,:,1) ( m - cartesian, degrees - spherical ) */
(PID.TID 0000.0001)                 4.353471677186368E+04       /* I =  1 */
(PID.TID 0000.0001)     ;
(PID.TID 0000.0001) dxC =  /* dxC(1,:,1,:) ( m - cartesian, degrees - spherical ) */
(PID.TID 0000.0001)                 4.353471677186368E+04,      /* J =  1 */
(PID.TID 0000.0001)                 6.078145583759403E+04,      /* J =  2 */
(PID.TID 0000.0001)                 7.786159715774079E+04,      /* J =  3 */
(PID.TID 0000.0001)                 9.472832525217145E+04,      /* J =  4 */
(PID.TID 0000.0001)                 1.113354095915710E+05,      /* J =  5 */
(PID.TID 0000.0001)                 1.276373313121095E+05,      /* J =  6 */
(PID.TID 0000.0001)                 1.435894079794837E+05,      /* J =  7 */
(PID.TID 0000.0001)                 1.591479160603634E+05,      /* J =  8 */
(PID.TID 0000.0001)                 1.742702107655578E+05,      /* J =  9 */
(PID.TID 0000.0001)                 1.889148429364175E+05,      /* J = 10 */
(PID.TID 0000.0001)                 2.030416726540983E+05,      /* J = 11 */
(PID.TID 0000.0001)                 2.166119792602878E+05,      /* J = 12 */
(PID.TID 0000.0001)                 2.295885674878389E+05,      /* J = 13 */
(PID.TID 0000.0001)                 2.419358694104115E+05,      /* J = 14 */
(PID.TID 0000.0001)                 2.536200419316863E+05,      /* J = 15 */
(PID.TID 0000.0001)                 2.646090595469393E+05,      /* J = 16 */
(PID.TID 0000.0001)                 2.748728021227244E+05,      /* J = 17 */
(PID.TID 0000.0001)                 2.843831374540652E+05,      /* J = 18 */
(PID.TID 0000.0001)                 2.931139983728740E+05,      /* J = 19 */
(PID.TID 0000.0001)                 3.010414541962469E+05,      /* J = 20 */
(PID.TID 0000.0001)                 3.081437763188029E+05,      /* J = 21 */
(PID.TID 0000.0001)                 3.144014977692803E+05,      /* J = 22 */
(PID.TID 0000.0001)                 3.197974665681523E+05,      /* J = 23 */
(PID.TID 0000.0001)                 3.243168927400103E+05,      /* J = 24 */
(PID.TID 0000.0001)                 3.279473888518588E+05,      /* J = 25 */
(PID.TID 0000.0001)                 3.306790039662078E+05,      /* J = 26 */
(PID.TID 0000.0001)                 3.325042509159012E+05,      /* J = 27 */
(PID.TID 0000.0001)     2 @  3.334181268259212E+05,             /* J = 28: 29 */
(PID.TID 0000.0001)                 3.325042509159012E+05,      /* J = 30 */
(PID.TID 0000.0001)                 3.306790039662078E+05,      /* J = 31 */
(PID.TID 0000.0001)                 3.279473888518588E+05,      /* J = 32 */
(PID.TID 0000.0001)                 3.243168927400103E+05,      /* J = 33 */
(PID.TID 0000.0001)                 3.197974665681523E+05,      /* J = 34 */
(PID.TID 0000.0001)                 3.144014977692803E+05,      /* J = 35 */
(PID.TID 0000.0001)                 3.081437763188029E+05,      /* J = 36 */
(PID.TID 0000.0001)                 3.010414541962469E+05,      /* J = 37 */
(PID.TID 0000.0001)                 2.931139983728740E+05,      /* J = 38 */
(PID.TID 0000.0001)                 2.843831374540652E+05,      /* J = 39 */
(PID.TID 0000.0001)                 2.748728021227244E+05,      /* J = 40 */
(PID.TID 0000.0001)                 2.646090595469393E+05,      /* J = 41 */
(PID.TID 0000.0001)                 2.536200419316863E+05,      /* J = 42 */
(PID.TID 0000.0001)                 2.419358694104115E+05,      /* J = 43 */
(PID.TID 0000.0001)                 2.295885674878389E+05,      /* J = 44 */
(PID.TID 0000.0001)                 2.166119792602878E+05,      /* J = 45 */
(PID.TID 0000.0001)                 2.030416726540983E+05,      /* J = 46 */
(PID.TID 0000.0001)                 1.889148429364175E+05,      /* J = 47 */
(PID.TID 0000.0001)                 1.742702107655578E+05,      /* J = 48 */
(PID.TID 0000.0001)                 1.591479160603634E+05,      /* J = 49 */
(PID.TID 0000.0001)                 1.435894079794837E+05,      /* J = 50 */
(PID.TID 0000.0001)                 1.276373313121095E+05,      /* J = 51 */
(PID.TID 0000.0001)                 1.113354095915710E+05,      /* J = 52 */
(PID.TID 0000.0001)                 9.472832525217145E+04,      /* J = 53 */
(PID.TID 0000.0001)                 7.786159715774079E+04,      /* J = 54 */
(PID.TID 0000.0001)                 6.078145583759403E+04,      /* J = 55 */
(PID.TID 0000.0001)                 4.353471677186368E+04       /* J = 56 */
(PID.TID 0000.0001)     ;
(PID.TID 0000.0001) dyC =  /* dyC(:,1,:,1) ( m - cartesian, degrees - spherical ) */
(PID.TID 0000.0001)                 3.335324200561164E+05       /* I =  1 */
(PID.TID 0000.0001)     ;
(PID.TID 0000.0001) dyC =  /* dyC(1,:,1,:) ( m - cartesian, degrees - spherical ) */
(PID.TID 0000.0001)    56 @  3.335324200561164E+05              /* J =  1: 56 */
(PID.TID 0000.0001)     ;
(PID.TID 0000.0001) dxV =  /* dxV(:,1,:,1) ( m - cartesian, degrees - spherical ) */
(PID.TID 0000.0001)                 3.486363131840732E+04       /* I =  1 */
(PID.TID 0000.0001)     ;
(PID.TID 0000.0001) dxV =  /* dxV(1,:,1,:) ( m - cartesian, degrees - spherical ) */
(PID.TID 0000.0001)                 3.486363131840732E+04,      /* J =  1 */
(PID.TID 0000.0001)                 5.217596570505215E+04,      /* J =  2 */
(PID.TID 0000.0001)                 6.934528939640634E+04,      /* J =  3 */
(PID.TID 0000.0001)                 8.632454246965688E+04,      /* J =  4 */
(PID.TID 0000.0001)                 1.030671859723435E+05,      /* J =  5 */
(PID.TID 0000.0001)                 1.195273294823922E+05,      /* J =  6 */
(PID.TID 0000.0001)                 1.356598568905725E+05,      /* J =  7 */
(PID.TID 0000.0001)                 1.514205500606167E+05,      /* J =  8 */
(PID.TID 0000.0001)                 1.667662100280582E+05,      /* J =  9 */
(PID.TID 0000.0001)                 1.816547754055899E+05,      /* J = 10 */
(PID.TID 0000.0001)                 1.960454376704035E+05,      /* J = 11 */
(PID.TID 0000.0001)                 2.098987530175138E+05,      /* J = 12 */
(PID.TID 0000.0001)                 2.231767504724865E+05,      /* J = 13 */
(PID.TID 0000.0001)                 2.358430359672399E+05,      /* J = 14 */
(PID.TID 0000.0001)                 2.478628920936555E+05,      /* J = 15 */
(PID.TID 0000.0001)                 2.592033732615809E+05,      /* J = 16 */
(PID.TID 0000.0001)                 2.698333960004017E+05,      /* J = 17 */
(PID.TID 0000.0001)                 2.797238241566748E+05,      /* J = 18 */
(PID.TID 0000.0001)                 2.888475487542992E+05,      /* J = 19 */
(PID.TID 0000.0001)                 2.971795622983349E+05,      /* J = 20 */
(PID.TID 0000.0001)                 3.046970273188090E+05,      /* J = 21 */
(PID.TID 0000.0001)                 3.113793389666330E+05,      /* J = 22 */
(PID.TID 0000.0001)                 3.172081814900619E+05,      /* J = 23 */
(PID.TID 0000.0001)                 3.221675784368968E+05,      /* J = 24 */
(PID.TID 0000.0001)                 3.262439364448301E+05,      /* J = 25 */
(PID.TID 0000.0001)                 3.294260824999060E+05,      /* J = 26 */
(PID.TID 0000.0001)                 3.317052945609760E+05,      /* J = 27 */
(PID.TID 0000.0001)                 3.330753254662066E+05,      /* J = 28 */
(PID.TID 0000.0001)                 3.335324200561164E+05,      /* J = 29 */
(PID.TID 0000.0001)                 3.330753254662066E+05,      /* J = 30 */
(PID.TID 0000.0001)                 3.317052945609760E+05,      /* J = 31 */
(PID.TID 0000.0001)                 3.294260824999060E+05,      /* J = 32 */
(PID.TID 0000.0001)                 3.262439364448301E+05,      /* J = 33 */
(PID.TID 0000.0001)                 3.221675784368968E+05,      /* J = 34 */
(PID.TID 0000.0001)                 3.172081814900619E+05,      /* J = 35 */
(PID.TID 0000.0001)                 3.113793389666330E+05,      /* J = 36 */
(PID.TID 0000.0001)                 3.046970273188090E+05,      /* J = 37 */
(PID.TID 0000.0001)                 2.971795622983349E+05,      /* J = 38 */
(PID.TID 0000.0001)                 2.888475487542992E+05,      /* J = 39 */
(PID.TID 0000.0001)                 2.797238241566748E+05,      /* J = 40 */
(PID.TID 0000.0001)                 2.698333960004017E+05,      /* J = 41 */
(PID.TID 0000.0001)                 2.592033732615809E+05,      /* J = 42 */
(PID.TID 0000.0001)                 2.478628920936555E+05,      /* J = 43 */
(PID.TID 0000.0001)                 2.358430359672399E+05,      /* J = 44 */
(PID.TID 0000.0001)                 2.231767504724865E+05,      /* J = 45 */
(PID.TID 0000.0001)                 2.098987530175138E+05,      /* J = 46 */
(PID.TID 0000.0001)                 1.960454376704035E+05,      /* J = 47 */
(PID.TID 0000.0001)                 1.816547754055899E+05,      /* J = 48 */
(PID.TID 0000.0001)                 1.667662100280582E+05,      /* J = 49 */
(PID.TID 0000.0001)                 1.514205500606167E+05,      /* J = 50 */
(PID.TID 0000.0001)                 1.356598568905725E+05,      /* J = 51 */
(PID.TID 0000.0001)                 1.195273294823922E+05,      /* J = 52 */
(PID.TID 0000.0001)                 1.030671859723435E+05,      /* J = 53 */
(PID.TID 0000.0001)                 8.632454246965688E+04,      /* J = 54 */
(PID.TID 0000.0001)                 6.934528939640634E+04,      /* J = 55 */
(PID.TID 0000.0001)                 5.217596570505215E+04       /* J = 56 */
(PID.TID 0000.0001)     ;
(PID.TID 0000.0001) dyU =  /* dyU(:,1,:,1) ( m - cartesian, degrees - spherical ) */
(PID.TID 0000.0001)                 3.335324200561164E+05       /* I =  1 */
(PID.TID 0000.0001)     ;
(PID.TID 0000.0001) dyU =  /* dyU(1,:,1,:) ( m - cartesian, degrees - spherical ) */
(PID.TID 0000.0001)    56 @  3.335324200561164E+05              /* J =  1: 56 */
(PID.TID 0000.0001)     ;
(PID.TID 0000.0001) rA =  /* rA(:,1,:,1) ( m - cartesian, degrees - spherical ) */
(PID.TID 0000.0001)                 1.451858082901546E+10       /* I =  1 */
(PID.TID 0000.0001)     ;
(PID.TID 0000.0001) rA =  /* rA(1,:,1,:) ( m - cartesian, degrees - spherical ) */
(PID.TID 0000.0001)                 1.451858082901546E+10,      /* J =  1 */
(PID.TID 0000.0001)                 2.027027037083390E+10,      /* J =  2 */
(PID.TID 0000.0001)                 2.596640051053467E+10,      /* J =  3 */
(PID.TID 0000.0001)                 3.159135855133887E+10,      /* J =  4 */
(PID.TID 0000.0001)                 3.712972687424193E+10,      /* J =  5 */
(PID.TID 0000.0001)                 4.256632519663847E+10,      /* J =  6 */
(PID.TID 0000.0001)                 4.788625218042024E+10,      /* J =  7 */
(PID.TID 0000.0001)                 5.307492627550772E+10,      /* J =  8 */
(PID.TID 0000.0001)                 5.811812568686682E+10,      /* J =  9 */
(PID.TID 0000.0001)                 6.300202735545998E+10,      /* J = 10 */
(PID.TID 0000.0001)                 6.771324484628883E+10,      /* J = 11 */
(PID.TID 0000.0001)                 7.223886503968408E+10,      /* J = 12 */
(PID.TID 0000.0001)                 7.656648352526764E+10,      /* J = 13 */
(PID.TID 0000.0001)                 8.068423860157896E+10,      /* J = 14 */
(PID.TID 0000.0001)                 8.458084378817654E+10,      /* J = 15 */
(PID.TID 0000.0001)                 8.824561876109261E+10,      /* J = 16 */
(PID.TID 0000.0001)                 9.166851862686259E+10,      /* J = 17 */
(PID.TID 0000.0001)                 9.484016145487708E+10,      /* J = 18 */
(PID.TID 0000.0001)                 9.775185399260219E+10,      /* J = 19 */
(PID.TID 0000.0001)                 1.003956154931818E+11,      /* J = 20 */
(PID.TID 0000.0001)                 1.027641995901083E+11,      /* J = 21 */
(PID.TID 0000.0001)                 1.048511141590103E+11,      /* J = 22 */
(PID.TID 0000.0001)                 1.066506391121139E+11,      /* J = 23 */
(PID.TID 0000.0001)                 1.081578420766062E+11,      /* J = 24 */
(PID.TID 0000.0001)                 1.093685919139261E+11,      /* J = 25 */
(PID.TID 0000.0001)                 1.102795700429274E+11,      /* J = 26 */
(PID.TID 0000.0001)                 1.108882795358801E+11,      /* J = 27 */
(PID.TID 0000.0001)     2 @  1.111930519623746E+11,             /* J = 28: 29 */
(PID.TID 0000.0001)                 1.108882795358801E+11,      /* J = 30 */
(PID.TID 0000.0001)                 1.102795700429274E+11,      /* J = 31 */
(PID.TID 0000.0001)                 1.093685919139261E+11,      /* J = 32 */
(PID.TID 0000.0001)                 1.081578420766062E+11,      /* J = 33 */
(PID.TID 0000.0001)                 1.066506391121138E+11,      /* J = 34 */
(PID.TID 0000.0001)                 1.048511141590102E+11,      /* J = 35 */
(PID.TID 0000.0001)                 1.027641995901083E+11,      /* J = 36 */
(PID.TID 0000.0001)                 1.003956154931817E+11,      /* J = 37 */
(PID.TID 0000.0001)                 9.775185399260213E+10,      /* J = 38 */
(PID.TID 0000.0001)                 9.484016145487704E+10,      /* J = 39 */
(PID.TID 0000.0001)                 9.166851862686264E+10,      /* J = 40 */
(PID.TID 0000.0001)                 8.824561876109264E+10,      /* J = 41 */
(PID.TID 0000.0001)                 8.458084378817656E+10,      /* J = 42 */
(PID.TID 0000.0001)                 8.068423860157892E+10,      /* J = 43 */
(PID.TID 0000.0001)                 7.656648352526752E+10,      /* J = 44 */
(PID.TID 0000.0001)                 7.223886503968408E+10,      /* J = 45 */
(PID.TID 0000.0001)                 6.771324484628897E+10,      /* J = 46 */
(PID.TID 0000.0001)                 6.300202735546008E+10,      /* J = 47 */
(PID.TID 0000.0001)                 5.811812568686684E+10,      /* J = 48 */
(PID.TID 0000.0001)                 5.307492627550762E+10,      /* J = 49 */
(PID.TID 0000.0001)                 4.788625218042004E+10,      /* J = 50 */
(PID.TID 0000.0001)                 4.256632519663847E+10,      /* J = 51 */
(PID.TID 0000.0001)                 3.712972687424196E+10,      /* J = 52 */
(PID.TID 0000.0001)                 3.159135855133886E+10,      /* J = 53 */
(PID.TID 0000.0001)                 2.596640051053464E+10,      /* J = 54 */
(PID.TID 0000.0001)                 2.027027037083394E+10,      /* J = 55 */
(PID.TID 0000.0001)                 1.451858082901547E+10       /* J = 56 */
(PID.TID 0000.0001)     ;
(PID.TID 0000.0001) rAw =  /* rAw(:,1,:,1) ( m - cartesian, degrees - spherical ) */
(PID.TID 0000.0001)                 1.451858082901546E+10       /* I =  1 */
(PID.TID 0000.0001)     ;
(PID.TID 0000.0001) rAw =  /* rAw(1,:,1,:) ( m - cartesian, degrees - spherical ) */
(PID.TID 0000.0001)                 1.451858082901546E+10,      /* J =  1 */
(PID.TID 0000.0001)                 2.027027037083390E+10,      /* J =  2 */
(PID.TID 0000.0001)                 2.596640051053467E+10,      /* J =  3 */
(PID.TID 0000.0001)                 3.159135855133887E+10,      /* J =  4 */
(PID.TID 0000.0001)                 3.712972687424193E+10,      /* J =  5 */
(PID.TID 0000.0001)                 4.256632519663847E+10,      /* J =  6 */
(PID.TID 0000.0001)                 4.788625218042024E+10,      /* J =  7 */
(PID.TID 0000.0001)                 5.307492627550772E+10,      /* J =  8 */
(PID.TID 0000.0001)                 5.811812568686682E+10,      /* J =  9 */
(PID.TID 0000.0001)                 6.300202735545998E+10,      /* J = 10 */
(PID.TID 0000.0001)                 6.771324484628883E+10,      /* J = 11 */
(PID.TID 0000.0001)                 7.223886503968408E+10,      /* J = 12 */
(PID.TID 0000.0001)                 7.656648352526764E+10,      /* J = 13 */
(PID.TID 0000.0001)                 8.068423860157896E+10,      /* J = 14 */
(PID.TID 0000.0001)                 8.458084378817654E+10,      /* J = 15 */
(PID.TID 0000.0001)                 8.824561876109261E+10,      /* J = 16 */
(PID.TID 0000.0001)                 9.166851862686259E+10,      /* J = 17 */
(PID.TID 0000.0001)                 9.484016145487708E+10,      /* J = 18 */
(PID.TID 0000.0001)                 9.775185399260219E+10,      /* J = 19 */
(PID.TID 0000.0001)                 1.003956154931818E+11,      /* J = 20 */
(PID.TID 0000.0001)                 1.027641995901083E+11,      /* J = 21 */
(PID.TID 0000.0001)                 1.048511141590103E+11,      /* J = 22 */
(PID.TID 0000.0001)                 1.066506391121139E+11,      /* J = 23 */
(PID.TID 0000.0001)                 1.081578420766062E+11,      /* J = 24 */
(PID.TID 0000.0001)                 1.093685919139261E+11,      /* J = 25 */
(PID.TID 0000.0001)                 1.102795700429274E+11,      /* J = 26 */
(PID.TID 0000.0001)                 1.108882795358801E+11,      /* J = 27 */
(PID.TID 0000.0001)     2 @  1.111930519623746E+11,             /* J = 28: 29 */
(PID.TID 0000.0001)                 1.108882795358801E+11,      /* J = 30 */
(PID.TID 0000.0001)                 1.102795700429274E+11,      /* J = 31 */
(PID.TID 0000.0001)                 1.093685919139261E+11,      /* J = 32 */
(PID.TID 0000.0001)                 1.081578420766062E+11,      /* J = 33 */
(PID.TID 0000.0001)                 1.066506391121138E+11,      /* J = 34 */
(PID.TID 0000.0001)                 1.048511141590102E+11,      /* J = 35 */
(PID.TID 0000.0001)                 1.027641995901083E+11,      /* J = 36 */
(PID.TID 0000.0001)                 1.003956154931817E+11,      /* J = 37 */
(PID.TID 0000.0001)                 9.775185399260213E+10,      /* J = 38 */
(PID.TID 0000.0001)                 9.484016145487704E+10,      /* J = 39 */
(PID.TID 0000.0001)                 9.166851862686264E+10,      /* J = 40 */
(PID.TID 0000.0001)                 8.824561876109264E+10,      /* J = 41 */
(PID.TID 0000.0001)                 8.458084378817656E+10,      /* J = 42 */
(PID.TID 0000.0001)                 8.068423860157892E+10,      /* J = 43 */
(PID.TID 0000.0001)                 7.656648352526752E+10,      /* J = 44 */
(PID.TID 0000.0001)                 7.223886503968408E+10,      /* J = 45 */
(PID.TID 0000.0001)                 6.771324484628897E+10,      /* J = 46 */
(PID.TID 0000.0001)                 6.300202735546008E+10,      /* J = 47 */
(PID.TID 0000.0001)                 5.811812568686684E+10,      /* J = 48 */
(PID.TID 0000.0001)                 5.307492627550762E+10,      /* J = 49 */
(PID.TID 0000.0001)                 4.788625218042004E+10,      /* J = 50 */
(PID.TID 0000.0001)                 4.256632519663847E+10,      /* J = 51 */
(PID.TID 0000.0001)                 3.712972687424196E+10,      /* J = 52 */
(PID.TID 0000.0001)                 3.159135855133886E+10,      /* J = 53 */
(PID.TID 0000.0001)                 2.596640051053464E+10,      /* J = 54 */
(PID.TID 0000.0001)                 2.027027037083394E+10,      /* J = 55 */
(PID.TID 0000.0001)                 1.451858082901547E+10       /* J = 56 */
(PID.TID 0000.0001)     ;
(PID.TID 0000.0001) rAs =  /* rAs(:,1,:,1) ( m - cartesian, degrees - spherical ) */
(PID.TID 0000.0001)                 1.162682306954696E+10       /* I =  1 */
(PID.TID 0000.0001)     ;
(PID.TID 0000.0001) rAs =  /* rAs(1,:,1,:) ( m - cartesian, degrees - spherical ) */
(PID.TID 0000.0001)                 1.162682306954696E+10,      /* J =  1 */
(PID.TID 0000.0001)                 1.740038827840318E+10,      /* J =  2 */
(PID.TID 0000.0001)                 2.312626023247482E+10,      /* J =  3 */
(PID.TID 0000.0001)                 2.878874471473554E+10,      /* J =  4 */
(PID.TID 0000.0001)                 3.437232124881430E+10,      /* J =  5 */
(PID.TID 0000.0001)                 3.986168563954114E+10,      /* J =  6 */
(PID.TID 0000.0001)                 4.524179192068169E+10,      /* J =  7 */
(PID.TID 0000.0001)                 5.049789359488567E+10,      /* J =  8 */
(PID.TID 0000.0001)                 5.561558405281214E+10,      /* J =  9 */
(PID.TID 0000.0001)                 6.058083606064120E+10,      /* J = 10 */
(PID.TID 0000.0001)                 6.538004020775071E+10,      /* J = 11 */
(PID.TID 0000.0001)                 7.000004220916159E+10,      /* J = 12 */
(PID.TID 0000.0001)                 7.442817896052026E+10,      /* J = 13 */
(PID.TID 0000.0001)                 7.865231324678773E+10,      /* J = 14 */
(PID.TID 0000.0001)                 8.266086700950056E+10,      /* J = 15 */
(PID.TID 0000.0001)                 8.644285308142706E+10,      /* J = 16 */
(PID.TID 0000.0001)                 8.998790530162650E+10,      /* J = 17 */
(PID.TID 0000.0001)                 9.328630692837668E+10,      /* J = 18 */
(PID.TID 0000.0001)                 9.632901727208780E+10,      /* J = 19 */
(PID.TID 0000.0001)                 9.910769647520416E+10,      /* J = 20 */
(PID.TID 0000.0001)                 1.016147283711734E+11,      /* J = 21 */
(PID.TID 0000.0001)                 1.038432413598304E+11,      /* J = 22 */
(PID.TID 0000.0001)                 1.057871272419753E+11,      /* J = 23 */
(PID.TID 0000.0001)                 1.074410579615232E+11,      /* J = 24 */
(PID.TID 0000.0001)                 1.088005002093347E+11,      /* J = 25 */
(PID.TID 0000.0001)                 1.098617278487027E+11,      /* J = 26 */
(PID.TID 0000.0001)                 1.106218321284322E+11,      /* J = 27 */
(PID.TID 0000.0001)                 1.110787296555271E+11,      /* J = 28 */
(PID.TID 0000.0001)                 1.112311681056240E+11,      /* J = 29 */
(PID.TID 0000.0001)                 1.110787296555271E+11,      /* J = 30 */
(PID.TID 0000.0001)                 1.106218321284322E+11,      /* J = 31 */
(PID.TID 0000.0001)                 1.098617278487027E+11,      /* J = 32 */
(PID.TID 0000.0001)                 1.088005002093347E+11,      /* J = 33 */
(PID.TID 0000.0001)                 1.074410579615232E+11,      /* J = 34 */
(PID.TID 0000.0001)                 1.057871272419753E+11,      /* J = 35 */
(PID.TID 0000.0001)                 1.038432413598305E+11,      /* J = 36 */
(PID.TID 0000.0001)                 1.016147283711734E+11,      /* J = 37 */
(PID.TID 0000.0001)                 9.910769647520409E+10,      /* J = 38 */
(PID.TID 0000.0001)                 9.632901727208765E+10,      /* J = 39 */
(PID.TID 0000.0001)                 9.328630692837668E+10,      /* J = 40 */
(PID.TID 0000.0001)                 8.998790530162660E+10,      /* J = 41 */
(PID.TID 0000.0001)                 8.644285308142712E+10,      /* J = 42 */
(PID.TID 0000.0001)                 8.266086700950056E+10,      /* J = 43 */
(PID.TID 0000.0001)                 7.865231324678767E+10,      /* J = 44 */
(PID.TID 0000.0001)                 7.442817896052028E+10,      /* J = 45 */
(PID.TID 0000.0001)                 7.000004220916158E+10,      /* J = 46 */
(PID.TID 0000.0001)                 6.538004020775074E+10,      /* J = 47 */
(PID.TID 0000.0001)                 6.058083606064124E+10,      /* J = 48 */
(PID.TID 0000.0001)                 5.561558405281208E+10,      /* J = 49 */
(PID.TID 0000.0001)                 5.049789359488557E+10,      /* J = 50 */
(PID.TID 0000.0001)                 4.524179192068160E+10,      /* J = 51 */
(PID.TID 0000.0001)                 3.986168563954120E+10,      /* J = 52 */
(PID.TID 0000.0001)                 3.437232124881444E+10,      /* J = 53 */
(PID.TID 0000.0001)                 2.878874471473555E+10,      /* J = 54 */
(PID.TID 0000.0001)                 2.312626023247481E+10,      /* J = 55 */
(PID.TID 0000.0001)                 1.740038827840322E+10       /* J = 56 */
(PID.TID 0000.0001)     ;
(PID.TID 0000.0001) 
(PID.TID 0000.0001)  MDSREADFIELD: opening global file: pickup.0000036000
(PID.TID 0000.0001)  MDSREADFIELD: opening global file: pickup.0000036000
(PID.TID 0000.0001)  MDSREADFIELD: opening global file: pickup.0000036000
(PID.TID 0000.0001)  MDSREADFIELD: opening global file: pickup.0000036000
(PID.TID 0000.0001)  MDSREADFIELD: opening global file: pickup.0000036000
(PID.TID 0000.0001)  MDSREADFIELD: opening global file: pickup.0000036000
(PID.TID 0000.0001)  MDSREADFIELD: opening global file: pickup.0000036000
(PID.TID 0000.0001)  MDSREADFIELD: opening global file: pickup.0000036000
(PID.TID 0000.0001)  MDSREADFIELD: opening global file: pickup.0000036000
(PID.TID 0000.0001)  MDSREADFIELD: opening global file: pickup.0000036000
(PID.TID 0000.0001)  MDSREADFIELD: opening global file: pickup.0000036000
(PID.TID 0000.0001)  MDSREADFIELD: opening global file: pickup.0000036000
(PID.TID 0000.0001)  MDSREADFIELD: opening global file: pickup.0000036000
(PID.TID 0000.0001)  MDSREADFIELD: opening global file: pickup_cd.0000036000
(PID.TID 0000.0001)  MDSREADFIELD: opening global file: pickup_cd.0000036000
(PID.TID 0000.0001)  MDSREADFIELD: opening global file: pickup_cd.0000036000
(PID.TID 0000.0001)  MDSREADFIELD: opening global file: pickup_cd.0000036000
(PID.TID 0000.0001)  MDSREADFIELD: opening global file: pickup_cd.0000036000
(PID.TID 0000.0001)  MDSREADFIELD: opening global file: taux_sl.bin
(PID.TID 0000.0001)  MDSREADFIELD: opening global file: sst_sl.bin
(PID.TID 0000.0001) // =======================================================
(PID.TID 0000.0001) // Model current state
(PID.TID 0000.0001) // =======================================================
(PID.TID 0000.0001) 
(PID.TID 0000.0001) // =======================================================
(PID.TID 0000.0001) // Begin MONITOR dynamic field statistics
(PID.TID 0000.0001) // =======================================================
(PID.TID 0000.0001) %MON time_tsnumber                =                 36000
(PID.TID 0000.0001) %MON time_secondsf                =   3.1104000000000E+09
(PID.TID 0000.0001) %MON dynstat_eta_max              =   1.6201005177854E+00
(PID.TID 0000.0001) %MON dynstat_eta_min              =  -3.9377441396023E+00
(PID.TID 0000.0001) %MON dynstat_eta_mean             =  -1.4891985601166E-16
(PID.TID 0000.0001) %MON dynstat_eta_sd               =   1.6563991723224E+00
(PID.TID 0000.0001) %MON dynstat_eta_del2             =   1.3977066220033E-02
(PID.TID 0000.0001) %MON dynstat_uvel_max             =   1.4272657430544E-01
(PID.TID 0000.0001) %MON dynstat_uvel_min             =  -3.8630916679110E-01
(PID.TID 0000.0001) %MON dynstat_uvel_mean            =   1.2659893360806E-02
(PID.TID 0000.0001) %MON dynstat_uvel_sd              =   3.8710511996223E-02
(PID.TID 0000.0001) %MON dynstat_uvel_del2            =   6.1842820168116E-04
(PID.TID 0000.0001) %MON dynstat_vvel_max             =   2.2999750655636E-02
(PID.TID 0000.0001) %MON dynstat_vvel_min             =  -2.2999750655604E-02
(PID.TID 0000.0001) %MON dynstat_vvel_mean            =   1.0386447942627E-15
(PID.TID 0000.0001) %MON dynstat_vvel_sd              =   1.5486266626369E-03
(PID.TID 0000.0001) %MON dynstat_vvel_del2            =   7.2795151559418E-05
(PID.TID 0000.0001) %MON dynstat_wvel_max             =   1.3691712526229E-06
(PID.TID 0000.0001) %MON dynstat_wvel_min             =  -8.1261601801594E-07
(PID.TID 0000.0001) %MON dynstat_wvel_mean            =   2.9282689047677E-24
(PID.TID 0000.0001) %MON dynstat_wvel_sd              =   2.5358259198888E-07
(PID.TID 0000.0001) %MON dynstat_wvel_del2            =   3.6741344623394E-08
(PID.TID 0000.0001) %MON dynstat_theta_max            =   2.6657021468384E+01
(PID.TID 0000.0001) %MON dynstat_theta_min            =  -9.3075890930299E-01
(PID.TID 0000.0001) %MON dynstat_theta_mean           =   2.2239378147708E+00
(PID.TID 0000.0001) %MON dynstat_theta_sd             =   3.9264791989428E+00
(PID.TID 0000.0001) %MON dynstat_theta_del2           =   4.1714222085658E-02
(PID.TID 0000.0001) %MON dynstat_salt_max             =   3.4700000000000E+01
(PID.TID 0000.0001) %MON dynstat_salt_min             =   3.4700000000000E+01
(PID.TID 0000.0001) %MON dynstat_salt_mean            =   3.4700000000000E+01
(PID.TID 0000.0001) %MON dynstat_salt_sd              =   0.0000000000000E+00
(PID.TID 0000.0001) %MON dynstat_salt_del2            =   0.0000000000000E+00
(PID.TID 0000.0001) %MON advcfl_uvel_max              =   1.0010587105295E-01
(PID.TID 0000.0001) %MON advcfl_vvel_max              =   5.9579769076500E-03
(PID.TID 0000.0001) %MON advcfl_wvel_max              =   1.9716066037770E-03
(PID.TID 0000.0001) %MON advcfl_W_hf_max              =   5.9148198113310E-03
(PID.TID 0000.0001) %MON pe_b_mean                    =   2.5880083768528E-03
(PID.TID 0000.0001) %MON ke_max                       =   7.4646746291426E-02
(PID.TID 0000.0001) %MON ke_mean                      =   8.3067694548141E-04
(PID.TID 0000.0001) %MON ke_vol                       =   2.1823819113454E+16
(PID.TID 0000.0001) %MON vort_r_min                   =  -1.7696079550502E-07
(PID.TID 0000.0001) %MON vort_r_max                   =   1.7696079550484E-07
(PID.TID 0000.0001) %MON vort_a_mean                  =  -1.6987405801417E-20
(PID.TID 0000.0001) %MON vort_a_sd                    =   8.3264729252745E-05
(PID.TID 0000.0001) %MON vort_p_mean                  =  -1.7093306844659E-20
(PID.TID 0000.0001) %MON vort_p_sd                    =   8.6550954127805E-05
(PID.TID 0000.0001) %MON surfExpan_theta_mean         =   8.7743901385974E-09
(PID.TID 0000.0001) %MON surfExpan_salt_mean          =  -9.7896477860518E-23
(PID.TID 0000.0001) // =======================================================
(PID.TID 0000.0001) // End MONITOR dynamic field statistics
(PID.TID 0000.0001) // =======================================================
 cg2d: Sum(rhs),rhsMax =   8.88178419700125E-15  1.48268842264243E+00
(PID.TID 0000.0001)                    cg2d_init_res =    2.44540880751240E-03
(PID.TID 0000.0001)                       cg2d_iters =    27
(PID.TID 0000.0001)                         cg2d_res =    6.04932622425446E-18
(PID.TID 0000.0001) // =======================================================
(PID.TID 0000.0001) // Begin MONITOR dynamic field statistics
(PID.TID 0000.0001) // =======================================================
(PID.TID 0000.0001) %MON time_tsnumber                =                 36001
(PID.TID 0000.0001) %MON time_secondsf                =   3.1104864000000E+09
(PID.TID 0000.0001) %MON dynstat_eta_max              =   1.6196962635487E+00
(PID.TID 0000.0001) %MON dynstat_eta_min              =  -3.9375476269002E+00
(PID.TID 0000.0001) %MON dynstat_eta_mean             =  -1.4891985601166E-16
(PID.TID 0000.0001) %MON dynstat_eta_sd               =   1.6560833372467E+00
(PID.TID 0000.0001) %MON dynstat_eta_del2             =   1.3973330763587E-02
(PID.TID 0000.0001) %MON dynstat_uvel_max             =   1.4273584335081E-01
(PID.TID 0000.0001) %MON dynstat_uvel_min             =  -3.8630889365595E-01
(PID.TID 0000.0001) %MON dynstat_uvel_mean            =   1.2664017650877E-02
(PID.TID 0000.0001) %MON dynstat_uvel_sd              =   3.8711845401339E-02
(PID.TID 0000.0001) %MON dynstat_uvel_del2            =   6.1844490565322E-04
(PID.TID 0000.0001) %MON dynstat_vvel_max             =   2.3013469555000E-02
(PID.TID 0000.0001) %MON dynstat_vvel_min             =  -2.3013469554968E-02
(PID.TID 0000.0001) %MON dynstat_vvel_mean            =   8.7018786906703E-16
(PID.TID 0000.0001) %MON dynstat_vvel_sd              =   1.5493091647320E-03
(PID.TID 0000.0001) %MON dynstat_vvel_del2            =   7.2807455714832E-05
(PID.TID 0000.0001) %MON dynstat_wvel_max             =   1.4062161908957E-06
(PID.TID 0000.0001) %MON dynstat_wvel_min             =  -8.9651107050578E-07
(PID.TID 0000.0001) %MON dynstat_wvel_mean            =   2.6354420142910E-23
(PID.TID 0000.0001) %MON dynstat_wvel_sd              =   2.6253856714940E-07
(PID.TID 0000.0001) %MON dynstat_wvel_del2            =   3.6990681139186E-08
(PID.TID 0000.0001) %MON dynstat_theta_max            =   2.6657624210781E+01
(PID.TID 0000.0001) %MON dynstat_theta_min            =  -9.3075955871401E-01
(PID.TID 0000.0001) %MON dynstat_theta_mean           =   2.2239455622677E+00
(PID.TID 0000.0001) %MON dynstat_theta_sd             =   3.9265306801645E+00
(PID.TID 0000.0001) %MON dynstat_theta_del2           =   4.1716716830299E-02
(PID.TID 0000.0001) %MON dynstat_salt_max             =   3.4700000000000E+01
(PID.TID 0000.0001) %MON dynstat_salt_min             =   3.4700000000000E+01
(PID.TID 0000.0001) %MON dynstat_salt_mean            =   3.4700000000000E+01
(PID.TID 0000.0001) %MON dynstat_salt_sd              =   0.0000000000000E+00
(PID.TID 0000.0001) %MON dynstat_salt_del2            =   0.0000000000000E+00
(PID.TID 0000.0001) %MON advcfl_uvel_max              =   1.0010580027432E-01
(PID.TID 0000.0001) %MON advcfl_vvel_max              =   5.9615307238123E-03
(PID.TID 0000.0001) %MON advcfl_wvel_max              =   2.0249513148898E-03
(PID.TID 0000.0001) %MON advcfl_W_hf_max              =   6.0748539446694E-03
(PID.TID 0000.0001) %MON pe_b_mean                    =   2.5870215303153E-03
(PID.TID 0000.0001) %MON ke_max                       =   7.4646629771495E-02
(PID.TID 0000.0001) %MON ke_mean                      =   8.3078184915390E-04
(PID.TID 0000.0001) %MON ke_vol                       =   2.1823819113454E+16
(PID.TID 0000.0001) %MON vort_r_min                   =  -1.7696269008163E-07
(PID.TID 0000.0001) %MON vort_r_max                   =   1.7696269008145E-07
(PID.TID 0000.0001) %MON vort_a_mean                  =  -1.0481040181124E-20
(PID.TID 0000.0001) %MON vort_a_sd                    =   8.3264730102242E-05
(PID.TID 0000.0001) %MON vort_p_mean                  =  -1.0546379945325E-20
(PID.TID 0000.0001) %MON vort_p_sd                    =   8.6550954984575E-05
(PID.TID 0000.0001) %MON surfExpan_theta_mean         =  -9.8487652030742E-07
(PID.TID 0000.0001) %MON surfExpan_salt_mean          =  -7.3806564943118E-22
(PID.TID 0000.0001) // =======================================================
(PID.TID 0000.0001) // End MONITOR dynamic field statistics
(PID.TID 0000.0001) // =======================================================
 cg2d: Sum(rhs),rhsMax =   3.55271367880050E-15  1.48203617820840E+00
(PID.TID 0000.0001)                    cg2d_init_res =    3.92320002335074E-03
(PID.TID 0000.0001)                       cg2d_iters =    27
(PID.TID 0000.0001)                         cg2d_res =    8.59254741045825E-18
(PID.TID 0000.0001) // =======================================================
(PID.TID 0000.0001) // Begin MONITOR dynamic field statistics
(PID.TID 0000.0001) // =======================================================
(PID.TID 0000.0001) %MON time_tsnumber                =                 36002
(PID.TID 0000.0001) %MON time_secondsf                =   3.1105728000000E+09
(PID.TID 0000.0001) %MON dynstat_eta_max              =   1.6190043201618E+00
(PID.TID 0000.0001) %MON dynstat_eta_min              =  -3.9370825596757E+00
(PID.TID 0000.0001) %MON dynstat_eta_mean             =  -3.7229964002914E-16
(PID.TID 0000.0001) %MON dynstat_eta_sd               =   1.6554914963958E+00
(PID.TID 0000.0001) %MON dynstat_eta_del2             =   1.3966902541465E-02
(PID.TID 0000.0001) %MON dynstat_uvel_max             =   1.4275313306591E-01
(PID.TID 0000.0001) %MON dynstat_uvel_min             =  -3.8630854419405E-01
(PID.TID 0000.0001) %MON dynstat_uvel_mean            =   1.2671834433520E-02
(PID.TID 0000.0001) %MON dynstat_uvel_sd              =   3.8714487349085E-02
(PID.TID 0000.0001) %MON dynstat_uvel_del2            =   6.1847941819095E-04
(PID.TID 0000.0001) %MON dynstat_vvel_max             =   2.3031055883680E-02
(PID.TID 0000.0001) %MON dynstat_vvel_min             =  -2.3031055883647E-02
(PID.TID 0000.0001) %MON dynstat_vvel_mean            =   8.4258336993563E-16
(PID.TID 0000.0001) %MON dynstat_vvel_sd              =   1.5511129336434E-03
(PID.TID 0000.0001) %MON dynstat_vvel_del2            =   7.2830421632770E-05
(PID.TID 0000.0001) %MON dynstat_wvel_max             =   1.3293364621378E-06
(PID.TID 0000.0001) %MON dynstat_wvel_min             =  -9.6061308081324E-07
(PID.TID 0000.0001) %MON dynstat_wvel_mean            =  -1.1713075619071E-23
(PID.TID 0000.0001) %MON dynstat_wvel_sd              =   2.8144192354867E-07
(PID.TID 0000.0001) %MON dynstat_wvel_del2            =   3.7047213401115E-08
(PID.TID 0000.0001) %MON dynstat_theta_max            =   2.6658568917491E+01
(PID.TID 0000.0001) %MON dynstat_theta_min            =  -9.3076020761942E-01
(PID.TID 0000.0001) %MON dynstat_theta_mean           =   2.2239680013260E+00
(PID.TID 0000.0001) %MON dynstat_theta_sd             =   3.9266282864275E+00
(PID.TID 0000.0001) %MON dynstat_theta_del2           =   4.1718115771530E-02
(PID.TID 0000.0001) %MON dynstat_salt_max             =   3.4700000000000E+01
(PID.TID 0000.0001) %MON dynstat_salt_min             =   3.4700000000000E+01
(PID.TID 0000.0001) %MON dynstat_salt_mean            =   3.4700000000000E+01
(PID.TID 0000.0001) %MON dynstat_salt_sd              =   0.0000000000000E+00
(PID.TID 0000.0001) %MON dynstat_salt_del2            =   0.0000000000000E+00
(PID.TID 0000.0001) %MON advcfl_uvel_max              =   1.0010570971683E-01
(PID.TID 0000.0001) %MON advcfl_vvel_max              =   5.9660863792945E-03
(PID.TID 0000.0001) %MON advcfl_wvel_max              =   1.9142445054785E-03
(PID.TID 0000.0001) %MON advcfl_W_hf_max              =   5.7427335164354E-03
(PID.TID 0000.0001) %MON pe_b_mean                    =   2.5851727931160E-03
(PID.TID 0000.0001) %MON ke_max                       =   7.4646513617267E-02
(PID.TID 0000.0001) %MON ke_mean                      =   8.3098595672678E-04
(PID.TID 0000.0001) %MON ke_vol                       =   2.1823819113454E+16
(PID.TID 0000.0001) %MON vort_r_min                   =  -1.7696634094658E-07
(PID.TID 0000.0001) %MON vort_r_max                   =   1.7696634094640E-07
(PID.TID 0000.0001) %MON vort_a_mean                  =   1.5445877396389E-20
(PID.TID 0000.0001) %MON vort_a_sd                    =   8.3264731694888E-05
(PID.TID 0000.0001) %MON vort_p_mean                  =   1.5542168410402E-20
(PID.TID 0000.0001) %MON vort_p_sd                    =   8.6550956601566E-05
(PID.TID 0000.0001) %MON surfExpan_theta_mean         =  -1.8697427261033E-06
(PID.TID 0000.0001) %MON surfExpan_salt_mean          =  -3.8714351233222E-22
(PID.TID 0000.0001) // =======================================================
(PID.TID 0000.0001) // End MONITOR dynamic field statistics
(PID.TID 0000.0001) // =======================================================
 cg2d: Sum(rhs),rhsMax =   1.06581410364015E-14  1.48124907987934E+00
(PID.TID 0000.0001)                    cg2d_init_res =    4.99131433574878E-03
(PID.TID 0000.0001)                       cg2d_iters =    27
(PID.TID 0000.0001)                         cg2d_res =    1.55573314284766E-17
(PID.TID 0000.0001) // =======================================================
(PID.TID 0000.0001) // Begin MONITOR dynamic field statistics
(PID.TID 0000.0001) // =======================================================
(PID.TID 0000.0001) %MON time_tsnumber                =                 36003
(PID.TID 0000.0001) %MON time_secondsf                =   3.1106592000000E+09
(PID.TID 0000.0001) %MON dynstat_eta_max              =   1.6181615295614E+00
(PID.TID 0000.0001) %MON dynstat_eta_min              =  -3.9362542326069E+00
(PID.TID 0000.0001) %MON dynstat_eta_mean             =  -2.2337978401749E-16
(PID.TID 0000.0001) %MON dynstat_eta_sd               =   1.6546777977087E+00
(PID.TID 0000.0001) %MON dynstat_eta_del2             =   1.3959349938058E-02
(PID.TID 0000.0001) %MON dynstat_uvel_max             =   1.4277700078044E-01
(PID.TID 0000.0001) %MON dynstat_uvel_min             =  -3.8630835374029E-01
(PID.TID 0000.0001) %MON dynstat_uvel_mean            =   1.2682981787356E-02
(PID.TID 0000.0001) %MON dynstat_uvel_sd              =   3.8718277951267E-02
(PID.TID 0000.0001) %MON dynstat_uvel_del2            =   6.1853092697913E-04
(PID.TID 0000.0001) %MON dynstat_vvel_max             =   2.3052723963979E-02
(PID.TID 0000.0001) %MON dynstat_vvel_min             =  -2.3052723963946E-02
(PID.TID 0000.0001) %MON dynstat_vvel_mean            =   6.8711492072621E-16
(PID.TID 0000.0001) %MON dynstat_vvel_sd              =   1.5535471288819E-03
(PID.TID 0000.0001) %MON dynstat_vvel_del2            =   7.2848788915935E-05
(PID.TID 0000.0001) %MON dynstat_wvel_max             =   1.2069163743321E-06
(PID.TID 0000.0001) %MON dynstat_wvel_min             =  -1.0021049671241E-06
(PID.TID 0000.0001) %MON dynstat_wvel_mean            =  -1.7569613428606E-23
(PID.TID 0000.0001) %MON dynstat_wvel_sd              =   3.0187025891136E-07
(PID.TID 0000.0001) %MON dynstat_wvel_del2            =   3.7055643217500E-08
(PID.TID 0000.0001) %MON dynstat_theta_max            =   2.6659890433132E+01
(PID.TID 0000.0001) %MON dynstat_theta_min            =  -9.3076085592731E-01
(PID.TID 0000.0001) %MON dynstat_theta_mean           =   2.2240026812702E+00
(PID.TID 0000.0001) %MON dynstat_theta_sd             =   3.9267648326667E+00
(PID.TID 0000.0001) %MON dynstat_theta_del2           =   4.1717001423286E-02
(PID.TID 0000.0001) %MON dynstat_salt_max             =   3.4700000000000E+01
(PID.TID 0000.0001) %MON dynstat_salt_min             =   3.4700000000000E+01
(PID.TID 0000.0001) %MON dynstat_salt_mean            =   3.4700000000000E+01
(PID.TID 0000.0001) %MON dynstat_salt_sd              =   0.0000000000000E+00
(PID.TID 0000.0001) %MON dynstat_salt_del2            =   0.0000000000000E+00
(PID.TID 0000.0001) %MON advcfl_uvel_max              =   1.0010566036377E-01
(PID.TID 0000.0001) %MON advcfl_vvel_max              =   5.9716993932785E-03
(PID.TID 0000.0001) %MON advcfl_wvel_max              =   1.8692934821477E-03
(PID.TID 0000.0001) %MON advcfl_W_hf_max              =   5.2138787371145E-03
(PID.TID 0000.0001) %MON pe_b_mean                    =   2.5826321159228E-03
(PID.TID 0000.0001) %MON ke_max                       =   7.4646469596947E-02
(PID.TID 0000.0001) %MON ke_mean                      =   8.3127782973830E-04
(PID.TID 0000.0001) %MON ke_vol                       =   2.1823819113454E+16
(PID.TID 0000.0001) %MON vort_r_min                   =  -1.7697139951585E-07
(PID.TID 0000.0001) %MON vort_r_max                   =   1.7697139951567E-07
(PID.TID 0000.0001) %MON vort_a_mean                  =   2.7377245182467E-22
(PID.TID 0000.0001) %MON vort_a_sd                    =   8.3264733946863E-05
(PID.TID 0000.0001) %MON vort_p_mean                  =   2.7547917435771E-22
(PID.TID 0000.0001) %MON vort_p_sd                    =   8.6550958918335E-05
(PID.TID 0000.0001) %MON surfExpan_theta_mean         =  -2.6098170863139E-06
(PID.TID 0000.0001) %MON surfExpan_salt_mean          =   8.0623097791885E-22
(PID.TID 0000.0001) // =======================================================
(PID.TID 0000.0001) // End MONITOR dynamic field statistics
(PID.TID 0000.0001) // =======================================================
 cg2d: Sum(rhs),rhsMax =   3.55271367880050E-15  1.48045270329176E+00
(PID.TID 0000.0001)                    cg2d_init_res =    5.73762727865218E-03
(PID.TID 0000.0001)                       cg2d_iters =    27
(PID.TID 0000.0001)                         cg2d_res =    2.66641231037955E-17
(PID.TID 0000.0001) // =======================================================
(PID.TID 0000.0001) // Begin MONITOR dynamic field statistics
(PID.TID 0000.0001) // =======================================================
(PID.TID 0000.0001) %MON time_tsnumber                =                 36004
(PID.TID 0000.0001) %MON time_secondsf                =   3.1107456000000E+09
(PID.TID 0000.0001) %MON dynstat_eta_max              =   1.6173019778099E+00
(PID.TID 0000.0001) %MON dynstat_eta_min              =  -3.9349817988085E+00
(PID.TID 0000.0001) %MON dynstat_eta_mean             =  -2.2337978401749E-16
(PID.TID 0000.0001) %MON dynstat_eta_sd               =   1.6537014574743E+00
(PID.TID 0000.0001) %MON dynstat_eta_del2             =   1.3952619418181E-02
(PID.TID 0000.0001) %MON dynstat_uvel_max             =   1.4280577114292E-01
(PID.TID 0000.0001) %MON dynstat_uvel_min             =  -3.8630832270373E-01
(PID.TID 0000.0001) %MON dynstat_uvel_mean            =   1.2696952025887E-02
(PID.TID 0000.0001) %MON dynstat_uvel_sd              =   3.8723006944132E-02
(PID.TID 0000.0001) %MON dynstat_uvel_del2            =   6.1859749488933E-04
(PID.TID 0000.0001) %MON dynstat_vvel_max             =   2.3076160991248E-02
(PID.TID 0000.0001) %MON dynstat_vvel_min             =  -2.3076160991214E-02
(PID.TID 0000.0001) %MON dynstat_vvel_mean            =   3.3426559379715E-16
(PID.TID 0000.0001) %MON dynstat_vvel_sd              =   1.5560977657372E-03
(PID.TID 0000.0001) %MON dynstat_vvel_del2            =   7.2865218960784E-05
(PID.TID 0000.0001) %MON dynstat_wvel_max             =   1.2492739639481E-06
(PID.TID 0000.0001) %MON dynstat_wvel_min             =  -1.0067070773669E-06
(PID.TID 0000.0001) %MON dynstat_wvel_mean            =  -5.8565378095355E-24
(PID.TID 0000.0001) %MON dynstat_wvel_sd              =   3.1984813420104E-07
(PID.TID 0000.0001) %MON dynstat_wvel_del2            =   3.7011821797104E-08
(PID.TID 0000.0001) %MON dynstat_theta_max            =   2.6661672293006E+01
(PID.TID 0000.0001) %MON dynstat_theta_min            =  -9.3076150359025E-01
(PID.TID 0000.0001) %MON dynstat_theta_mean           =   2.2240467564828E+00
(PID.TID 0000.0001) %MON dynstat_theta_sd             =   3.9269314787212E+00
(PID.TID 0000.0001) %MON dynstat_theta_del2           =   4.1713256161435E-02
(PID.TID 0000.0001) %MON dynstat_salt_max             =   3.4700000000000E+01
(PID.TID 0000.0001) %MON dynstat_salt_min             =   3.4700000000000E+01
(PID.TID 0000.0001) %MON dynstat_salt_mean            =   3.4700000000000E+01
(PID.TID 0000.0001) %MON dynstat_salt_sd              =   0.0000000000000E+00
(PID.TID 0000.0001) %MON dynstat_salt_del2            =   0.0000000000000E+00
(PID.TID 0000.0001) %MON advcfl_uvel_max              =   1.0010565232114E-01
(PID.TID 0000.0001) %MON advcfl_vvel_max              =   5.9777706446300E-03
(PID.TID 0000.0001) %MON advcfl_wvel_max              =   2.1647515477305E-03
(PID.TID 0000.0001) %MON advcfl_W_hf_max              =   5.3968635242557E-03
(PID.TID 0000.0001) %MON pe_b_mean                    =   2.5795852584173E-03
(PID.TID 0000.0001) %MON ke_max                       =   7.4646486536048E-02
(PID.TID 0000.0001) %MON ke_mean                      =   8.3164221085340E-04
(PID.TID 0000.0001) %MON ke_vol                       =   2.1823819113454E+16
(PID.TID 0000.0001) %MON vort_r_min                   =  -1.7697755973686E-07
(PID.TID 0000.0001) %MON vort_r_max                   =   1.7697755973668E-07
(PID.TID 0000.0001) %MON vort_a_mean                  =  -1.3526876946678E-20
(PID.TID 0000.0001) %MON vort_a_sd                    =   8.3264736745956E-05
(PID.TID 0000.0001) %MON vort_p_mean                  =  -1.3611204736172E-20
(PID.TID 0000.0001) %MON vort_p_sd                    =   8.6550961848724E-05
(PID.TID 0000.0001) %MON surfExpan_theta_mean         =  -3.1825139343955E-06
(PID.TID 0000.0001) %MON surfExpan_salt_mean          =  -4.3861140394415E-22
(PID.TID 0000.0001) // =======================================================
(PID.TID 0000.0001) // End MONITOR dynamic field statistics
(PID.TID 0000.0001) // =======================================================
 cg2d: Sum(rhs),rhsMax =   1.24344978758018E-14  1.47975236034848E+00
(PID.TID 0000.0001)                    cg2d_init_res =    6.24851793240958E-03
(PID.TID 0000.0001)                       cg2d_iters =    27
(PID.TID 0000.0001)                         cg2d_res =    1.16585145430200E-17
(PID.TID 0000.0001) // =======================================================
(PID.TID 0000.0001) // Begin MONITOR dynamic field statistics
(PID.TID 0000.0001) // =======================================================
(PID.TID 0000.0001) %MON time_tsnumber                =                 36005
(PID.TID 0000.0001) %MON time_secondsf                =   3.1108320000000E+09
(PID.TID 0000.0001) %MON dynstat_eta_max              =   1.6165311502956E+00
(PID.TID 0000.0001) %MON dynstat_eta_min              =  -3.9332305072803E+00
(PID.TID 0000.0001) %MON dynstat_eta_mean             =  -4.4675956803497E-16
(PID.TID 0000.0001) %MON dynstat_eta_sd               =   1.6526213782983E+00
(PID.TID 0000.0001) %MON dynstat_eta_del2             =   1.3947977123660E-02
(PID.TID 0000.0001) %MON dynstat_uvel_max             =   1.4283770732286E-01
(PID.TID 0000.0001) %MON dynstat_uvel_min             =  -3.8630842568993E-01
(PID.TID 0000.0001) %MON dynstat_uvel_mean            =   1.2713107771200E-02
(PID.TID 0000.0001) %MON dynstat_uvel_sd              =   3.8728426351017E-02
(PID.TID 0000.0001) %MON dynstat_uvel_del2            =   6.1867636659387E-04
(PID.TID 0000.0001) %MON dynstat_vvel_max             =   2.3097810899991E-02
(PID.TID 0000.0001) %MON dynstat_vvel_min             =  -2.3097810899956E-02
(PID.TID 0000.0001) %MON dynstat_vvel_mean            =   4.8196342987839E-16
(PID.TID 0000.0001) %MON dynstat_vvel_sd              =   1.5583006869534E-03
(PID.TID 0000.0001) %MON dynstat_vvel_del2            =   7.2889909726946E-05
(PID.TID 0000.0001) %MON dynstat_wvel_max             =   1.2894083038845E-06
(PID.TID 0000.0001) %MON dynstat_wvel_min             =  -1.0380579487790E-06
(PID.TID 0000.0001) %MON dynstat_wvel_mean            =   5.2708840285819E-23
(PID.TID 0000.0001) %MON dynstat_wvel_sd              =   3.3381759772019E-07
(PID.TID 0000.0001) %MON dynstat_wvel_del2            =   3.6953630133039E-08
(PID.TID 0000.0001) %MON dynstat_theta_max            =   2.6663899222970E+01
(PID.TID 0000.0001) %MON dynstat_theta_min            =  -9.3076215066439E-01
(PID.TID 0000.0001) %MON dynstat_theta_mean           =   2.2240971915720E+00
(PID.TID 0000.0001) %MON dynstat_theta_sd             =   3.9271185960949E+00
(PID.TID 0000.0001) %MON dynstat_theta_del2           =   4.1707302015074E-02
(PID.TID 0000.0001) %MON dynstat_salt_max             =   3.4700000000000E+01
(PID.TID 0000.0001) %MON dynstat_salt_min             =   3.4700000000000E+01
(PID.TID 0000.0001) %MON dynstat_salt_mean            =   3.4700000000000E+01
(PID.TID 0000.0001) %MON dynstat_salt_sd              =   0.0000000000000E+00
(PID.TID 0000.0001) %MON dynstat_salt_del2            =   0.0000000000000E+00
(PID.TID 0000.0001) %MON advcfl_uvel_max              =   1.0010567900838E-01
(PID.TID 0000.0001) %MON advcfl_vvel_max              =   5.9833789513579E-03
(PID.TID 0000.0001) %MON advcfl_wvel_max              =   2.3866649983004E-03
(PID.TID 0000.0001) %MON advcfl_W_hf_max              =   5.5702438727810E-03
(PID.TID 0000.0001) %MON pe_b_mean                    =   2.5762167586811E-03
(PID.TID 0000.0001) %MON ke_max                       =   7.4646548792080E-02
(PID.TID 0000.0001) %MON ke_mean                      =   8.3206080330013E-04
(PID.TID 0000.0001) %MON ke_vol                       =   2.1823819113454E+16
(PID.TID 0000.0001) %MON vort_r_min                   =  -1.7698461869308E-07
(PID.TID 0000.0001) %MON vort_r_max                   =   1.7698461869291E-07
(PID.TID 0000.0001) %MON vort_a_mean                  =  -1.2271630414486E-20
(PID.TID 0000.0001) %MON vort_a_sd                    =   8.3264739957465E-05
(PID.TID 0000.0001) %MON vort_p_mean                  =  -1.2348132882159E-20
(PID.TID 0000.0001) %MON vort_p_sd                    =   8.6550965278258E-05
(PID.TID 0000.0001) %MON surfExpan_theta_mean         =  -3.5765700131707E-06
(PID.TID 0000.0001) %MON surfExpan_salt_mean          =  -5.0563140254119E-22
(PID.TID 0000.0001) // =======================================================
(PID.TID 0000.0001) // End MONITOR dynamic field statistics
(PID.TID 0000.0001) // =======================================================
 cg2d: Sum(rhs),rhsMax =   7.10542735760100E-15  1.47920868832796E+00
(PID.TID 0000.0001)                    cg2d_init_res =    6.56588843824570E-03
(PID.TID 0000.0001)                       cg2d_iters =    27
(PID.TID 0000.0001)                         cg2d_res =    5.79257993510148E-18
(PID.TID 0000.0001) // =======================================================
(PID.TID 0000.0001) // Begin MONITOR dynamic field statistics
(PID.TID 0000.0001) // =======================================================
(PID.TID 0000.0001) %MON time_tsnumber                =                 36006
(PID.TID 0000.0001) %MON time_secondsf                =   3.1109184000000E+09
(PID.TID 0000.0001) %MON dynstat_eta_max              =   1.6159052844976E+00
(PID.TID 0000.0001) %MON dynstat_eta_min              =  -3.9310347245573E+00
(PID.TID 0000.0001) %MON dynstat_eta_mean             =  -2.2337978401749E-16
(PID.TID 0000.0001) %MON dynstat_eta_sd               =   1.6514928752920E+00
(PID.TID 0000.0001) %MON dynstat_eta_del2             =   1.3945722550301E-02
(PID.TID 0000.0001) %MON dynstat_uvel_max             =   1.4287113565520E-01
(PID.TID 0000.0001) %MON dynstat_uvel_min             =  -3.8630862958452E-01
(PID.TID 0000.0001) %MON dynstat_uvel_mean            =   1.2730706274869E-02
(PID.TID 0000.0001) %MON dynstat_uvel_sd              =   3.8734265498685E-02
(PID.TID 0000.0001) %MON dynstat_uvel_del2            =   6.1876415119492E-04
(PID.TID 0000.0001) %MON dynstat_vvel_max             =   2.3114480541747E-02
(PID.TID 0000.0001) %MON dynstat_vvel_min             =  -2.3114480541712E-02
(PID.TID 0000.0001) %MON dynstat_vvel_mean            =   6.4043224597896E-16
(PID.TID 0000.0001) %MON dynstat_vvel_sd              =   1.5597882947381E-03
(PID.TID 0000.0001) %MON dynstat_vvel_del2            =   7.2926659553052E-05
(PID.TID 0000.0001) %MON dynstat_wvel_max             =   1.2961109557160E-06
(PID.TID 0000.0001) %MON dynstat_wvel_min             =  -1.0765689936743E-06
(PID.TID 0000.0001) %MON dynstat_wvel_mean            =  -4.0995764666748E-23
(PID.TID 0000.0001) %MON dynstat_wvel_sd              =   3.4274284182342E-07
(PID.TID 0000.0001) %MON dynstat_wvel_del2            =   3.6913927423694E-08
(PID.TID 0000.0001) %MON dynstat_theta_max            =   2.6666444454814E+01
(PID.TID 0000.0001) %MON dynstat_theta_min            =  -9.3076279732283E-01
(PID.TID 0000.0001) %MON dynstat_theta_mean           =   2.2241509222880E+00
(PID.TID 0000.0001) %MON dynstat_theta_sd             =   3.9273163528134E+00
(PID.TID 0000.0001) %MON dynstat_theta_del2           =   4.1699784433676E-02
(PID.TID 0000.0001) %MON dynstat_salt_max             =   3.4700000000000E+01
(PID.TID 0000.0001) %MON dynstat_salt_min             =   3.4700000000000E+01
(PID.TID 0000.0001) %MON dynstat_salt_mean            =   3.4700000000000E+01
(PID.TID 0000.0001) %MON dynstat_salt_sd              =   0.0000000000000E+00
(PID.TID 0000.0001) %MON dynstat_salt_del2            =   0.0000000000000E+00
(PID.TID 0000.0001) %MON advcfl_uvel_max              =   1.0010573184441E-01
(PID.TID 0000.0001) %MON advcfl_vvel_max              =   5.9876971434169E-03
(PID.TID 0000.0001) %MON advcfl_wvel_max              =   2.6544119707680E-03
(PID.TID 0000.0001) %MON advcfl_W_hf_max              =   5.5991993286931E-03
(PID.TID 0000.0001) %MON pe_b_mean                    =   2.5726995879949E-03
(PID.TID 0000.0001) %MON ke_max                       =   7.4646640114261E-02
(PID.TID 0000.0001) %MON ke_mean                      =   8.3251320838925E-04
(PID.TID 0000.0001) %MON ke_vol                       =   2.1823819113454E+16
(PID.TID 0000.0001) %MON vort_r_min                   =  -1.7699240396718E-07
(PID.TID 0000.0001) %MON vort_r_max                   =   1.7699240396700E-07
(PID.TID 0000.0001) %MON vort_a_mean                  =  -2.8435949260940E-20
(PID.TID 0000.0001) %MON vort_a_sd                    =   8.3264743430745E-05
(PID.TID 0000.0001) %MON vort_p_mean                  =  -2.8613221572411E-20
(PID.TID 0000.0001) %MON vort_p_sd                    =   8.6550969064421E-05
(PID.TID 0000.0001) %MON surfExpan_theta_mean         =  -3.7896137381064E-06
(PID.TID 0000.0001) %MON surfExpan_salt_mean          =   8.7124982362492E-22
(PID.TID 0000.0001) // =======================================================
(PID.TID 0000.0001) // End MONITOR dynamic field statistics
(PID.TID 0000.0001) // =======================================================
 cg2d: Sum(rhs),rhsMax =   8.88178419700125E-15  1.47882577942493E+00
(PID.TID 0000.0001)                    cg2d_init_res =    6.66240109255664E-03
(PID.TID 0000.0001)                       cg2d_iters =    27
(PID.TID 0000.0001)                         cg2d_res =    6.27723293115613E-18
(PID.TID 0000.0001) // =======================================================
(PID.TID 0000.0001) // Begin MONITOR dynamic field statistics
(PID.TID 0000.0001) // =======================================================
(PID.TID 0000.0001) %MON time_tsnumber                =                 36007
(PID.TID 0000.0001) %MON time_secondsf                =   3.1110048000000E+09
(PID.TID 0000.0001) %MON dynstat_eta_max              =   1.6154280401295E+00
(PID.TID 0000.0001) %MON dynstat_eta_min              =  -3.9285052875878E+00
(PID.TID 0000.0001) %MON dynstat_eta_mean             =  -2.2337978401749E-16
(PID.TID 0000.0001) %MON dynstat_eta_sd               =   1.6503662523722E+00
(PID.TID 0000.0001) %MON dynstat_eta_del2             =   1.3945496882271E-02
(PID.TID 0000.0001) %MON dynstat_uvel_max             =   1.4290453044415E-01
(PID.TID 0000.0001) %MON dynstat_uvel_min             =  -3.8630889621809E-01
(PID.TID 0000.0001) %MON dynstat_uvel_mean            =   1.2748933619188E-02
(PID.TID 0000.0001) %MON dynstat_uvel_sd              =   3.8740245556610E-02
(PID.TID 0000.0001) %MON dynstat_uvel_del2            =   6.1885721858157E-04
(PID.TID 0000.0001) %MON dynstat_vvel_max             =   2.3124173977517E-02
(PID.TID 0000.0001) %MON dynstat_vvel_min             =  -2.3124173977482E-02
(PID.TID 0000.0001) %MON dynstat_vvel_mean            =   7.0610319770862E-16
(PID.TID 0000.0001) %MON dynstat_vvel_sd              =   1.5603310745044E-03
(PID.TID 0000.0001) %MON dynstat_vvel_del2            =   7.2959886407725E-05
(PID.TID 0000.0001) %MON dynstat_wvel_max             =   1.2757306003132E-06
(PID.TID 0000.0001) %MON dynstat_wvel_min             =  -1.0964716995110E-06
(PID.TID 0000.0001) %MON dynstat_wvel_mean            =  -2.3426151238142E-23
(PID.TID 0000.0001) %MON dynstat_wvel_sd              =   3.4547493687931E-07
(PID.TID 0000.0001) %MON dynstat_wvel_del2            =   3.6893411278131E-08
(PID.TID 0000.0001) %MON dynstat_theta_max            =   2.6669116190754E+01
(PID.TID 0000.0001) %MON dynstat_theta_min            =  -9.3076344387862E-01
(PID.TID 0000.0001) %MON dynstat_theta_mean           =   2.2242049745919E+00
(PID.TID 0000.0001) %MON dynstat_theta_sd             =   3.9275150768442E+00
(PID.TID 0000.0001) %MON dynstat_theta_del2           =   4.1691482538913E-02
(PID.TID 0000.0001) %MON dynstat_salt_max             =   3.4700000000000E+01
(PID.TID 0000.0001) %MON dynstat_salt_min             =   3.4700000000000E+01
(PID.TID 0000.0001) %MON dynstat_salt_mean            =   3.4700000000000E+01
(PID.TID 0000.0001) %MON dynstat_salt_sd              =   0.0000000000000E+00
(PID.TID 0000.0001) %MON dynstat_salt_del2            =   0.0000000000000E+00
(PID.TID 0000.0001) %MON advcfl_uvel_max              =   1.0010580093826E-01
(PID.TID 0000.0001) %MON advcfl_vvel_max              =   5.9902081822251E-03
(PID.TID 0000.0001) %MON advcfl_wvel_max              =   3.0353243637451E-03
(PID.TID 0000.0001) %MON advcfl_W_hf_max              =   5.5111561933529E-03
(PID.TID 0000.0001) %MON pe_b_mean                    =   2.5691906734584E-03
(PID.TID 0000.0001) %MON ke_max                       =   7.4646743571042E-02
(PID.TID 0000.0001) %MON ke_mean                      =   8.3297796856228E-04
(PID.TID 0000.0001) %MON ke_vol                       =   2.1823819113454E+16
(PID.TID 0000.0001) %MON vort_r_min                   =  -1.7700068581788E-07
(PID.TID 0000.0001) %MON vort_r_max                   =   1.7700068581770E-07
(PID.TID 0000.0001) %MON vort_a_mean                  =  -6.6842773267232E-20
(PID.TID 0000.0001) %MON vort_a_sd                    =   8.3264747006485E-05
(PID.TID 0000.0001) %MON vort_p_mean                  =  -6.7259477236335E-20
(PID.TID 0000.0001) %MON vort_p_sd                    =   8.6550973039863E-05
(PID.TID 0000.0001) %MON surfExpan_theta_mean         =  -3.8259427204206E-06
(PID.TID 0000.0001) %MON surfExpan_salt_mean          =   7.4671107010606E-22
(PID.TID 0000.0001) // =======================================================
(PID.TID 0000.0001) // End MONITOR dynamic field statistics
(PID.TID 0000.0001) // =======================================================
 cg2d: Sum(rhs),rhsMax =   7.10542735760100E-15  1.47856339049751E+00
(PID.TID 0000.0001)                    cg2d_init_res =    6.48788718933294E-03
(PID.TID 0000.0001)                       cg2d_iters =    27
(PID.TID 0000.0001)                         cg2d_res =    1.25922764505420E-17
(PID.TID 0000.0001) // =======================================================
(PID.TID 0000.0001) // Begin MONITOR dynamic field statistics
(PID.TID 0000.0001) // =======================================================
(PID.TID 0000.0001) %MON time_tsnumber                =                 36008
(PID.TID 0000.0001) %MON time_secondsf                =   3.1110912000000E+09
(PID.TID 0000.0001) %MON dynstat_eta_max              =   1.6150658785888E+00
(PID.TID 0000.0001) %MON dynstat_eta_min              =  -3.9258176950541E+00
(PID.TID 0000.0001) %MON dynstat_eta_mean             =  -2.2337978401749E-16
(PID.TID 0000.0001) %MON dynstat_eta_sd               =   1.6492866507540E+00
(PID.TID 0000.0001) %MON dynstat_eta_del2             =   1.3946640354337E-02
(PID.TID 0000.0001) %MON dynstat_uvel_max             =   1.4293655935842E-01
(PID.TID 0000.0001) %MON dynstat_uvel_min             =  -3.8630918398132E-01
(PID.TID 0000.0001) %MON dynstat_uvel_mean            =   1.2766947063475E-02
(PID.TID 0000.0001) %MON dynstat_uvel_sd              =   3.8746092449148E-02
(PID.TID 0000.0001) %MON dynstat_uvel_del2            =   6.1895007507194E-04
(PID.TID 0000.0001) %MON dynstat_vvel_max             =   2.3126209242203E-02
(PID.TID 0000.0001) %MON dynstat_vvel_min             =  -2.3126209242168E-02
(PID.TID 0000.0001) %MON dynstat_vvel_mean            =   6.3613396756749E-16
(PID.TID 0000.0001) %MON dynstat_vvel_sd              =   1.5598732293334E-03
(PID.TID 0000.0001) %MON dynstat_vvel_del2            =   7.2978722559635E-05
(PID.TID 0000.0001) %MON dynstat_wvel_max             =   1.2356041002697E-06
(PID.TID 0000.0001) %MON dynstat_wvel_min             =  -1.0980354032385E-06
(PID.TID 0000.0001) %MON dynstat_wvel_mean            =   4.6852302476284E-23
(PID.TID 0000.0001) %MON dynstat_wvel_sd              =   3.4119219610586E-07
(PID.TID 0000.0001) %MON dynstat_wvel_del2            =   3.6906921201675E-08
(PID.TID 0000.0001) %MON dynstat_theta_max            =   2.6671706194627E+01
(PID.TID 0000.0001) %MON dynstat_theta_min            =  -9.3076409072166E-01
(PID.TID 0000.0001) %MON dynstat_theta_mean           =   2.2242565513709E+00
(PID.TID 0000.0001) %MON dynstat_theta_sd             =   3.9277056571935E+00
(PID.TID 0000.0001) %MON dynstat_theta_del2           =   4.1683148801345E-02
(PID.TID 0000.0001) %MON dynstat_salt_max             =   3.4700000000000E+01
(PID.TID 0000.0001) %MON dynstat_salt_min             =   3.4700000000000E+01
(PID.TID 0000.0001) %MON dynstat_salt_mean            =   3.4700000000000E+01
(PID.TID 0000.0001) %MON dynstat_salt_sd              =   0.0000000000000E+00
(PID.TID 0000.0001) %MON dynstat_salt_del2            =   0.0000000000000E+00
(PID.TID 0000.0001) %MON advcfl_uvel_max              =   1.0010587550752E-01
(PID.TID 0000.0001) %MON advcfl_vvel_max              =   5.9907354079407E-03
(PID.TID 0000.0001) %MON advcfl_wvel_max              =   3.2251110404581E-03
(PID.TID 0000.0001) %MON advcfl_W_hf_max              =   5.3378097131650E-03
(PID.TID 0000.0001) %MON pe_b_mean                    =   2.5658304554660E-03
(PID.TID 0000.0001) %MON ke_max                       =   7.4646842208149E-02
(PID.TID 0000.0001) %MON ke_mean                      =   8.3343365112809E-04
(PID.TID 0000.0001) %MON ke_vol                       =   2.1823819113454E+16
(PID.TID 0000.0001) %MON vort_r_min                   =  -1.7700915834568E-07
(PID.TID 0000.0001) %MON vort_r_max                   =   1.7700915834550E-07
(PID.TID 0000.0001) %MON vort_a_mean                  =  -1.4390829427371E-20
(PID.TID 0000.0001) %MON vort_a_sd                    =   8.3264750524362E-05
(PID.TID 0000.0001) %MON vort_p_mean                  =  -1.4480543175738E-20
(PID.TID 0000.0001) %MON vort_p_sd                    =   8.6550977019732E-05
(PID.TID 0000.0001) %MON surfExpan_theta_mean         =  -3.6948280329922E-06
(PID.TID 0000.0001) %MON surfExpan_salt_mean          =   1.0628661385143E-21
(PID.TID 0000.0001) // =======================================================
(PID.TID 0000.0001) // End MONITOR dynamic field statistics
(PID.TID 0000.0001) // =======================================================
 cg2d: Sum(rhs),rhsMax =   1.06581410364015E-14  1.47836480832756E+00
(PID.TID 0000.0001)                    cg2d_init_res =    6.01715738552946E-03
(PID.TID 0000.0001)                       cg2d_iters =    27
(PID.TID 0000.0001)                         cg2d_res =    8.33385358307392E-18
(PID.TID 0000.0001) // =======================================================
(PID.TID 0000.0001) // Begin MONITOR dynamic field statistics
(PID.TID 0000.0001) // =======================================================
(PID.TID 0000.0001) %MON time_tsnumber                =                 36009
(PID.TID 0000.0001) %MON time_secondsf                =   3.1111776000000E+09
(PID.TID 0000.0001) %MON dynstat_eta_max              =   1.6147724283669E+00
(PID.TID 0000.0001) %MON dynstat_eta_min              =  -3.9231843378012E+00
(PID.TID 0000.0001) %MON dynstat_eta_mean             =  -2.2337978401749E-16
(PID.TID 0000.0001) %MON dynstat_eta_sd               =   1.6482944777249E+00
(PID.TID 0000.0001) %MON dynstat_eta_del2             =   1.3948412005939E-02
(PID.TID 0000.0001) %MON dynstat_uvel_max             =   1.4296609125392E-01
(PID.TID 0000.0001) %MON dynstat_uvel_min             =  -3.8630945189456E-01
(PID.TID 0000.0001) %MON dynstat_uvel_mean            =   1.2783921980517E-02
(PID.TID 0000.0001) %MON dynstat_uvel_sd              =   3.8751547733430E-02
(PID.TID 0000.0001) %MON dynstat_uvel_del2            =   6.1903756755224E-04
(PID.TID 0000.0001) %MON dynstat_vvel_max             =   2.3120993467754E-02
(PID.TID 0000.0001) %MON dynstat_vvel_min             =  -2.3120993467719E-02
(PID.TID 0000.0001) %MON dynstat_vvel_mean            =   3.8451331122685E-16
(PID.TID 0000.0001) %MON dynstat_vvel_sd              =   1.5585450801053E-03
(PID.TID 0000.0001) %MON dynstat_vvel_del2            =   7.2978788390504E-05
(PID.TID 0000.0001) %MON dynstat_wvel_max             =   1.1823708758994E-06
(PID.TID 0000.0001) %MON dynstat_wvel_min             =  -1.0682052749329E-06
(PID.TID 0000.0001) %MON dynstat_wvel_mean            =   2.3426151238142E-23
(PID.TID 0000.0001) %MON dynstat_wvel_sd              =   3.3008194946542E-07
(PID.TID 0000.0001) %MON dynstat_wvel_del2            =   3.6904811962596E-08
(PID.TID 0000.0001) %MON dynstat_theta_max            =   2.6674023215751E+01
(PID.TID 0000.0001) %MON dynstat_theta_min            =  -9.3076473827873E-01
(PID.TID 0000.0001) %MON dynstat_theta_mean           =   2.2243030994832E+00
(PID.TID 0000.0001) %MON dynstat_theta_sd             =   3.9278797361060E+00
(PID.TID 0000.0001) %MON dynstat_theta_del2           =   4.1675480555569E-02
(PID.TID 0000.0001) %MON dynstat_salt_max             =   3.4700000000000E+01
(PID.TID 0000.0001) %MON dynstat_salt_min             =   3.4700000000000E+01
(PID.TID 0000.0001) %MON dynstat_salt_mean            =   3.4700000000000E+01
(PID.TID 0000.0001) %MON dynstat_salt_sd              =   0.0000000000000E+00
(PID.TID 0000.0001) %MON dynstat_salt_del2            =   0.0000000000000E+00
(PID.TID 0000.0001) %MON advcfl_uvel_max              =   1.0010594493297E-01
(PID.TID 0000.0001) %MON advcfl_vvel_max              =   5.9893842861747E-03
(PID.TID 0000.0001) %MON advcfl_wvel_max              =   3.1600287035256E-03
(PID.TID 0000.0001) %MON advcfl_W_hf_max              =   5.1078421838854E-03
(PID.TID 0000.0001) %MON pe_b_mean                    =   2.5627442944978E-03
(PID.TID 0000.0001) %MON ke_max                       =   7.4646920734819E-02
(PID.TID 0000.0001) %MON ke_mean                      =   8.3385988601930E-04
(PID.TID 0000.0001) %MON ke_vol                       =   2.1823819113454E+16
(PID.TID 0000.0001) %MON vort_r_min                   =  -1.7701747722498E-07
(PID.TID 0000.0001) %MON vort_r_max                   =   1.7701747722481E-07
(PID.TID 0000.0001) %MON vort_a_mean                  =  -7.4716954266471E-21
(PID.TID 0000.0001) %MON vort_a_sd                    =   8.3264753830664E-05
(PID.TID 0000.0001) %MON vort_p_mean                  =  -7.5182746600933E-21
(PID.TID 0000.0001) %MON vort_p_sd                    =   8.6550980813206E-05
(PID.TID 0000.0001) %MON surfExpan_theta_mean         =  -3.4095392559927E-06
(PID.TID 0000.0001) %MON surfExpan_salt_mean          =   5.0725670438156E-22
(PID.TID 0000.0001) // =======================================================
(PID.TID 0000.0001) // End MONITOR dynamic field statistics
(PID.TID 0000.0001) // =======================================================
 cg2d: Sum(rhs),rhsMax =   8.88178419700125E-15  1.47818331408620E+00
(PID.TID 0000.0001)                    cg2d_init_res =    5.26762114258864E-03
(PID.TID 0000.0001)                       cg2d_iters =    27
(PID.TID 0000.0001)                         cg2d_res =    8.64777812904504E-18
(PID.TID 0000.0001) // =======================================================
(PID.TID 0000.0001) // Begin MONITOR dynamic field statistics
(PID.TID 0000.0001) // =======================================================
(PID.TID 0000.0001) %MON time_tsnumber                =                 36010
(PID.TID 0000.0001) %MON time_secondsf                =   3.1112640000000E+09
(PID.TID 0000.0001) %MON dynstat_eta_max              =   1.6145098704215E+00
(PID.TID 0000.0001) %MON dynstat_eta_min              =  -3.9208191209081E+00
(PID.TID 0000.0001) %MON dynstat_eta_mean             =  -7.4459928005829E-17
(PID.TID 0000.0001) %MON dynstat_eta_sd               =   1.6474257884378E+00
(PID.TID 0000.0001) %MON dynstat_eta_del2             =   1.3950125471124E-02
(PID.TID 0000.0001) %MON dynstat_uvel_max             =   1.4299217519923E-01
(PID.TID 0000.0001) %MON dynstat_uvel_min             =  -3.8630966439984E-01
(PID.TID 0000.0001) %MON dynstat_uvel_mean            =   1.2799098745575E-02
(PID.TID 0000.0001) %MON dynstat_uvel_sd              =   3.8756377643230E-02
(PID.TID 0000.0001) %MON dynstat_uvel_del2            =   6.1911487434662E-04
(PID.TID 0000.0001) %MON dynstat_vvel_max             =   2.3109701235415E-02
(PID.TID 0000.0001) %MON dynstat_vvel_min             =  -2.3109701235382E-02
(PID.TID 0000.0001) %MON dynstat_vvel_mean            =   2.6596510703929E-16
(PID.TID 0000.0001) %MON dynstat_vvel_sd              =   1.5566374823019E-03
(PID.TID 0000.0001) %MON dynstat_vvel_del2            =   7.2959137672573E-05
(PID.TID 0000.0001) %MON dynstat_wvel_max             =   1.1208043884115E-06
(PID.TID 0000.0001) %MON dynstat_wvel_min             =  -1.0202336206970E-06
(PID.TID 0000.0001) %MON dynstat_wvel_mean            =   5.2708840285819E-23
(PID.TID 0000.0001) %MON dynstat_wvel_sd              =   3.1367843680939E-07
(PID.TID 0000.0001) %MON dynstat_wvel_del2            =   3.6881926059997E-08
(PID.TID 0000.0001) %MON dynstat_theta_max            =   2.6675912557892E+01
(PID.TID 0000.0001) %MON dynstat_theta_min            =  -9.3076538690343E-01
(PID.TID 0000.0001) %MON dynstat_theta_mean           =   2.2243423687371E+00
(PID.TID 0000.0001) %MON dynstat_theta_sd             =   3.9280299218648E+00
(PID.TID 0000.0001) %MON dynstat_theta_del2           =   4.1669093712254E-02
(PID.TID 0000.0001) %MON dynstat_salt_max             =   3.4700000000000E+01
(PID.TID 0000.0001) %MON dynstat_salt_min             =   3.4700000000000E+01
(PID.TID 0000.0001) %MON dynstat_salt_mean            =   3.4700000000000E+01
(PID.TID 0000.0001) %MON dynstat_salt_sd              =   0.0000000000000E+00
(PID.TID 0000.0001) %MON dynstat_salt_del2            =   0.0000000000000E+00
(PID.TID 0000.0001) %MON advcfl_uvel_max              =   1.0010600000033E-01
(PID.TID 0000.0001) %MON advcfl_vvel_max              =   5.9864590866577E-03
(PID.TID 0000.0001) %MON advcfl_wvel_max              =   2.8382602717351E-03
(PID.TID 0000.0001) %MON advcfl_W_hf_max              =   4.8418749579375E-03
(PID.TID 0000.0001) %MON pe_b_mean                    =   2.5600437553560E-03
(PID.TID 0000.0001) %MON ke_max                       =   7.4646967204033E-02
(PID.TID 0000.0001) %MON ke_mean                      =   8.3423828321380E-04
(PID.TID 0000.0001) %MON ke_vol                       =   2.1823819113454E+16
(PID.TID 0000.0001) %MON vort_r_min                   =  -1.7702531049712E-07
(PID.TID 0000.0001) %MON vort_r_max                   =   1.7702531049694E-07
(PID.TID 0000.0001) %MON vort_a_mean                  =  -3.1338916109818E-21
(PID.TID 0000.0001) %MON vort_a_sd                    =   8.3264756785461E-05
(PID.TID 0000.0001) %MON vort_p_mean                  =  -3.1534285782440E-21
(PID.TID 0000.0001) %MON vort_p_sd                    =   8.6550984237528E-05
(PID.TID 0000.0001) %MON surfExpan_theta_mean         =  -2.9870279242531E-06
(PID.TID 0000.0001) %MON surfExpan_salt_mean          =   6.6185676985639E-22
(PID.TID 0000.0001) // =======================================================
(PID.TID 0000.0001) // End MONITOR dynamic field statistics
(PID.TID 0000.0001) // =======================================================
 cg2d: Sum(rhs),rhsMax =   3.55271367880050E-15  1.47799637950120E+00
(PID.TID 0000.0001)                    cg2d_init_res =    4.29195825199690E-03
(PID.TID 0000.0001)                       cg2d_iters =    27
(PID.TID 0000.0001)                         cg2d_res =    1.08926343719796E-17
(PID.TID 0000.0001) // =======================================================
(PID.TID 0000.0001) // Begin MONITOR dynamic field statistics
(PID.TID 0000.0001) // =======================================================
(PID.TID 0000.0001) %MON time_tsnumber                =                 36011
(PID.TID 0000.0001) %MON time_secondsf                =   3.1113504000000E+09
(PID.TID 0000.0001) %MON dynstat_eta_max              =   1.6142605791673E+00
(PID.TID 0000.0001) %MON dynstat_eta_min              =  -3.9189040052030E+00
(PID.TID 0000.0001) %MON dynstat_eta_mean             =  -1.4891985601166E-16
(PID.TID 0000.0001) %MON dynstat_eta_sd               =   1.6467121893096E+00
(PID.TID 0000.0001) %MON dynstat_eta_del2             =   1.3951260587927E-02
(PID.TID 0000.0001) %MON dynstat_uvel_max             =   1.4301400804496E-01
(PID.TID 0000.0001) %MON dynstat_uvel_min             =  -3.8630979497832E-01
(PID.TID 0000.0001) %MON dynstat_uvel_mean            =   1.2811824875291E-02
(PID.TID 0000.0001) %MON dynstat_uvel_sd              =   3.8760380790154E-02
(PID.TID 0000.0001) %MON dynstat_uvel_del2            =   6.1917801889608E-04
(PID.TID 0000.0001) %MON dynstat_vvel_max             =   2.3093947847528E-02
(PID.TID 0000.0001) %MON dynstat_vvel_min             =  -2.3093947847496E-02
(PID.TID 0000.0001) %MON dynstat_vvel_mean            =   1.7456348081904E-16
(PID.TID 0000.0001) %MON dynstat_vvel_sd              =   1.5545395383977E-03
(PID.TID 0000.0001) %MON dynstat_vvel_del2            =   7.2927124737613E-05
(PID.TID 0000.0001) %MON dynstat_wvel_max             =   1.0533740918660E-06
(PID.TID 0000.0001) %MON dynstat_wvel_min             =  -9.5770525082464E-07
(PID.TID 0000.0001) %MON dynstat_wvel_mean            =  -2.9282689047677E-23
(PID.TID 0000.0001) %MON dynstat_wvel_sd              =   2.9472377871603E-07
(PID.TID 0000.0001) %MON dynstat_wvel_del2            =   3.6852264474866E-08
(PID.TID 0000.0001) %MON dynstat_theta_max            =   2.6677265793339E+01
(PID.TID 0000.0001) %MON dynstat_theta_min            =  -9.3076603683027E-01
(PID.TID 0000.0001) %MON dynstat_theta_mean           =   2.2243724700740E+00
(PID.TID 0000.0001) %MON dynstat_theta_sd             =   3.9281501226675E+00
(PID.TID 0000.0001) %MON dynstat_theta_del2           =   4.1664407220347E-02
(PID.TID 0000.0001) %MON dynstat_salt_max             =   3.4700000000000E+01
(PID.TID 0000.0001) %MON dynstat_salt_min             =   3.4700000000000E+01
(PID.TID 0000.0001) %MON dynstat_salt_mean            =   3.4700000000000E+01
(PID.TID 0000.0001) %MON dynstat_salt_sd              =   0.0000000000000E+00
(PID.TID 0000.0001) %MON dynstat_salt_del2            =   0.0000000000000E+00
(PID.TID 0000.0001) %MON advcfl_uvel_max              =   1.0010603383767E-01
(PID.TID 0000.0001) %MON advcfl_vvel_max              =   5.9823782458410E-03
(PID.TID 0000.0001) %MON advcfl_wvel_max              =   2.2981388460561E-03
(PID.TID 0000.0001) %MON advcfl_W_hf_max              =   4.5505760768610E-03
(PID.TID 0000.0001) %MON pe_b_mean                    =   2.5578264180450E-03
(PID.TID 0000.0001) %MON ke_max                       =   7.4646973998253E-02
(PID.TID 0000.0001) %MON ke_mean                      =   8.3455318975101E-04
(PID.TID 0000.0001) %MON ke_vol                       =   2.1823819113454E+16
(PID.TID 0000.0001) %MON vort_r_min                   =  -1.7703237600108E-07
(PID.TID 0000.0001) %MON vort_r_max                   =   1.7703237600090E-07
(PID.TID 0000.0001) %MON vort_a_mean                  =  -3.3477033363483E-20
(PID.TID 0000.0001) %MON vort_a_sd                    =   8.3264759268904E-05
(PID.TID 0000.0001) %MON vort_p_mean                  =  -3.3685732254844E-20
(PID.TID 0000.0001) %MON vort_p_sd                    =   8.6550987131953E-05
(PID.TID 0000.0001) %MON surfExpan_theta_mean         =  -2.4479996564031E-06
(PID.TID 0000.0001) %MON surfExpan_salt_mean          =  -2.4801428875048E-22
(PID.TID 0000.0001) // =======================================================
(PID.TID 0000.0001) // End MONITOR dynamic field statistics
(PID.TID 0000.0001) // =======================================================
 cg2d: Sum(rhs),rhsMax =   5.32907051820075E-15  1.47780677396419E+00
(PID.TID 0000.0001)                    cg2d_init_res =    3.16118962693548E-03
(PID.TID 0000.0001)                       cg2d_iters =    27
(PID.TID 0000.0001)                         cg2d_res =    1.26055102364876E-17
(PID.TID 0000.0001) // =======================================================
(PID.TID 0000.0001) // Begin MONITOR dynamic field statistics
(PID.TID 0000.0001) // =======================================================
(PID.TID 0000.0001) %MON time_tsnumber                =                 36012
(PID.TID 0000.0001) %MON time_secondsf                =   3.1114368000000E+09
(PID.TID 0000.0001) %MON dynstat_eta_max              =   1.6140286345283E+00
(PID.TID 0000.0001) %MON dynstat_eta_min              =  -3.9175648792913E+00
(PID.TID 0000.0001) %MON dynstat_eta_mean             =  -7.4459928005829E-17
(PID.TID 0000.0001) %MON dynstat_eta_sd               =   1.6461800957863E+00
(PID.TID 0000.0001) %MON dynstat_eta_del2             =   1.3951549158045E-02
(PID.TID 0000.0001) %MON dynstat_uvel_max             =   1.4303091105300E-01
(PID.TID 0000.0001) %MON dynstat_uvel_min             =  -3.8630982778410E-01
(PID.TID 0000.0001) %MON dynstat_uvel_mean            =   1.2821588557608E-02
(PID.TID 0000.0001) %MON dynstat_uvel_sd              =   3.8763394954963E-02
(PID.TID 0000.0001) %MON dynstat_uvel_del2            =   6.1922420536222E-04
(PID.TID 0000.0001) %MON dynstat_vvel_max             =   2.3075491681642E-02
(PID.TID 0000.0001) %MON dynstat_vvel_min             =  -2.3075491681613E-02
(PID.TID 0000.0001) %MON dynstat_vvel_mean            =   1.6653440911972E-16
(PID.TID 0000.0001) %MON dynstat_vvel_sd              =   1.5526561792383E-03
(PID.TID 0000.0001) %MON dynstat_vvel_del2            =   7.2910575980419E-05
(PID.TID 0000.0001) %MON dynstat_wvel_max             =   1.1258615683283E-06
(PID.TID 0000.0001) %MON dynstat_wvel_min             =  -8.8431011331334E-07
(PID.TID 0000.0001) %MON dynstat_wvel_mean            =   5.8565378095355E-24
(PID.TID 0000.0001) %MON dynstat_wvel_sd              =   2.7665249032376E-07
(PID.TID 0000.0001) %MON dynstat_wvel_del2            =   3.6833231481784E-08
(PID.TID 0000.0001) %MON dynstat_theta_max            =   2.6678023086797E+01
(PID.TID 0000.0001) %MON dynstat_theta_min            =  -9.3076668816956E-01
(PID.TID 0000.0001) %MON dynstat_theta_mean           =   2.2243919344328E+00
(PID.TID 0000.0001) %MON dynstat_theta_sd             =   3.9282357465801E+00
(PID.TID 0000.0001) %MON dynstat_theta_del2           =   4.1661616777978E-02
(PID.TID 0000.0001) %MON dynstat_salt_max             =   3.4700000000000E+01
(PID.TID 0000.0001) %MON dynstat_salt_min             =   3.4700000000000E+01
(PID.TID 0000.0001) %MON dynstat_salt_mean            =   3.4700000000000E+01
(PID.TID 0000.0001) %MON dynstat_salt_sd              =   0.0000000000000E+00
(PID.TID 0000.0001) %MON dynstat_salt_del2            =   0.0000000000000E+00
(PID.TID 0000.0001) %MON advcfl_uvel_max              =   1.0010604233876E-01
(PID.TID 0000.0001) %MON advcfl_vvel_max              =   5.9775972631339E-03
(PID.TID 0000.0001) %MON advcfl_wvel_max              =   1.6212406583928E-03
(PID.TID 0000.0001) %MON advcfl_W_hf_max              =   4.8637219751783E-03
(PID.TID 0000.0001) %MON pe_b_mean                    =   2.5561736908804E-03
(PID.TID 0000.0001) %MON ke_max                       =   7.4646937964791E-02
(PID.TID 0000.0001) %MON ke_mean                      =   8.3479227718355E-04
(PID.TID 0000.0001) %MON ke_vol                       =   2.1823819113454E+16
(PID.TID 0000.0001) %MON vort_r_min                   =  -1.7703846088563E-07
(PID.TID 0000.0001) %MON vort_r_max                   =   1.7703846088546E-07
(PID.TID 0000.0001) %MON vort_a_mean                  =  -4.2197986317447E-21
(PID.TID 0000.0001) %MON vort_a_sd                    =   8.3264761186337E-05
(PID.TID 0000.0001) %MON vort_p_mean                  =  -4.2461052428069E-21
(PID.TID 0000.0001) %MON vort_p_sd                    =   8.6550989369290E-05
(PID.TID 0000.0001) %MON surfExpan_theta_mean         =  -1.8170245162262E-06
(PID.TID 0000.0001) %MON surfExpan_salt_mean          =   1.3199482571159E-22
(PID.TID 0000.0001) // =======================================================
(PID.TID 0000.0001) // End MONITOR dynamic field statistics
(PID.TID 0000.0001) // =======================================================
 cg2d: Sum(rhs),rhsMax =   1.06581410364015E-14  1.47763550217755E+00
(PID.TID 0000.0001)                    cg2d_init_res =    1.95188493910076E-03
(PID.TID 0000.0001)                       cg2d_iters =    27
(PID.TID 0000.0001)                         cg2d_res =    1.17717720588426E-17
(PID.TID 0000.0001) // =======================================================
(PID.TID 0000.0001) // Begin MONITOR dynamic field statistics
(PID.TID 0000.0001) // =======================================================
(PID.TID 0000.0001) %MON time_tsnumber                =                 36013
(PID.TID 0000.0001) %MON time_secondsf                =   3.1115232000000E+09
(PID.TID 0000.0001) %MON dynstat_eta_max              =   1.6138344336469E+00
(PID.TID 0000.0001) %MON dynstat_eta_min              =  -3.9168605244797E+00
(PID.TID 0000.0001) %MON dynstat_eta_mean             =  -1.4891985601166E-16
(PID.TID 0000.0001) %MON dynstat_eta_sd               =   1.6458494399044E+00
(PID.TID 0000.0001) %MON dynstat_eta_del2             =   1.3951003886836E-02
(PID.TID 0000.0001) %MON dynstat_uvel_max             =   1.4304233068585E-01
(PID.TID 0000.0001) %MON dynstat_uvel_min             =  -3.8630975735651E-01
(PID.TID 0000.0001) %MON dynstat_uvel_mean            =   1.2828041132314E-02
(PID.TID 0000.0001) %MON dynstat_uvel_sd              =   3.8765303095157E-02
(PID.TID 0000.0001) %MON dynstat_uvel_del2            =   6.1925194566496E-04
(PID.TID 0000.0001) %MON dynstat_vvel_max             =   2.3055992627005E-02
(PID.TID 0000.0001) %MON dynstat_vvel_min             =  -2.3055992626978E-02
(PID.TID 0000.0001) %MON dynstat_vvel_mean            =   6.0910819088888E-16
(PID.TID 0000.0001) %MON dynstat_vvel_sd              =   1.5513279075074E-03
(PID.TID 0000.0001) %MON dynstat_vvel_del2            =   7.2917490935360E-05
(PID.TID 0000.0001) %MON dynstat_wvel_max             =   1.2291243207737E-06
(PID.TID 0000.0001) %MON dynstat_wvel_min             =  -8.4391852063519E-07
(PID.TID 0000.0001) %MON dynstat_wvel_mean            =   1.1713075619071E-23
(PID.TID 0000.0001) %MON dynstat_wvel_sd              =   2.6282478505288E-07
(PID.TID 0000.0001) %MON dynstat_wvel_del2            =   3.6835776362092E-08
(PID.TID 0000.0001) %MON dynstat_theta_max            =   2.6678169802349E+01
(PID.TID 0000.0001) %MON dynstat_theta_min            =  -9.3076734084156E-01
(PID.TID 0000.0001) %MON dynstat_theta_mean           =   2.2243997686559E+00
(PID.TID 0000.0001) %MON dynstat_theta_sd             =   3.9282838927436E+00
(PID.TID 0000.0001) %MON dynstat_theta_del2           =   4.1660705375676E-02
(PID.TID 0000.0001) %MON dynstat_salt_max             =   3.4700000000000E+01
(PID.TID 0000.0001) %MON dynstat_salt_min             =   3.4700000000000E+01
(PID.TID 0000.0001) %MON dynstat_salt_mean            =   3.4700000000000E+01
(PID.TID 0000.0001) %MON dynstat_salt_sd              =   0.0000000000000E+00
(PID.TID 0000.0001) %MON dynstat_salt_del2            =   0.0000000000000E+00
(PID.TID 0000.0001) %MON advcfl_uvel_max              =   1.0010602408857E-01
(PID.TID 0000.0001) %MON advcfl_vvel_max              =   5.9725461250156E-03
(PID.TID 0000.0001) %MON advcfl_wvel_max              =   1.7699390219141E-03
(PID.TID 0000.0001) %MON advcfl_W_hf_max              =   5.3098170657422E-03
(PID.TID 0000.0001) %MON pe_b_mean                    =   2.5551469150344E-03
(PID.TID 0000.0001) %MON ke_max                       =   7.4646859865423E-02
(PID.TID 0000.0001) %MON ke_mean                      =   8.3494696352750E-04
(PID.TID 0000.0001) %MON ke_vol                       =   2.1823819113454E+16
(PID.TID 0000.0001) %MON vort_r_min                   =  -1.7704342807829E-07
(PID.TID 0000.0001) %MON vort_r_max                   =   1.7704342807812E-07
(PID.TID 0000.0001) %MON vort_a_mean                  =  -3.9158101357981E-22
(PID.TID 0000.0001) %MON vort_a_sd                    =   8.3264762471957E-05
(PID.TID 0000.0001) %MON vort_p_mean                  =  -3.9402216547414E-22
(PID.TID 0000.0001) %MON vort_p_sd                    =   8.6550990863512E-05
(PID.TID 0000.0001) %MON surfExpan_theta_mean         =  -1.1223731832293E-06
(PID.TID 0000.0001) %MON surfExpan_salt_mean          =   4.3751771124740E-22
(PID.TID 0000.0001) // =======================================================
(PID.TID 0000.0001) // End MONITOR dynamic field statistics
(PID.TID 0000.0001) // =======================================================
 cg2d: Sum(rhs),rhsMax =   7.10542735760100E-15  1.47751203235920E+00
(PID.TID 0000.0001)                    cg2d_init_res =    7.74648567646593E-04
(PID.TID 0000.0001)                       cg2d_iters =    27
(PID.TID 0000.0001)                         cg2d_res =    1.79088399442463E-17
(PID.TID 0000.0001) // =======================================================
(PID.TID 0000.0001) // Begin MONITOR dynamic field statistics
(PID.TID 0000.0001) // =======================================================
(PID.TID 0000.0001) %MON time_tsnumber                =                 36014
(PID.TID 0000.0001) %MON time_secondsf                =   3.1116096000000E+09
(PID.TID 0000.0001) %MON dynstat_eta_max              =   1.6137062400499E+00
(PID.TID 0000.0001) %MON dynstat_eta_min              =  -3.9167847328943E+00
(PID.TID 0000.0001) %MON dynstat_eta_mean             =  -2.9783971202332E-16
(PID.TID 0000.0001) %MON dynstat_eta_sd               =   1.6457321219947E+00
(PID.TID 0000.0001) %MON dynstat_eta_del2             =   1.3949878339580E-02
(PID.TID 0000.0001) %MON dynstat_uvel_max             =   1.4304786671802E-01
(PID.TID 0000.0001) %MON dynstat_uvel_min             =  -3.8630958693783E-01
(PID.TID 0000.0001) %MON dynstat_uvel_mean            =   1.2831007681478E-02
(PID.TID 0000.0001) %MON dynstat_uvel_sd              =   3.8766038309299E-02
(PID.TID 0000.0001) %MON dynstat_uvel_del2            =   6.1926101437482E-04
(PID.TID 0000.0001) %MON dynstat_vvel_max             =   2.3036852868142E-02
(PID.TID 0000.0001) %MON dynstat_vvel_min             =  -2.3036852868116E-02
(PID.TID 0000.0001) %MON dynstat_vvel_mean            =   3.2448841507721E-16
(PID.TID 0000.0001) %MON dynstat_vvel_sd              =   1.5507709821106E-03
(PID.TID 0000.0001) %MON dynstat_vvel_del2            =   7.2930940864211E-05
(PID.TID 0000.0001) %MON dynstat_wvel_max             =   1.3298288328167E-06
(PID.TID 0000.0001) %MON dynstat_wvel_min             =  -8.3937160835161E-07
(PID.TID 0000.0001) %MON dynstat_wvel_mean            =  -5.8565378095355E-24
(PID.TID 0000.0001) %MON dynstat_wvel_sd              =   2.5564812544756E-07
(PID.TID 0000.0001) %MON dynstat_wvel_del2            =   3.6865541512127E-08
(PID.TID 0000.0001) %MON dynstat_theta_max            =   2.6677729228352E+01
(PID.TID 0000.0001) %MON dynstat_theta_min            =  -9.3076799467113E-01
(PID.TID 0000.0001) %MON dynstat_theta_mean           =   2.2243955017623E+00
(PID.TID 0000.0001) %MON dynstat_theta_sd             =   3.9282934259288E+00
(PID.TID 0000.0001) %MON dynstat_theta_del2           =   4.1661474039734E-02
(PID.TID 0000.0001) %MON dynstat_salt_max             =   3.4700000000000E+01
(PID.TID 0000.0001) %MON dynstat_salt_min             =   3.4700000000000E+01
(PID.TID 0000.0001) %MON dynstat_salt_mean            =   3.4700000000000E+01
(PID.TID 0000.0001) %MON dynstat_salt_sd              =   0.0000000000000E+00
(PID.TID 0000.0001) %MON dynstat_salt_del2            =   0.0000000000000E+00
(PID.TID 0000.0001) %MON advcfl_uvel_max              =   1.0010597992728E-01
(PID.TID 0000.0001) %MON advcfl_vvel_max              =   5.9675880607725E-03
(PID.TID 0000.0001) %MON advcfl_wvel_max              =   1.9149535192560E-03
(PID.TID 0000.0001) %MON advcfl_W_hf_max              =   5.7448605577680E-03
(PID.TID 0000.0001) %MON pe_b_mean                    =   2.5547826608032E-03
(PID.TID 0000.0001) %MON ke_max                       =   7.4646743426493E-02
(PID.TID 0000.0001) %MON ke_mean                      =   8.3501267157602E-04
(PID.TID 0000.0001) %MON ke_vol                       =   2.1823819113454E+16
(PID.TID 0000.0001) %MON vort_r_min                   =  -1.7704721468478E-07
(PID.TID 0000.0001) %MON vort_r_max                   =   1.7704721468460E-07
(PID.TID 0000.0001) %MON vort_a_mean                  =   1.1489674690881E-20
(PID.TID 0000.0001) %MON vort_a_sd                    =   8.3264763090909E-05
(PID.TID 0000.0001) %MON vort_p_mean                  =   1.1561302374973E-20
(PID.TID 0000.0001) %MON vort_p_sd                    =   8.6550991572916E-05
(PID.TID 0000.0001) %MON surfExpan_theta_mean         =  -3.9538154994244E-07
(PID.TID 0000.0001) %MON surfExpan_salt_mean          =  -1.7610103114913E-22
(PID.TID 0000.0001) // =======================================================
(PID.TID 0000.0001) // End MONITOR dynamic field statistics
(PID.TID 0000.0001) // =======================================================
 cg2d: Sum(rhs),rhsMax =   8.88178419700125E-15  1.47746519083325E+00
(PID.TID 0000.0001)                    cg2d_init_res =    7.12562502739405E-04
(PID.TID 0000.0001)                       cg2d_iters =    27
(PID.TID 0000.0001)                         cg2d_res =    6.62283241646999E-18
(PID.TID 0000.0001) // =======================================================
(PID.TID 0000.0001) // Begin MONITOR dynamic field statistics
(PID.TID 0000.0001) // =======================================================
(PID.TID 0000.0001) %MON time_tsnumber                =                 36015
(PID.TID 0000.0001) %MON time_secondsf                =   3.1116960000000E+09
(PID.TID 0000.0001) %MON dynstat_eta_max              =   1.6136715922241E+00
(PID.TID 0000.0001) %MON dynstat_eta_min              =  -3.9172787412666E+00
(PID.TID 0000.0001) %MON dynstat_eta_mean             =  -1.4891985601166E-16
(PID.TID 0000.0001) %MON dynstat_eta_sd               =   1.6458305966900E+00
(PID.TID 0000.0001) %MON dynstat_eta_del2             =   1.3948571558894E-02
(PID.TID 0000.0001) %MON dynstat_uvel_max             =   1.4304731866748E-01
(PID.TID 0000.0001) %MON dynstat_uvel_min             =  -3.8630932608726E-01
(PID.TID 0000.0001) %MON dynstat_uvel_mean            =   1.2830486332879E-02
(PID.TID 0000.0001) %MON dynstat_uvel_sd              =   3.8765587195026E-02
(PID.TID 0000.0001) %MON dynstat_uvel_del2            =   6.1925229058716E-04
(PID.TID 0000.0001) %MON dynstat_vvel_max             =   2.3019144782222E-02
(PID.TID 0000.0001) %MON dynstat_vvel_min             =  -2.3019144782198E-02
(PID.TID 0000.0001) %MON dynstat_vvel_mean            =   9.9675812162317E-17
(PID.TID 0000.0001) %MON dynstat_vvel_sd              =   1.5510473277004E-03
(PID.TID 0000.0001) %MON dynstat_vvel_del2            =   7.2945839354410E-05
(PID.TID 0000.0001) %MON dynstat_wvel_max             =   1.4227472533048E-06
(PID.TID 0000.0001) %MON dynstat_wvel_min             =  -8.2731729306208E-07
(PID.TID 0000.0001) %MON dynstat_wvel_mean            =  -7.3206722619193E-25
(PID.TID 0000.0001) %MON dynstat_wvel_sd              =   2.5588336566496E-07
(PID.TID 0000.0001) %MON dynstat_wvel_del2            =   3.6901009111432E-08
(PID.TID 0000.0001) %MON dynstat_theta_max            =   2.6676753458581E+01
(PID.TID 0000.0001) %MON dynstat_theta_min            =  -9.3076864935464E-01
(PID.TID 0000.0001) %MON dynstat_theta_mean           =   2.2243792129955E+00
(PID.TID 0000.0001) %MON dynstat_theta_sd             =   3.9282650097488E+00
(PID.TID 0000.0001) %MON dynstat_theta_del2           =   4.1663619032131E-02
(PID.TID 0000.0001) %MON dynstat_salt_max             =   3.4700000000000E+01
(PID.TID 0000.0001) %MON dynstat_salt_min             =   3.4700000000000E+01
(PID.TID 0000.0001) %MON dynstat_salt_mean            =   3.4700000000000E+01
(PID.TID 0000.0001) %MON dynstat_salt_sd              =   0.0000000000000E+00
(PID.TID 0000.0001) %MON dynstat_salt_del2            =   0.0000000000000E+00
(PID.TID 0000.0001) %MON advcfl_uvel_max              =   1.0010591233201E-01
(PID.TID 0000.0001) %MON advcfl_vvel_max              =   5.9630008646515E-03
(PID.TID 0000.0001) %MON advcfl_wvel_max              =   2.0487560447589E-03
(PID.TID 0000.0001) %MON advcfl_W_hf_max              =   6.1462681342766E-03
(PID.TID 0000.0001) %MON pe_b_mean                    =   2.5550884079750E-03
(PID.TID 0000.0001) %MON ke_max                       =   7.4646594273990E-02
(PID.TID 0000.0001) %MON ke_mean                      =   8.3498891842244E-04
(PID.TID 0000.0001) %MON ke_vol                       =   2.1823819113454E+16
(PID.TID 0000.0001) %MON vort_r_min                   =  -1.7704982515346E-07
(PID.TID 0000.0001) %MON vort_r_max                   =   1.7704982515328E-07
(PID.TID 0000.0001) %MON vort_a_mean                  =   4.5692966564032E-20
(PID.TID 0000.0001) %MON vort_a_sd                    =   8.3264763039776E-05
(PID.TID 0000.0001) %MON vort_p_mean                  =   4.5977820701535E-20
(PID.TID 0000.0001) %MON vort_p_sd                    =   8.6550991499132E-05
(PID.TID 0000.0001) %MON surfExpan_theta_mean         =   3.3071111591832E-07
(PID.TID 0000.0001) %MON surfExpan_salt_mean          =  -1.7169282316279E-22
(PID.TID 0000.0001) // =======================================================
(PID.TID 0000.0001) // End MONITOR dynamic field statistics
(PID.TID 0000.0001) // =======================================================
 cg2d: Sum(rhs),rhsMax =   8.88178419700125E-15  1.47751620116491E+00
(PID.TID 0000.0001)                    cg2d_init_res =    1.78914070872494E-03
(PID.TID 0000.0001)                       cg2d_iters =    27
(PID.TID 0000.0001)                         cg2d_res =    1.94977362043486E-17
(PID.TID 0000.0001) // =======================================================
(PID.TID 0000.0001) // Begin MONITOR dynamic field statistics
(PID.TID 0000.0001) // =======================================================
(PID.TID 0000.0001) %MON time_tsnumber                =                 36016
(PID.TID 0000.0001) %MON time_secondsf                =   3.1117824000000E+09
(PID.TID 0000.0001) %MON dynstat_eta_max              =   1.6137503272746E+00
(PID.TID 0000.0001) %MON dynstat_eta_min              =  -3.9182494434429E+00
(PID.TID 0000.0001) %MON dynstat_eta_mean             =  -2.2337978401749E-16
(PID.TID 0000.0001) %MON dynstat_eta_sd               =   1.6461369680002E+00
(PID.TID 0000.0001) %MON dynstat_eta_del2             =   1.3947502178021E-02
(PID.TID 0000.0001) %MON dynstat_uvel_max             =   1.4304073434083E-01
(PID.TID 0000.0001) %MON dynstat_uvel_min             =  -3.8630898824418E-01
(PID.TID 0000.0001) %MON dynstat_uvel_mean            =   1.2826637930047E-02
(PID.TID 0000.0001) %MON dynstat_uvel_sd              =   3.8763990921587E-02
(PID.TID 0000.0001) %MON dynstat_uvel_del2            =   6.1922754424609E-04
(PID.TID 0000.0001) %MON dynstat_vvel_max             =   2.3003603626555E-02
(PID.TID 0000.0001) %MON dynstat_vvel_min             =  -2.3003603626532E-02
(PID.TID 0000.0001) %MON dynstat_vvel_mean            =  -2.6691747068732E-16
(PID.TID 0000.0001) %MON dynstat_vvel_sd              =   1.5520650542026E-03
(PID.TID 0000.0001) %MON dynstat_vvel_del2            =   7.2964908936017E-05
(PID.TID 0000.0001) %MON dynstat_wvel_max             =   1.5045614675634E-06
(PID.TID 0000.0001) %MON dynstat_wvel_min             =  -8.0897021683651E-07
(PID.TID 0000.0001) %MON dynstat_wvel_mean            =  -2.9282689047677E-24
(PID.TID 0000.0001) %MON dynstat_wvel_sd              =   2.6253671371381E-07
(PID.TID 0000.0001) %MON dynstat_wvel_del2            =   3.6919546610407E-08
(PID.TID 0000.0001) %MON dynstat_theta_max            =   2.6675314246972E+01
(PID.TID 0000.0001) %MON dynstat_theta_min            =  -9.3076930456959E-01
(PID.TID 0000.0001) %MON dynstat_theta_mean           =   2.2243515324985E+00
(PID.TID 0000.0001) %MON dynstat_theta_sd             =   3.9282010151552E+00
(PID.TID 0000.0001) %MON dynstat_theta_del2           =   4.1666840740177E-02
(PID.TID 0000.0001) %MON dynstat_salt_max             =   3.4700000000000E+01
(PID.TID 0000.0001) %MON dynstat_salt_min             =   3.4700000000000E+01
(PID.TID 0000.0001) %MON dynstat_salt_mean            =   3.4700000000000E+01
(PID.TID 0000.0001) %MON dynstat_salt_sd              =   0.0000000000000E+00
(PID.TID 0000.0001) %MON dynstat_salt_del2            =   0.0000000000000E+00
(PID.TID 0000.0001) %MON advcfl_uvel_max              =   1.0010582478535E-01
(PID.TID 0000.0001) %MON advcfl_vvel_max              =   5.9589750015904E-03
(PID.TID 0000.0001) %MON advcfl_wvel_max              =   2.1665685132912E-03
(PID.TID 0000.0001) %MON advcfl_W_hf_max              =   6.4997055398737E-03
(PID.TID 0000.0001) %MON pe_b_mean                    =   2.5560397557556E-03
(PID.TID 0000.0001) %MON ke_max                       =   7.4646418986003E-02
(PID.TID 0000.0001) %MON ke_mean                      =   8.3487922918685E-04
(PID.TID 0000.0001) %MON ke_vol                       =   2.1823819113454E+16
(PID.TID 0000.0001) %MON vort_r_min                   =  -1.7705132243308E-07
(PID.TID 0000.0001) %MON vort_r_max                   =   1.7705132243290E-07
(PID.TID 0000.0001) %MON vort_a_mean                  =   6.4155272426966E-20
(PID.TID 0000.0001) %MON vort_a_sd                    =   8.3264762345548E-05
(PID.TID 0000.0001) %MON vort_p_mean                  =   6.4555222269745E-20
(PID.TID 0000.0001) %MON vort_p_sd                    =   8.6550990682869E-05
(PID.TID 0000.0001) %MON surfExpan_theta_mean         =   1.0223721318736E-06
(PID.TID 0000.0001) %MON surfExpan_salt_mean          =  -1.3380297400901E-22
(PID.TID 0000.0001) // =======================================================
(PID.TID 0000.0001) // End MONITOR dynamic field statistics
(PID.TID 0000.0001) // =======================================================
 cg2d: Sum(rhs),rhsMax =   1.42108547152020E-14  1.47767446319616E+00
(PID.TID 0000.0001)                    cg2d_init_res =    2.82283681886193E-03
(PID.TID 0000.0001)                       cg2d_iters =    27
(PID.TID 0000.0001)                         cg2d_res =    2.23583167575373E-17
(PID.TID 0000.0001) // =======================================================
(PID.TID 0000.0001) // Begin MONITOR dynamic field statistics
(PID.TID 0000.0001) // =======================================================
(PID.TID 0000.0001) %MON time_tsnumber                =                 36017
(PID.TID 0000.0001) %MON time_secondsf                =   3.1118688000000E+09
(PID.TID 0000.0001) %MON dynstat_eta_max              =   1.6139501378664E+00
(PID.TID 0000.0001) %MON dynstat_eta_min              =  -3.9195884522729E+00
(PID.TID 0000.0001) %MON dynstat_eta_mean             =  -2.2337978401749E-16
(PID.TID 0000.0001) %MON dynstat_eta_sd               =   1.6466328635899E+00
(PID.TID 0000.0001) %MON dynstat_eta_del2             =   1.3947003102485E-02
(PID.TID 0000.0001) %MON dynstat_uvel_max             =   1.4302844346102E-01
(PID.TID 0000.0001) %MON dynstat_uvel_min             =  -3.8630858868308E-01
(PID.TID 0000.0001) %MON dynstat_uvel_mean            =   1.2819768274521E-02
(PID.TID 0000.0001) %MON dynstat_uvel_sd              =   3.8761343442508E-02
(PID.TID 0000.0001) %MON dynstat_uvel_del2            =   6.1918920320069E-04
(PID.TID 0000.0001) %MON dynstat_vvel_max             =   2.2990681847654E-02
(PID.TID 0000.0001) %MON dynstat_vvel_min             =  -2.2990681847632E-02
(PID.TID 0000.0001) %MON dynstat_vvel_mean            =  -3.6750280418017E-16
(PID.TID 0000.0001) %MON dynstat_vvel_sd              =   1.5536055035562E-03
(PID.TID 0000.0001) %MON dynstat_vvel_del2            =   7.2980770154931E-05
(PID.TID 0000.0001) %MON dynstat_wvel_max             =   1.5735048198050E-06
(PID.TID 0000.0001) %MON dynstat_wvel_min             =  -8.1250379814053E-07
(PID.TID 0000.0001) %MON dynstat_wvel_mean            =   0.0000000000000E+00
(PID.TID 0000.0001) %MON dynstat_wvel_sd              =   2.7340462956636E-07
(PID.TID 0000.0001) %MON dynstat_wvel_del2            =   3.6918533593983E-08
(PID.TID 0000.0001) %MON dynstat_theta_max            =   2.6673495164254E+01
(PID.TID 0000.0001) %MON dynstat_theta_min            =  -9.3076995997620E-01
(PID.TID 0000.0001) %MON dynstat_theta_mean           =   2.2243136130660E+00
(PID.TID 0000.0001) %MON dynstat_theta_sd             =   3.9281053369743E+00
(PID.TID 0000.0001) %MON dynstat_theta_del2           =   4.1670852861505E-02
(PID.TID 0000.0001) %MON dynstat_salt_max             =   3.4700000000000E+01
(PID.TID 0000.0001) %MON dynstat_salt_min             =   3.4700000000000E+01
(PID.TID 0000.0001) %MON dynstat_salt_mean            =   3.4700000000000E+01
(PID.TID 0000.0001) %MON dynstat_salt_sd              =   0.0000000000000E+00
(PID.TID 0000.0001) %MON dynstat_salt_del2            =   0.0000000000000E+00
(PID.TID 0000.0001) %MON advcfl_uvel_max              =   1.0010572124546E-01
(PID.TID 0000.0001) %MON advcfl_vvel_max              =   5.9556276757237E-03
(PID.TID 0000.0001) %MON advcfl_wvel_max              =   2.2658469405193E-03
(PID.TID 0000.0001) %MON advcfl_W_hf_max              =   6.7975408215578E-03
(PID.TID 0000.0001) %MON pe_b_mean                    =   2.5575799918198E-03
(PID.TID 0000.0001) %MON ke_max                       =   7.4646224388457E-02
(PID.TID 0000.0001) %MON ke_mean                      =   8.3469087465995E-04
(PID.TID 0000.0001) %MON ke_vol                       =   2.1823819113454E+16
(PID.TID 0000.0001) %MON vort_r_min                   =  -1.7705181728604E-07
(PID.TID 0000.0001) %MON vort_r_max                   =   1.7705181728586E-07
(PID.TID 0000.0001) %MON vort_a_mean                  =  -3.0803189792544E-20
(PID.TID 0000.0001) %MON vort_a_sd                    =   8.3264761063214E-05
(PID.TID 0000.0001) %MON vort_p_mean                  =  -3.0995219698249E-20
(PID.TID 0000.0001) %MON vort_p_sd                    =   8.6550989197585E-05
(PID.TID 0000.0001) %MON surfExpan_theta_mean         =   1.6476522439673E-06
(PID.TID 0000.0001) %MON surfExpan_salt_mean          =  -6.1096450597960E-22
(PID.TID 0000.0001) // =======================================================
(PID.TID 0000.0001) // End MONITOR dynamic field statistics
(PID.TID 0000.0001) // =======================================================
 cg2d: Sum(rhs),rhsMax =   5.32907051820075E-15  1.47793608442137E+00
(PID.TID 0000.0001)                    cg2d_init_res =    3.71584662331015E-03
(PID.TID 0000.0001)                       cg2d_iters =    27
(PID.TID 0000.0001)                         cg2d_res =    2.09655957570004E-17
(PID.TID 0000.0001) // =======================================================
(PID.TID 0000.0001) // Begin MONITOR dynamic field statistics
(PID.TID 0000.0001) // =======================================================
(PID.TID 0000.0001) %MON time_tsnumber                =                 36018
(PID.TID 0000.0001) %MON time_secondsf                =   3.1119552000000E+09
(PID.TID 0000.0001) %MON dynstat_eta_max              =   1.6142649297386E+00
(PID.TID 0000.0001) %MON dynstat_eta_min              =  -3.9211878739091E+00
(PID.TID 0000.0001) %MON dynstat_eta_mean             =  -1.4891985601166E-16
(PID.TID 0000.0001) %MON dynstat_eta_sd               =   1.6472902027021E+00
(PID.TID 0000.0001) %MON dynstat_eta_del2             =   1.3947251920385E-02
(PID.TID 0000.0001) %MON dynstat_uvel_max             =   1.4301106480261E-01
(PID.TID 0000.0001) %MON dynstat_uvel_min             =  -3.8630814308865E-01
(PID.TID 0000.0001) %MON dynstat_uvel_mean            =   1.2810305217504E-02
(PID.TID 0000.0001) %MON dynstat_uvel_sd              =   3.8757786573840E-02
(PID.TID 0000.0001) %MON dynstat_uvel_del2            =   6.1914012919178E-04
(PID.TID 0000.0001) %MON dynstat_vvel_max             =   2.2980628451396E-02
(PID.TID 0000.0001) %MON dynstat_vvel_min             =  -2.2980628451374E-02
(PID.TID 0000.0001) %MON dynstat_vvel_mean            =  -6.9895063768536E-16
(PID.TID 0000.0001) %MON dynstat_vvel_sd              =   1.5553697621034E-03
(PID.TID 0000.0001) %MON dynstat_vvel_del2            =   7.2995146704412E-05
(PID.TID 0000.0001) %MON dynstat_wvel_max             =   1.6288564018944E-06
(PID.TID 0000.0001) %MON dynstat_wvel_min             =  -8.1371742068306E-07
(PID.TID 0000.0001) %MON dynstat_wvel_mean            =   3.5139226857213E-23
(PID.TID 0000.0001) %MON dynstat_wvel_sd              =   2.8585382959814E-07
(PID.TID 0000.0001) %MON dynstat_wvel_del2            =   3.6913851415973E-08
(PID.TID 0000.0001) %MON dynstat_theta_max            =   2.6671385807992E+01
(PID.TID 0000.0001) %MON dynstat_theta_min            =  -9.3077061527578E-01
(PID.TID 0000.0001) %MON dynstat_theta_mean           =   2.2242670708431E+00
(PID.TID 0000.0001) %MON dynstat_theta_sd             =   3.9279832026828E+00
(PID.TID 0000.0001) %MON dynstat_theta_del2           =   4.1675411476522E-02
(PID.TID 0000.0001) %MON dynstat_salt_max             =   3.4700000000000E+01
(PID.TID 0000.0001) %MON dynstat_salt_min             =   3.4700000000000E+01
(PID.TID 0000.0001) %MON dynstat_salt_mean            =   3.4700000000000E+01
(PID.TID 0000.0001) %MON dynstat_salt_sd              =   0.0000000000000E+00
(PID.TID 0000.0001) %MON dynstat_salt_del2            =   0.0000000000000E+00
(PID.TID 0000.0001) %MON advcfl_uvel_max              =   1.0010560577675E-01
(PID.TID 0000.0001) %MON advcfl_vvel_max              =   5.9530233908492E-03
(PID.TID 0000.0001) %MON advcfl_wvel_max              =   2.3455532187280E-03
(PID.TID 0000.0001) %MON advcfl_W_hf_max              =   7.0366596561840E-03
(PID.TID 0000.0001) %MON pe_b_mean                    =   2.5596223814345E-03
(PID.TID 0000.0001) %MON ke_max                       =   7.4646017132380E-02
(PID.TID 0000.0001) %MON ke_mean                      =   8.3443444347041E-04
(PID.TID 0000.0001) %MON ke_vol                       =   2.1823819113454E+16
(PID.TID 0000.0001) %MON vort_r_min                   =  -1.7705145747008E-07
(PID.TID 0000.0001) %MON vort_r_max                   =   1.7705145746990E-07
(PID.TID 0000.0001) %MON vort_a_mean                  =   2.5251345073620E-20
(PID.TID 0000.0001) %MON vort_a_sd                    =   8.3264759272168E-05
(PID.TID 0000.0001) %MON vort_p_mean                  =   2.5408764270985E-20
(PID.TID 0000.0001) %MON vort_p_sd                    =   8.6550987142284E-05
(PID.TID 0000.0001) %MON surfExpan_theta_mean         =   2.1781013539083E-06
(PID.TID 0000.0001) %MON surfExpan_salt_mean          =   6.7460184512135E-22
(PID.TID 0000.0001) // =======================================================
(PID.TID 0000.0001) // End MONITOR dynamic field statistics
(PID.TID 0000.0001) // =======================================================
 cg2d: Sum(rhs),rhsMax =   1.06581410364015E-14  1.47828481918076E+00
(PID.TID 0000.0001)                    cg2d_init_res =    4.42236993195522E-03
(PID.TID 0000.0001)                       cg2d_iters =    27
(PID.TID 0000.0001)                         cg2d_res =    3.91575980122252E-18
(PID.TID 0000.0001) // =======================================================
(PID.TID 0000.0001) // Begin MONITOR dynamic field statistics
(PID.TID 0000.0001) // =======================================================
(PID.TID 0000.0001) %MON time_tsnumber                =                 36019
(PID.TID 0000.0001) %MON time_secondsf                =   3.1120416000000E+09
(PID.TID 0000.0001) %MON dynstat_eta_max              =   1.6146757692138E+00
(PID.TID 0000.0001) %MON dynstat_eta_min              =  -3.9229502925798E+00
(PID.TID 0000.0001) %MON dynstat_eta_mean             =  -1.4891985601166E-16
(PID.TID 0000.0001) %MON dynstat_eta_sd               =   1.6480728107752E+00
(PID.TID 0000.0001) %MON dynstat_eta_del2             =   1.3948250268770E-02
(PID.TID 0000.0001) %MON dynstat_uvel_max             =   1.4298948211092E-01
(PID.TID 0000.0001) %MON dynstat_uvel_min             =  -3.8630766678600E-01
(PID.TID 0000.0001) %MON dynstat_uvel_mean            =   1.2798772591397E-02
(PID.TID 0000.0001) %MON dynstat_uvel_sd              =   3.8753502066346E-02
(PID.TID 0000.0001) %MON dynstat_uvel_del2            =   6.1908342026049E-04
(PID.TID 0000.0001) %MON dynstat_vvel_max             =   2.2973569470687E-02
(PID.TID 0000.0001) %MON dynstat_vvel_min             =  -2.2973569470665E-02
(PID.TID 0000.0001) %MON dynstat_vvel_mean            =  -1.3502465716494E-15
(PID.TID 0000.0001) %MON dynstat_vvel_sd              =   1.5570358683918E-03
(PID.TID 0000.0001) %MON dynstat_vvel_del2            =   7.3007189148061E-05
(PID.TID 0000.0001) %MON dynstat_wvel_max             =   1.6704463528489E-06
(PID.TID 0000.0001) %MON dynstat_wvel_min             =  -8.2031234164118E-07
(PID.TID 0000.0001) %MON dynstat_wvel_mean            =  -2.0497882333374E-23
(PID.TID 0000.0001) %MON dynstat_wvel_sd              =   2.9742518282001E-07
(PID.TID 0000.0001) %MON dynstat_wvel_del2            =   3.6913860280546E-08
(PID.TID 0000.0001) %MON dynstat_theta_max            =   2.6669078055897E+01
(PID.TID 0000.0001) %MON dynstat_theta_min            =  -9.3077127022139E-01
(PID.TID 0000.0001) %MON dynstat_theta_mean           =   2.2242138980982E+00
(PID.TID 0000.0001) %MON dynstat_theta_sd             =   3.9278408976583E+00
(PID.TID 0000.0001) %MON dynstat_theta_del2           =   4.1680307391407E-02
(PID.TID 0000.0001) %MON dynstat_salt_max             =   3.4700000000000E+01
(PID.TID 0000.0001) %MON dynstat_salt_min             =   3.4700000000000E+01
(PID.TID 0000.0001) %MON dynstat_salt_mean            =   3.4700000000000E+01
(PID.TID 0000.0001) %MON dynstat_salt_sd              =   0.0000000000000E+00
(PID.TID 0000.0001) %MON dynstat_salt_del2            =   0.0000000000000E+00
(PID.TID 0000.0001) %MON advcfl_uvel_max              =   1.0010548235050E-01
(PID.TID 0000.0001) %MON advcfl_vvel_max              =   5.9511947951969E-03
(PID.TID 0000.0001) %MON advcfl_wvel_max              =   2.4054427481024E-03
(PID.TID 0000.0001) %MON advcfl_W_hf_max              =   7.2163282443071E-03
(PID.TID 0000.0001) %MON pe_b_mean                    =   2.5620550517439E-03
(PID.TID 0000.0001) %MON ke_max                       =   7.4645803523974E-02
(PID.TID 0000.0001) %MON ke_mean                      =   8.3412327027868E-04
(PID.TID 0000.0001) %MON ke_vol                       =   2.1823819113454E+16
(PID.TID 0000.0001) %MON vort_r_min                   =  -1.7705041777370E-07
(PID.TID 0000.0001) %MON vort_r_max                   =   1.7705041777352E-07
(PID.TID 0000.0001) %MON vort_a_mean                  =  -4.6556908416499E-20
(PID.TID 0000.0001) %MON vort_a_sd                    =   8.3264757071678E-05
(PID.TID 0000.0001) %MON vort_p_mean                  =  -4.6847148446618E-20
(PID.TID 0000.0001) %MON vort_p_sd                    =   8.6550984634384E-05
(PID.TID 0000.0001) %MON surfExpan_theta_mean         =   2.5904928199025E-06
(PID.TID 0000.0001) %MON surfExpan_salt_mean          =   2.9728125078690E-22
(PID.TID 0000.0001) // =======================================================
(PID.TID 0000.0001) // End MONITOR dynamic field statistics
(PID.TID 0000.0001) // =======================================================
 cg2d: Sum(rhs),rhsMax =   7.10542735760100E-15  1.47869500989171E+00
(PID.TID 0000.0001)                    cg2d_init_res =    4.90872426022738E-03
(PID.TID 0000.0001)                       cg2d_iters =    27
(PID.TID 0000.0001)                         cg2d_res =    1.00010876359545E-17
(PID.TID 0000.0001) // =======================================================
(PID.TID 0000.0001) // Begin MONITOR dynamic field statistics
(PID.TID 0000.0001) // =======================================================
(PID.TID 0000.0001) %MON time_tsnumber                =                 36020
(PID.TID 0000.0001) %MON time_secondsf                =   3.1121280000000E+09
(PID.TID 0000.0001) %MON dynstat_eta_max              =   1.6151538730269E+00
(PID.TID 0000.0001) %MON dynstat_eta_min              =  -3.9247924316391E+00
(PID.TID 0000.0001) %MON dynstat_eta_mean             =  -2.2337978401749E-16
(PID.TID 0000.0001) %MON dynstat_eta_sd               =   1.6489387001939E+00
(PID.TID 0000.0001) %MON dynstat_eta_del2             =   1.3949846099061E-02
(PID.TID 0000.0001) %MON dynstat_uvel_max             =   1.4296479159693E-01
(PID.TID 0000.0001) %MON dynstat_uvel_min             =  -3.8630717450090E-01
(PID.TID 0000.0001) %MON dynstat_uvel_mean            =   1.2785762503343E-02
(PID.TID 0000.0001) %MON dynstat_uvel_sd              =   3.8748701211276E-02
(PID.TID 0000.0001) %MON dynstat_uvel_del2            =   6.1902224809460E-04
(PID.TID 0000.0001) %MON dynstat_vvel_max             =   2.2969570536770E-02
(PID.TID 0000.0001) %MON dynstat_vvel_min             =  -2.2969570536748E-02
(PID.TID 0000.0001) %MON dynstat_vvel_mean            =  -1.4962588083536E-15
(PID.TID 0000.0001) %MON dynstat_vvel_sd              =   1.5583167373778E-03
(PID.TID 0000.0001) %MON dynstat_vvel_del2            =   7.3013943056886E-05
(PID.TID 0000.0001) %MON dynstat_wvel_max             =   1.6982783594815E-06
(PID.TID 0000.0001) %MON dynstat_wvel_min             =  -8.2752779634575E-07
(PID.TID 0000.0001) %MON dynstat_wvel_mean            =   2.9282689047677E-24
(PID.TID 0000.0001) %MON dynstat_wvel_sd              =   3.0617323474724E-07
(PID.TID 0000.0001) %MON dynstat_wvel_del2            =   3.6913784140928E-08
(PID.TID 0000.0001) %MON dynstat_theta_max            =   2.6666663937898E+01
(PID.TID 0000.0001) %MON dynstat_theta_min            =  -9.3077192462233E-01
(PID.TID 0000.0001) %MON dynstat_theta_mean           =   2.2241563541310E+00
(PID.TID 0000.0001) %MON dynstat_theta_sd             =   3.9276854599468E+00
(PID.TID 0000.0001) %MON dynstat_theta_del2           =   4.1685350116699E-02
(PID.TID 0000.0001) %MON dynstat_salt_max             =   3.4700000000000E+01
(PID.TID 0000.0001) %MON dynstat_salt_min             =   3.4700000000000E+01
(PID.TID 0000.0001) %MON dynstat_salt_mean            =   3.4700000000000E+01
(PID.TID 0000.0001) %MON dynstat_salt_sd              =   0.0000000000000E+00
(PID.TID 0000.0001) %MON dynstat_salt_del2            =   0.0000000000000E+00
(PID.TID 0000.0001) %MON advcfl_uvel_max              =   1.0010535478266E-01
(PID.TID 0000.0001) %MON advcfl_vvel_max              =   5.9501588902304E-03
(PID.TID 0000.0001) %MON advcfl_wvel_max              =   2.4455208376533E-03
(PID.TID 0000.0001) %MON advcfl_W_hf_max              =   7.3365625129600E-03
(PID.TID 0000.0001) %MON pe_b_mean                    =   2.5647479414368E-03
(PID.TID 0000.0001) %MON ke_max                       =   7.4645589526600E-02
(PID.TID 0000.0001) %MON ke_mean                      =   8.3377274951306E-04
(PID.TID 0000.0001) %MON ke_vol                       =   2.1823819113454E+16
(PID.TID 0000.0001) %MON vort_r_min                   =  -1.7704889120245E-07
(PID.TID 0000.0001) %MON vort_r_max                   =   1.7704889120227E-07
(PID.TID 0000.0001) %MON vort_a_mean                  =   1.5429616211899E-20
(PID.TID 0000.0001) %MON vort_a_sd                    =   8.3264754575650E-05
(PID.TID 0000.0001) %MON vort_p_mean                  =   1.5525805852199E-20
(PID.TID 0000.0001) %MON vort_p_sd                    =   8.6550981803266E-05
(PID.TID 0000.0001) %MON surfExpan_theta_mean         =   2.8681647003275E-06
(PID.TID 0000.0001) %MON surfExpan_salt_mean          =   5.2835853994245E-23
(PID.TID 0000.0001) // =======================================================
(PID.TID 0000.0001) // End MONITOR dynamic field statistics
(PID.TID 0000.0001) // =======================================================
(PID.TID 0000.0001) %CHECKPOINT     36020 ckptA
(PID.TID 0000.0001)   Seconds in section "ALL                    [THE_MODEL_MAIN]":
(PID.TID 0000.0001)           User time:  1.30999994
(PID.TID 0000.0001)         System time:  0.109999999
(PID.TID 0000.0001)     Wall clock time:  1.4542892
(PID.TID 0000.0001)          No. starts: 1
(PID.TID 0000.0001)           No. stops: 1
(PID.TID 0000.0001)   Seconds in section "INITIALISE_FIXED       [THE_MODEL_MAIN]":
(PID.TID 0000.0001)           User time:  0.0599999987
(PID.TID 0000.0001)         System time:  0.0199999996
(PID.TID 0000.0001)     Wall clock time:  0.0974538326
(PID.TID 0000.0001)          No. starts: 1
(PID.TID 0000.0001)           No. stops: 1
(PID.TID 0000.0001)   Seconds in section "THE_MAIN_LOOP          [THE_MODEL_MAIN]":
(PID.TID 0000.0001)           User time:  1.22999996
(PID.TID 0000.0001)         System time:  0.0500000007
(PID.TID 0000.0001)     Wall clock time:  1.29110193
(PID.TID 0000.0001)          No. starts: 1
(PID.TID 0000.0001)           No. stops: 1
(PID.TID 0000.0001)   Seconds in section "INITIALISE_VARIA    [THE_MAIN_LOOP]":
(PID.TID 0000.0001)           User time:  0.0400000028
(PID.TID 0000.0001)         System time:  0.
(PID.TID 0000.0001)     Wall clock time:  0.0519080162
(PID.TID 0000.0001)          No. starts: 1
(PID.TID 0000.0001)           No. stops: 1
(PID.TID 0000.0001)   Seconds in section "MONITOR             [THE_MAIN_LOOP]":
(PID.TID 0000.0001)           User time:  0.
(PID.TID 0000.0001)         System time:  0.
(PID.TID 0000.0001)     Wall clock time:  0.00351190567
(PID.TID 0000.0001)          No. starts: 1
(PID.TID 0000.0001)           No. stops: 1
(PID.TID 0000.0001)   Seconds in section "DO_THE_MODEL_IO     [THE_MAIN_LOOP]":
(PID.TID 0000.0001)           User time:  0.
(PID.TID 0000.0001)         System time:  0.0300000012
(PID.TID 0000.0001)     Wall clock time:  0.0254428387
(PID.TID 0000.0001)          No. starts: 1
(PID.TID 0000.0001)           No. stops: 1
(PID.TID 0000.0001)   Seconds in section "MAIN LOOP           [THE_MAIN_LOOP]":
(PID.TID 0000.0001)           User time:  1.18999996
(PID.TID 0000.0001)         System time:  0.0199999996
(PID.TID 0000.0001)     Wall clock time:  1.21007705
(PID.TID 0000.0001)          No. starts: 1
(PID.TID 0000.0001)           No. stops: 1
(PID.TID 0000.0001)   Seconds in section "FORWARD_STEP        [THE_MAIN_LOOP]":
(PID.TID 0000.0001)           User time:  1.18999996
(PID.TID 0000.0001)         System time:  0.0199999996
(PID.TID 0000.0001)     Wall clock time:  1.20941973
(PID.TID 0000.0001)          No. starts: 20
(PID.TID 0000.0001)           No. stops: 20
(PID.TID 0000.0001)   Seconds in section "EXTERNAL_FIELDS_LOAD[FORWARD_STEP]":
(PID.TID 0000.0001)           User time:  0.
(PID.TID 0000.0001)         System time:  0.
(PID.TID 0000.0001)     Wall clock time:  0.000584363937
(PID.TID 0000.0001)          No. starts: 20
(PID.TID 0000.0001)           No. stops: 20
(PID.TID 0000.0001)   Seconds in section "DO_OCEANIC_PHYS     [FORWARD_STEP]":
(PID.TID 0000.0001)           User time:  0.219999887
(PID.TID 0000.0001)         System time:  0.
(PID.TID 0000.0001)     Wall clock time:  0.219094276
(PID.TID 0000.0001)          No. starts: 20
(PID.TID 0000.0001)           No. stops: 20
(PID.TID 0000.0001)   Seconds in section "DYNAMICS            [FORWARD_STEP]":
(PID.TID 0000.0001)           User time:  0.300000034
(PID.TID 0000.0001)         System time:  0.
(PID.TID 0000.0001)     Wall clock time:  0.313441992
(PID.TID 0000.0001)          No. starts: 20
(PID.TID 0000.0001)           No. stops: 20
(PID.TID 0000.0001)   Seconds in section "SOLVE_FOR_PRESSURE  [FORWARD_STEP]":
(PID.TID 0000.0001)           User time:  0.0800001845
(PID.TID 0000.0001)         System time:  0.
(PID.TID 0000.0001)     Wall clock time:  0.0639960766
(PID.TID 0000.0001)          No. starts: 20
(PID.TID 0000.0001)           No. stops: 20
(PID.TID 0000.0001)   Seconds in section "UV_CORRECTION_STEP  [FORWARD_STEP]":
(PID.TID 0000.0001)           User time:  0.0199999809
(PID.TID 0000.0001)         System time:  0.
(PID.TID 0000.0001)     Wall clock time:  0.0176911354
(PID.TID 0000.0001)          No. starts: 20
(PID.TID 0000.0001)           No. stops: 20
(PID.TID 0000.0001)   Seconds in section "UPDATE_ETAH        [FORWARD_STEP]":
(PID.TID 0000.0001)           User time:  0.
(PID.TID 0000.0001)         System time:  0.
(PID.TID 0000.0001)     Wall clock time:  0.000949144363
(PID.TID 0000.0001)          No. starts: 20
(PID.TID 0000.0001)           No. stops: 20
(PID.TID 0000.0001)   Seconds in section "THERMODYNAMICS      [FORWARD_STEP]":
(PID.TID 0000.0001)           User time:  0.36999999
(PID.TID 0000.0001)         System time:  0.
(PID.TID 0000.0001)     Wall clock time:  0.372822762
(PID.TID 0000.0001)          No. starts: 20
(PID.TID 0000.0001)           No. stops: 20
(PID.TID 0000.0001)   Seconds in section "TS_CORRECTION_STEP  [FORWARD_STEP]":
(PID.TID 0000.0001)           User time:  0.0200000107
(PID.TID 0000.0001)         System time:  0.
(PID.TID 0000.0001)     Wall clock time:  0.0320606232
(PID.TID 0000.0001)          No. starts: 20
(PID.TID 0000.0001)           No. stops: 20
(PID.TID 0000.0001)   Seconds in section "BLOCKING_EXCHANGES  [FORWARD_STEP]":
(PID.TID 0000.0001)           User time:  0.0799999237
(PID.TID 0000.0001)         System time:  0.
(PID.TID 0000.0001)     Wall clock time:  0.0768003464
(PID.TID 0000.0001)          No. starts: 20
(PID.TID 0000.0001)           No. stops: 20
(PID.TID 0000.0001)   Seconds in section "MONITOR             [FORWARD_STEP]":
(PID.TID 0000.0001)           User time:  0.0799999386
(PID.TID 0000.0001)         System time:  0.
(PID.TID 0000.0001)     Wall clock time:  0.0713431835
(PID.TID 0000.0001)          No. starts: 20
(PID.TID 0000.0001)           No. stops: 20
(PID.TID 0000.0001)   Seconds in section "DO_THE_MODEL_IO     [FORWARD_STEP]":
(PID.TID 0000.0001)           User time:  0.00999999046
(PID.TID 0000.0001)         System time:  0.0199999996
(PID.TID 0000.0001)     Wall clock time:  0.032235384
(PID.TID 0000.0001)          No. starts: 20
(PID.TID 0000.0001)           No. stops: 20
(PID.TID 0000.0001)   Seconds in section "WRITE_CHECKPOINT    [FORWARD_STEP]":
(PID.TID 0000.0001)           User time:  0.
(PID.TID 0000.0001)         System time:  0.
(PID.TID 0000.0001)     Wall clock time:  0.000599622726
(PID.TID 0000.0001)          No. starts: 20
(PID.TID 0000.0001)           No. stops: 20
(PID.TID 0000.0001)   Seconds in section "WRITE_CHECKPOINT       [THE_MODEL_MAIN]":
(PID.TID 0000.0001)           User time:  0.0199999809
(PID.TID 0000.0001)         System time:  0.0399999991
(PID.TID 0000.0001)     Wall clock time:  0.0655930042
(PID.TID 0000.0001)          No. starts: 1
(PID.TID 0000.0001)           No. stops: 1
(PID.TID 0000.0001) // ======================================================
(PID.TID 0000.0001) // Tile <-> Tile communication statistics
(PID.TID 0000.0001) // ======================================================
(PID.TID 0000.0001) // o Tile number: 000001
(PID.TID 0000.0001) //         No. X exchanges =              0
(PID.TID 0000.0001) //            Max. X spins =              0
(PID.TID 0000.0001) //            Min. X spins =     1000000000
(PID.TID 0000.0001) //          Total. X spins =              0
(PID.TID 0000.0001) //            Avg. X spins =       0.00E+00
(PID.TID 0000.0001) //         No. Y exchanges =              0
(PID.TID 0000.0001) //            Max. Y spins =              0
(PID.TID 0000.0001) //            Min. Y spins =     1000000000
(PID.TID 0000.0001) //          Total. Y spins =              0
(PID.TID 0000.0001) //            Avg. Y spins =       0.00E+00
(PID.TID 0000.0001) // o Tile number: 000002
(PID.TID 0000.0001) //         No. X exchanges =              0
(PID.TID 0000.0001) //            Max. X spins =              0
(PID.TID 0000.0001) //            Min. X spins =     1000000000
(PID.TID 0000.0001) //          Total. X spins =              0
(PID.TID 0000.0001) //            Avg. X spins =       0.00E+00
(PID.TID 0000.0001) //         No. Y exchanges =              0
(PID.TID 0000.0001) //            Max. Y spins =              0
(PID.TID 0000.0001) //            Min. Y spins =     1000000000
(PID.TID 0000.0001) //          Total. Y spins =              0
(PID.TID 0000.0001) //            Avg. Y spins =       0.00E+00
(PID.TID 0000.0001) // o Tile number: 000003
(PID.TID 0000.0001) //         No. X exchanges =              0
(PID.TID 0000.0001) //            Max. X spins =              0
(PID.TID 0000.0001) //            Min. X spins =     1000000000
(PID.TID 0000.0001) //          Total. X spins =              0
(PID.TID 0000.0001) //            Avg. X spins =       0.00E+00
(PID.TID 0000.0001) //         No. Y exchanges =              0
(PID.TID 0000.0001) //            Max. Y spins =              0
(PID.TID 0000.0001) //            Min. Y spins =     1000000000
(PID.TID 0000.0001) //          Total. Y spins =              0
(PID.TID 0000.0001) //            Avg. Y spins =       0.00E+00
(PID.TID 0000.0001) // o Tile number: 000004
(PID.TID 0000.0001) //         No. X exchanges =              0
(PID.TID 0000.0001) //            Max. X spins =              0
(PID.TID 0000.0001) //            Min. X spins =     1000000000
(PID.TID 0000.0001) //          Total. X spins =              0
(PID.TID 0000.0001) //            Avg. X spins =       0.00E+00
(PID.TID 0000.0001) //         No. Y exchanges =              0
(PID.TID 0000.0001) //            Max. Y spins =              0
(PID.TID 0000.0001) //            Min. Y spins =     1000000000
(PID.TID 0000.0001) //          Total. Y spins =              0
(PID.TID 0000.0001) //            Avg. Y spins =       0.00E+00
(PID.TID 0000.0001) // o Thread number: 000001
(PID.TID 0000.0001) //            No. barriers =          13486
(PID.TID 0000.0001) //      Max. barrier spins =              1
(PID.TID 0000.0001) //      Min. barrier spins =              1
(PID.TID 0000.0001) //     Total barrier spins =          13486
(PID.TID 0000.0001) //      Avg. barrier spins =       1.00E+00
